MODEL 1
REMARK VINA RESULT:      -8.5      0.000      0.000
REMARK  Name = 
REMARK  5 active torsions:
REMARK  status: ('A' for Active; 'I' for Inactive)
REMARK    1  A    between atoms: C_2  and  C_14
REMARK    2  A    between atoms: N_3  and  C_4
REMARK    3  A    between atoms: C_4  and  C_5
REMARK    4  A    between atoms: C_17  and  S_18
REMARK    5  A    between atoms: S_18  and  C_21
REMARK                            x       y       z     vdW  Elec       q    Type
REMARK                         _______ _______ _______ _____ _____    ______ ____
ROOT
ATOM      1  O   UNL     1       1.587   4.832  20.396  0.00  0.00    +0.000 OA
ATOM      2  C   UNL     1       2.282   5.812  20.153  0.00  0.00    +0.000 C 
ATOM      3  N   UNL     1       1.975   7.089  20.569  0.00  0.00    +0.000 N 
ATOM      4  H   UNL     1       2.509   7.877  20.235  0.00  0.00    +0.000 HD
ENDROOT
BRANCH   2   5
ATOM      5  C   UNL     1       3.512   5.651  19.329  0.00  0.00    +0.000 A 
ATOM      6  C   UNL     1       3.765   6.601  18.328  0.00  0.00    +0.000 A 
ATOM      7  C   UNL     1       4.876   6.471  17.490  0.00  0.00    +0.000 A 
ATOM      8  C   UNL     1       5.739   5.384  17.659  0.00  0.00    +0.000 A 
ATOM      9  C   UNL     1       5.487   4.421  18.645  0.00  0.00    +0.000 A 
ATOM     10  C   UNL     1       4.375   4.558  19.484  0.00  0.00    +0.000 A 
BRANCH   8  11
ATOM     11  S   UNL     1       7.090   5.138  16.509  0.00  0.00    +0.000 S 
ATOM     12  O   UNL     1       7.540   6.473  16.142  0.00  0.00    +0.000 OA
ATOM     13  O   UNL     1       8.017   4.234  17.174  0.00  0.00    +0.000 OA
BRANCH  11  14
ATOM     14  C   UNL     1       6.290   4.314  15.088  0.00  0.00    +0.000 C 
ATOM     15  F   UNL     1       5.939   3.022  15.355  0.00  0.00    +0.000 F 
ATOM     16  F   UNL     1       5.145   4.944  14.696  0.00  0.00    +0.000 F 
ATOM     17  F   UNL     1       7.096   4.269  13.989  0.00  0.00    +0.000 F 
ENDBRANCH  11  14
ENDBRANCH   8  11
ENDBRANCH   2   5
BRANCH   3  18
ATOM     18  C   UNL     1       0.759   7.367  21.302  0.00  0.00    +0.000 C 
BRANCH  18  19
ATOM     19  C   UNL     1       0.438   8.839  21.298  0.00  0.00    +0.000 A 
ATOM     20  C   UNL     1       0.814   9.639  20.192  0.00  0.00    +0.000 A 
ATOM     21  C   UNL     1       0.565  11.015  20.179  0.00  0.00    +0.000 A 
ATOM     22  C   UNL     1      -0.062  11.563  21.273  0.00  0.00    +0.000 A 
ATOM     23  C   UNL     1      -0.451  10.794  22.345  0.00  0.00    +0.000 A 
ATOM     24  C   UNL     1      -0.224   9.432  22.387  0.00  0.00    +0.000 A 
ATOM     25  O   UNL     1      -1.050  11.528  23.321  0.00  0.00    +0.000 OA
ATOM     26  C   UNL     1      -0.959  12.853  22.758  0.00  0.00    +0.000 C 
ATOM     27  O   UNL     1      -0.367  12.878  21.443  0.00  0.00    +0.000 OA
ENDBRANCH  18  19
ENDBRANCH   3  18
TORSDOF 5
ENDMDL
MODEL 2
REMARK VINA RESULT:      -8.4      0.664      1.847
REMARK  Name = 
REMARK  5 active torsions:
REMARK  status: ('A' for Active; 'I' for Inactive)
REMARK    1  A    between atoms: C_2  and  C_14
REMARK    2  A    between atoms: N_3  and  C_4
REMARK    3  A    between atoms: C_4  and  C_5
REMARK    4  A    between atoms: C_17  and  S_18
REMARK    5  A    between atoms: S_18  and  C_21
REMARK                            x       y       z     vdW  Elec       q    Type
REMARK                         _______ _______ _______ _____ _____    ______ ____
ROOT
ATOM      1  O   UNL     1       1.694   4.879  20.525  0.00  0.00    +0.000 OA
ATOM      2  C   UNL     1       2.275   5.886  20.135  0.00  0.00    +0.000 C 
ATOM      3  N   UNL     1       1.922   7.165  20.508  0.00  0.00    +0.000 N 
ATOM      4  H   UNL     1       2.348   7.962  20.061  0.00  0.00    +0.000 HD
ENDROOT
BRANCH   2   5
ATOM      5  C   UNL     1       3.403   5.754  19.173  0.00  0.00    +0.000 A 
ATOM      6  C   UNL     1       4.271   4.662  19.319  0.00  0.00    +0.000 A 
ATOM      7  C   UNL     1       5.377   4.516  18.478  0.00  0.00    +0.000 A 
ATOM      8  C   UNL     1       5.613   5.470  17.484  0.00  0.00    +0.000 A 
ATOM      9  C   UNL     1       4.763   6.573  17.339  0.00  0.00    +0.000 A 
ATOM     10  C   UNL     1       3.653   6.712  18.182  0.00  0.00    +0.000 A 
BRANCH   8  11
ATOM     11  S   UNL     1       7.098   5.363  16.487  0.00  0.00    +0.000 S 
ATOM     12  O   UNL     1       7.578   6.732  16.353  0.00  0.00    +0.000 OA
ATOM     13  O   UNL     1       7.943   4.375  17.141  0.00  0.00    +0.000 OA
BRANCH  11  14
ATOM     14  C   UNL     1       6.488   4.735  14.885  0.00  0.00    +0.000 C 
ATOM     15  F   UNL     1       7.369   4.948  13.863  0.00  0.00    +0.000 F 
ATOM     16  F   UNL     1       6.253   3.392  14.906  0.00  0.00    +0.000 F 
ATOM     17  F   UNL     1       5.317   5.322  14.504  0.00  0.00    +0.000 F 
ENDBRANCH  11  14
ENDBRANCH   8  11
ENDBRANCH   2   5
BRANCH   3  18
ATOM     18  C   UNL     1       0.787   7.408  21.372  0.00  0.00    +0.000 C 
BRANCH  18  19
ATOM     19  C   UNL     1       0.483   8.880  21.481  0.00  0.00    +0.000 A 
ATOM     20  C   UNL     1      -0.254   9.366  22.587  0.00  0.00    +0.000 A 
ATOM     21  C   UNL     1      -0.586  10.720  22.694  0.00  0.00    +0.000 A 
ATOM     22  C   UNL     1      -0.167  11.563  21.692  0.00  0.00    +0.000 A 
ATOM     23  C   UNL     1       0.567  11.107  20.622  0.00  0.00    +0.000 A 
ATOM     24  C   UNL     1       0.915   9.777  20.490  0.00  0.00    +0.000 A 
ATOM     25  O   UNL     1       0.878  12.099  19.745  0.00  0.00    +0.000 OA
ATOM     26  C   UNL     1       0.221  13.224  20.364  0.00  0.00    +0.000 C 
ATOM     27  O   UNL     1      -0.413  12.900  21.618  0.00  0.00    +0.000 OA
ENDBRANCH  18  19
ENDBRANCH   3  18
TORSDOF 5
ENDMDL
MODEL 3
REMARK VINA RESULT:      -8.2      0.443      1.295
REMARK  Name = 
REMARK  5 active torsions:
REMARK  status: ('A' for Active; 'I' for Inactive)
REMARK    1  A    between atoms: C_2  and  C_14
REMARK    2  A    between atoms: N_3  and  C_4
REMARK    3  A    between atoms: C_4  and  C_5
REMARK    4  A    between atoms: C_17  and  S_18
REMARK    5  A    between atoms: S_18  and  C_21
REMARK                            x       y       z     vdW  Elec       q    Type
REMARK                         _______ _______ _______ _____ _____    ______ ____
ROOT
ATOM      1  O   UNL     1       1.508   5.179  20.580  0.00  0.00    +0.000 OA
ATOM      2  C   UNL     1       2.180   6.141  20.224  0.00  0.00    +0.000 C 
ATOM      3  N   UNL     1       1.921   7.439  20.608  0.00  0.00    +0.000 N 
ATOM      4  H   UNL     1       2.424   8.205  20.187  0.00  0.00    +0.000 HD
ENDROOT
BRANCH   2   5
ATOM      5  C   UNL     1       3.322   5.931  19.292  0.00  0.00    +0.000 A 
ATOM      6  C   UNL     1       4.362   5.083  19.703  0.00  0.00    +0.000 A 
ATOM      7  C   UNL     1       5.484   4.890  18.892  0.00  0.00    +0.000 A 
ATOM      8  C   UNL     1       5.562   5.550  17.662  0.00  0.00    +0.000 A 
ATOM      9  C   UNL     1       4.538   6.412  17.249  0.00  0.00    +0.000 A 
ATOM     10  C   UNL     1       3.414   6.598  18.063  0.00  0.00    +0.000 A 
BRANCH   8  11
ATOM     11  S   UNL     1       7.051   5.414  16.676  0.00  0.00    +0.000 S 
ATOM     12  O   UNL     1       7.504   6.781  16.459  0.00  0.00    +0.000 OA
ATOM     13  O   UNL     1       7.915   4.485  17.390  0.00  0.00    +0.000 OA
BRANCH  11  14
ATOM     14  C   UNL     1       6.459   4.676  15.115  0.00  0.00    +0.000 C 
ATOM     15  F   UNL     1       5.676   5.527  14.390  0.00  0.00    +0.000 F 
ATOM     16  F   UNL     1       7.482   4.309  14.290  0.00  0.00    +0.000 F 
ATOM     17  F   UNL     1       5.711   3.553  15.317  0.00  0.00    +0.000 F 
ENDBRANCH  11  14
ENDBRANCH   8  11
ENDBRANCH   2   5
BRANCH   3  18
ATOM     18  C   UNL     1       0.785   7.762  21.443  0.00  0.00    +0.000 C 
BRANCH  18  19
ATOM     19  C   UNL     1       0.452   9.230  21.377  0.00  0.00    +0.000 A 
ATOM     20  C   UNL     1       0.833   9.987  20.243  0.00  0.00    +0.000 A 
ATOM     21  C   UNL     1       0.574  11.360  20.172  0.00  0.00    +0.000 A 
ATOM     22  C   UNL     1      -0.069  11.946  21.237  0.00  0.00    +0.000 A 
ATOM     23  C   UNL     1      -0.462  11.217  22.336  0.00  0.00    +0.000 A 
ATOM     24  C   UNL     1      -0.225   9.860  22.434  0.00  0.00    +0.000 A 
ATOM     25  O   UNL     1      -1.078  11.985  23.275  0.00  0.00    +0.000 OA
ATOM     26  C   UNL     1      -0.991  13.287  22.659  0.00  0.00    +0.000 C 
ATOM     27  O   UNL     1      -0.385  13.264  21.351  0.00  0.00    +0.000 OA
ENDBRANCH  18  19
ENDBRANCH   3  18
TORSDOF 5
ENDMDL
MODEL 4
REMARK VINA RESULT:      -8.2      3.565      4.460
REMARK  Name = 
REMARK  5 active torsions:
REMARK  status: ('A' for Active; 'I' for Inactive)
REMARK    1  A    between atoms: C_2  and  C_14
REMARK    2  A    between atoms: N_3  and  C_4
REMARK    3  A    between atoms: C_4  and  C_5
REMARK    4  A    between atoms: C_17  and  S_18
REMARK    5  A    between atoms: S_18  and  C_21
REMARK                            x       y       z     vdW  Elec       q    Type
REMARK                         _______ _______ _______ _____ _____    ______ ____
ROOT
ATOM      1  O   UNL     1       0.744   9.090  21.575  0.00  0.00    +0.000 OA
ATOM      2  C   UNL     1       1.109   8.777  20.448  0.00  0.00    +0.000 C 
ATOM      3  N   UNL     1       0.912   9.564  19.334  0.00  0.00    +0.000 N 
ATOM      4  H   UNL     1       1.115   9.206  18.413  0.00  0.00    +0.000 HD
ENDROOT
BRANCH   2   5
ATOM      5  C   UNL     1       1.768   7.459  20.230  0.00  0.00    +0.000 A 
ATOM      6  C   UNL     1       2.691   7.348  19.180  0.00  0.00    +0.000 A 
ATOM      7  C   UNL     1       3.300   6.123  18.897  0.00  0.00    +0.000 A 
ATOM      8  C   UNL     1       2.983   5.004  19.673  0.00  0.00    +0.000 A 
ATOM      9  C   UNL     1       2.050   5.099  20.713  0.00  0.00    +0.000 A 
ATOM     10  C   UNL     1       1.446   6.330  20.995  0.00  0.00    +0.000 A 
BRANCH   8  11
ATOM     11  S   UNL     1       3.657   3.403  19.236  0.00  0.00    +0.000 S 
ATOM     12  O   UNL     1       5.099   3.593  19.158  0.00  0.00    +0.000 OA
ATOM     13  O   UNL     1       3.116   2.466  20.209  0.00  0.00    +0.000 OA
BRANCH  11  14
ATOM     14  C   UNL     1       2.959   3.088  17.578  0.00  0.00    +0.000 C 
ATOM     15  F   UNL     1       2.733   1.762  17.342  0.00  0.00    +0.000 F 
ATOM     16  F   UNL     1       1.762   3.714  17.388  0.00  0.00    +0.000 F 
ATOM     17  F   UNL     1       3.778   3.517  16.575  0.00  0.00    +0.000 F 
ENDBRANCH  11  14
ENDBRANCH   8  11
ENDBRANCH   2   5
BRANCH   3  18
ATOM     18  C   UNL     1       0.207  10.825  19.422  0.00  0.00    +0.000 C 
BRANCH  18  19
ATOM     19  C   UNL     1      -1.081  10.792  18.641  0.00  0.00    +0.000 A 
ATOM     20  C   UNL     1      -1.176   9.995  17.475  0.00  0.00    +0.000 A 
ATOM     21  C   UNL     1      -2.345   9.976  16.707  0.00  0.00    +0.000 A 
ATOM     22  C   UNL     1      -3.399  10.752  17.127  0.00  0.00    +0.000 A 
ATOM     23  C   UNL     1      -3.327  11.516  18.269  0.00  0.00    +0.000 A 
ATOM     24  C   UNL     1      -2.189  11.552  19.051  0.00  0.00    +0.000 A 
ATOM     25  O   UNL     1      -4.473  12.208  18.506  0.00  0.00    +0.000 OA
ATOM     26  C   UNL     1      -5.262  11.825  17.359  0.00  0.00    +0.000 C 
ATOM     27  O   UNL     1      -4.601  10.874  16.500  0.00  0.00    +0.000 OA
ENDBRANCH  18  19
ENDBRANCH   3  18
TORSDOF 5
ENDMDL
MODEL 5
REMARK VINA RESULT:      -8.2      3.616      4.430
REMARK  Name = 
REMARK  5 active torsions:
REMARK  status: ('A' for Active; 'I' for Inactive)
REMARK    1  A    between atoms: C_2  and  C_14
REMARK    2  A    between atoms: N_3  and  C_4
REMARK    3  A    between atoms: C_4  and  C_5
REMARK    4  A    between atoms: C_17  and  S_18
REMARK    5  A    between atoms: S_18  and  C_21
REMARK                            x       y       z     vdW  Elec       q    Type
REMARK                         _______ _______ _______ _____ _____    ______ ____
ROOT
ATOM      1  O   UNL     1       2.123  10.085  17.869  0.00  0.00    +0.000 OA
ATOM      2  C   UNL     1       1.648   9.322  18.703  0.00  0.00    +0.000 C 
ATOM      3  N   UNL     1       0.584   9.645  19.517  0.00  0.00    +0.000 N 
ATOM      4  H   UNL     1       0.315   9.033  20.272  0.00  0.00    +0.000 HD
ENDROOT
BRANCH   2   5
ATOM      5  C   UNL     1       2.260   7.979  18.900  0.00  0.00    +0.000 A 
ATOM      6  C   UNL     1       3.132   7.500  17.911  0.00  0.00    +0.000 A 
ATOM      7  C   UNL     1       3.694   6.225  18.016  0.00  0.00    +0.000 A 
ATOM      8  C   UNL     1       3.381   5.427  19.121  0.00  0.00    +0.000 A 
ATOM      9  C   UNL     1       2.499   5.888  20.106  0.00  0.00    +0.000 A 
ATOM     10  C   UNL     1       1.942   7.168  19.997  0.00  0.00    +0.000 A 
BRANCH   8  11
ATOM     11  S   UNL     1       3.991   3.744  19.200  0.00  0.00    +0.000 S 
ATOM     12  O   UNL     1       5.441   3.856  19.265  0.00  0.00    +0.000 OA
ATOM     13  O   UNL     1       3.277   3.116  20.302  0.00  0.00    +0.000 OA
BRANCH  11  14
ATOM     14  C   UNL     1       3.470   3.030  17.602  0.00  0.00    +0.000 C 
ATOM     15  F   UNL     1       3.426   1.666  17.621  0.00  0.00    +0.000 F 
ATOM     16  F   UNL     1       2.226   3.443  17.226  0.00  0.00    +0.000 F 
ATOM     17  F   UNL     1       4.309   3.368  16.580  0.00  0.00    +0.000 F 
ENDBRANCH  11  14
ENDBRANCH   8  11
ENDBRANCH   2   5
BRANCH   3  18
ATOM     18  C   UNL     1      -0.029  10.955  19.466  0.00  0.00    +0.000 C 
BRANCH  18  19
ATOM     19  C   UNL     1      -1.352  10.916  18.747  0.00  0.00    +0.000 A 
ATOM     20  C   UNL     1      -1.527  10.051  17.640  0.00  0.00    +0.000 A 
ATOM     21  C   UNL     1      -2.731  10.023  16.929  0.00  0.00    +0.000 A 
ATOM     22  C   UNL     1      -3.739  10.859  17.345  0.00  0.00    +0.000 A 
ATOM     23  C   UNL     1      -3.590  11.690  18.431  0.00  0.00    +0.000 A 
ATOM     24  C   UNL     1      -2.416  11.737  19.157  0.00  0.00    +0.000 A 
ATOM     25  O   UNL     1      -4.702  12.434  18.674  0.00  0.00    +0.000 OA
ATOM     26  C   UNL     1      -5.555  12.006  17.591  0.00  0.00    +0.000 C 
ATOM     27  O   UNL     1      -4.965  10.981  16.766  0.00  0.00    +0.000 OA
ENDBRANCH  18  19
ENDBRANCH   3  18
TORSDOF 5
ENDMDL
MODEL 6
REMARK VINA RESULT:      -8.2      3.446      4.355
REMARK  Name = 
REMARK  5 active torsions:
REMARK  status: ('A' for Active; 'I' for Inactive)
REMARK    1  A    between atoms: C_2  and  C_14
REMARK    2  A    between atoms: N_3  and  C_4
REMARK    3  A    between atoms: C_4  and  C_5
REMARK    4  A    between atoms: C_17  and  S_18
REMARK    5  A    between atoms: S_18  and  C_21
REMARK                            x       y       z     vdW  Elec       q    Type
REMARK                         _______ _______ _______ _____ _____    ______ ____
ROOT
ATOM      1  O   UNL     1       0.895   9.156  21.161  0.00  0.00    +0.000 OA
ATOM      2  C   UNL     1       1.266   8.863  20.030  0.00  0.00    +0.000 C 
ATOM      3  N   UNL     1       1.104   9.685  18.935  0.00  0.00    +0.000 N 
ATOM      4  H   UNL     1       1.311   9.346  18.008  0.00  0.00    +0.000 HD
ENDROOT
BRANCH   2   5
ATOM      5  C   UNL     1       1.894   7.536  19.786  0.00  0.00    +0.000 A 
ATOM      6  C   UNL     1       1.671   6.517  20.724  0.00  0.00    +0.000 A 
ATOM      7  C   UNL     1       2.278   5.267  20.575  0.00  0.00    +0.000 A 
ATOM      8  C   UNL     1       3.112   5.038  19.476  0.00  0.00    +0.000 A 
ATOM      9  C   UNL     1       3.355   6.052  18.542  0.00  0.00    +0.000 A 
ATOM     10  C   UNL     1       2.741   7.301  18.695  0.00  0.00    +0.000 A 
BRANCH   8  11
ATOM     11  S   UNL     1       3.997   3.486  19.345  0.00  0.00    +0.000 S 
ATOM     12  O   UNL     1       5.409   3.840  19.333  0.00  0.00    +0.000 OA
ATOM     13  O   UNL     1       3.485   2.646  20.417  0.00  0.00    +0.000 OA
BRANCH  11  14
ATOM     14  C   UNL     1       3.481   2.841  17.716  0.00  0.00    +0.000 C 
ATOM     15  F   UNL     1       3.641   1.489  17.607  0.00  0.00    +0.000 F 
ATOM     16  F   UNL     1       2.166   3.088  17.450  0.00  0.00    +0.000 F 
ATOM     17  F   UNL     1       4.189   3.390  16.688  0.00  0.00    +0.000 F 
ENDBRANCH  11  14
ENDBRANCH   8  11
ENDBRANCH   2   5
BRANCH   3  18
ATOM     18  C   UNL     1       0.431  10.960  19.048  0.00  0.00    +0.000 C 
BRANCH  18  19
ATOM     19  C   UNL     1      -0.989  10.880  18.550  0.00  0.00    +0.000 A 
ATOM     20  C   UNL     1      -1.312  10.006  17.483  0.00  0.00    +0.000 A 
ATOM     21  C   UNL     1      -2.612   9.940  16.973  0.00  0.00    +0.000 A 
ATOM     22  C   UNL     1      -3.567  10.747  17.547  0.00  0.00    +0.000 A 
ATOM     23  C   UNL     1      -3.271  11.585  18.597  0.00  0.00    +0.000 A 
ATOM     24  C   UNL     1      -1.998  11.669  19.126  0.00  0.00    +0.000 A 
ATOM     25  O   UNL     1      -4.352  12.296  19.015  0.00  0.00    +0.000 OA
ATOM     26  C   UNL     1      -5.354  11.839  18.082  0.00  0.00    +0.000 C 
ATOM     27  O   UNL     1      -4.872  10.830  17.172  0.00  0.00    +0.000 OA
ENDBRANCH  18  19
ENDBRANCH   3  18
TORSDOF 5
ENDMDL
MODEL 7
REMARK VINA RESULT:      -8.2      3.616      4.739
REMARK  Name = 
REMARK  5 active torsions:
REMARK  status: ('A' for Active; 'I' for Inactive)
REMARK    1  A    between atoms: C_2  and  C_14
REMARK    2  A    between atoms: N_3  and  C_4
REMARK    3  A    between atoms: C_4  and  C_5
REMARK    4  A    between atoms: C_17  and  S_18
REMARK    5  A    between atoms: S_18  and  C_21
REMARK                            x       y       z     vdW  Elec       q    Type
REMARK                         _______ _______ _______ _____ _____    ______ ____
ROOT
ATOM      1  O   UNL     1       1.057   8.873  21.822  0.00  0.00    +0.000 OA
ATOM      2  C   UNL     1       1.169   8.597  20.632  0.00  0.00    +0.000 C 
ATOM      3  N   UNL     1       0.676   9.385  19.615  0.00  0.00    +0.000 N 
ATOM      4  H   UNL     1       0.681   9.051  18.663  0.00  0.00    +0.000 HD
ENDROOT
BRANCH   2   5
ATOM      5  C   UNL     1       1.834   7.325  20.235  0.00  0.00    +0.000 A 
ATOM      6  C   UNL     1       1.576   6.178  21.000  0.00  0.00    +0.000 A 
ATOM      7  C   UNL     1       2.213   4.970  20.706  0.00  0.00    +0.000 A 
ATOM      8  C   UNL     1       3.113   4.912  19.637  0.00  0.00    +0.000 A 
ATOM      9  C   UNL     1       3.391   6.055  18.877  0.00  0.00    +0.000 A 
ATOM     10  C   UNL     1       2.747   7.262  19.174  0.00  0.00    +0.000 A 
BRANCH   8  11
ATOM     11  S   UNL     1       4.032   3.405  19.334  0.00  0.00    +0.000 S 
ATOM     12  O   UNL     1       5.430   3.806  19.264  0.00  0.00    +0.000 OA
ATOM     13  O   UNL     1       3.613   2.470  20.367  0.00  0.00    +0.000 OA
BRANCH  11  14
ATOM     14  C   UNL     1       3.434   2.867  17.694  0.00  0.00    +0.000 C 
ATOM     15  F   UNL     1       4.147   3.412  16.665  0.00  0.00    +0.000 F 
ATOM     16  F   UNL     1       3.508   1.515  17.529  0.00  0.00    +0.000 F 
ATOM     17  F   UNL     1       2.132   3.208  17.475  0.00  0.00    +0.000 F 
ENDBRANCH  11  14
ENDBRANCH   8  11
ENDBRANCH   2   5
BRANCH   3  18
ATOM     18  C   UNL     1      -0.061  10.598  19.895  0.00  0.00    +0.000 C 
BRANCH  18  19
ATOM     19  C   UNL     1      -1.180  10.804  18.908  0.00  0.00    +0.000 A 
ATOM     20  C   UNL     1      -2.259  11.660  19.236  0.00  0.00    +0.000 A 
ATOM     21  C   UNL     1      -3.332  11.838  18.357  0.00  0.00    +0.000 A 
ATOM     22  C   UNL     1      -3.299  11.159  17.161  0.00  0.00    +0.000 A 
ATOM     23  C   UNL     1      -2.248  10.340  16.822  0.00  0.00    +0.000 A 
ATOM     24  C   UNL     1      -1.172  10.148  17.666  0.00  0.00    +0.000 A 
ATOM     25  O   UNL     1      -2.411   9.763  15.601  0.00  0.00    +0.000 OA
ATOM     26  C   UNL     1      -3.706  10.281  15.228  0.00  0.00    +0.000 C 
ATOM     27  O   UNL     1      -4.258  11.195  16.196  0.00  0.00    +0.000 OA
ENDBRANCH  18  19
ENDBRANCH   3  18
TORSDOF 5
ENDMDL
MODEL 8
REMARK VINA RESULT:      -8.1      3.907      4.800
REMARK  Name = 
REMARK  5 active torsions:
REMARK  status: ('A' for Active; 'I' for Inactive)
REMARK    1  A    between atoms: C_2  and  C_14
REMARK    2  A    between atoms: N_3  and  C_4
REMARK    3  A    between atoms: C_4  and  C_5
REMARK    4  A    between atoms: C_17  and  S_18
REMARK    5  A    between atoms: S_18  and  C_21
REMARK                            x       y       z     vdW  Elec       q    Type
REMARK                         _______ _______ _______ _____ _____    ______ ____
ROOT
ATOM      1  O   UNL     1       1.218   8.990  21.659  0.00  0.00    +0.000 OA
ATOM      2  C   UNL     1       1.241   8.694  20.469  0.00  0.00    +0.000 C 
ATOM      3  N   UNL     1       0.641   9.446  19.482  0.00  0.00    +0.000 N 
ATOM      4  H   UNL     1       0.579   9.095  18.539  0.00  0.00    +0.000 HD
ENDROOT
BRANCH   2   5
ATOM      5  C   UNL     1       1.912   7.436  20.040  0.00  0.00    +0.000 A 
ATOM      6  C   UNL     1       2.523   7.412  18.777  0.00  0.00    +0.000 A 
ATOM      7  C   UNL     1       3.122   6.243  18.301  0.00  0.00    +0.000 A 
ATOM      8  C   UNL     1       3.110   5.093  19.096  0.00  0.00    +0.000 A 
ATOM      9  C   UNL     1       2.488   5.101  20.351  0.00  0.00    +0.000 A 
ATOM     10  C   UNL     1       1.893   6.276  20.825  0.00  0.00    +0.000 A 
BRANCH   8  11
ATOM     11  S   UNL     1       3.758   3.556  18.442  0.00  0.00    +0.000 S 
ATOM     12  O   UNL     1       4.357   3.898  17.159  0.00  0.00    +0.000 OA
ATOM     13  O   UNL     1       4.598   3.002  19.493  0.00  0.00    +0.000 OA
BRANCH  11  14
ATOM     14  C   UNL     1       2.263   2.534  18.203  0.00  0.00    +0.000 C 
ATOM     15  F   UNL     1       2.010   1.711  19.262  0.00  0.00    +0.000 F 
ATOM     16  F   UNL     1       1.138   3.287  18.032  0.00  0.00    +0.000 F 
ATOM     17  F   UNL     1       2.352   1.727  17.107  0.00  0.00    +0.000 F 
ENDBRANCH  11  14
ENDBRANCH   8  11
ENDBRANCH   2   5
BRANCH   3  18
ATOM     18  C   UNL     1      -0.109  10.642  19.802  0.00  0.00    +0.000 C 
BRANCH  18  19
ATOM     19  C   UNL     1      -1.249  10.851  18.840  0.00  0.00    +0.000 A 
ATOM     20  C   UNL     1      -2.341  11.673  19.209  0.00  0.00    +0.000 A 
ATOM     21  C   UNL     1      -3.432  11.853  18.353  0.00  0.00    +0.000 A 
ATOM     22  C   UNL     1      -3.405  11.208  17.139  0.00  0.00    +0.000 A 
ATOM     23  C   UNL     1      -2.342  10.423  16.759  0.00  0.00    +0.000 A 
ATOM     24  C   UNL     1      -1.248  10.230  17.579  0.00  0.00    +0.000 A 
ATOM     25  O   UNL     1      -2.514   9.877  15.525  0.00  0.00    +0.000 OA
ATOM     26  C   UNL     1      -3.826  10.376  15.188  0.00  0.00    +0.000 C 
ATOM     27  O   UNL     1      -4.381  11.251  16.191  0.00  0.00    +0.000 OA
ENDBRANCH  18  19
ENDBRANCH   3  18
TORSDOF 5
ENDMDL
MODEL 9
REMARK VINA RESULT:      -8.1      3.519      4.330
REMARK  Name = 
REMARK  5 active torsions:
REMARK  status: ('A' for Active; 'I' for Inactive)
REMARK    1  A    between atoms: C_2  and  C_14
REMARK    2  A    between atoms: N_3  and  C_4
REMARK    3  A    between atoms: C_4  and  C_5
REMARK    4  A    between atoms: C_17  and  S_18
REMARK    5  A    between atoms: S_18  and  C_21
REMARK                            x       y       z     vdW  Elec       q    Type
REMARK                         _______ _______ _______ _____ _____    ______ ____
ROOT
ATOM      1  O   UNL     1       1.034   9.009  20.796  0.00  0.00    +0.000 OA
ATOM      2  C   UNL     1       1.452   8.893  19.649  0.00  0.00    +0.000 C 
ATOM      3  N   UNL     1       1.291   9.855  18.676  0.00  0.00    +0.000 N 
ATOM      4  H   UNL     1       1.539   9.658  17.718  0.00  0.00    +0.000 HD
ENDROOT
BRANCH   2   5
ATOM      5  C   UNL     1       2.140   7.636  19.244  0.00  0.00    +0.000 A 
ATOM      6  C   UNL     1       2.096   6.546  20.126  0.00  0.00    +0.000 A 
ATOM      7  C   UNL     1       2.768   5.359  19.822  0.00  0.00    +0.000 A 
ATOM      8  C   UNL     1       3.487   5.265  18.626  0.00  0.00    +0.000 A 
ATOM      9  C   UNL     1       3.552   6.353  17.747  0.00  0.00    +0.000 A 
ATOM     10  C   UNL     1       2.873   7.538  18.054  0.00  0.00    +0.000 A 
BRANCH   8  11
ATOM     11  S   UNL     1       4.458   3.798  18.289  0.00  0.00    +0.000 S 
ATOM     12  O   UNL     1       4.977   3.974  16.940  0.00  0.00    +0.000 OA
ATOM     13  O   UNL     1       5.392   3.677  19.399  0.00  0.00    +0.000 OA
BRANCH  11  14
ATOM     14  C   UNL     1       3.223   2.454  18.334  0.00  0.00    +0.000 C 
ATOM     15  F   UNL     1       2.061   2.781  17.697  0.00  0.00    +0.000 F 
ATOM     16  F   UNL     1       3.673   1.312  17.737  0.00  0.00    +0.000 F 
ATOM     17  F   UNL     1       2.874   2.106  19.606  0.00  0.00    +0.000 F 
ENDBRANCH  11  14
ENDBRANCH   8  11
ENDBRANCH   2   5
BRANCH   3  18
ATOM     18  C   UNL     1       0.563  11.077  18.942  0.00  0.00    +0.000 C 
BRANCH  18  19
ATOM     19  C   UNL     1      -0.887  10.950  18.553  0.00  0.00    +0.000 A 
ATOM     20  C   UNL     1      -1.269  10.028  17.549  0.00  0.00    +0.000 A 
ATOM     21  C   UNL     1      -2.601   9.918  17.139  0.00  0.00    +0.000 A 
ATOM     22  C   UNL     1      -3.528  10.731  17.749  0.00  0.00    +0.000 A 
ATOM     23  C   UNL     1      -3.173  11.616  18.741  0.00  0.00    +0.000 A 
ATOM     24  C   UNL     1      -1.867  11.745  19.170  0.00  0.00    +0.000 A 
ATOM     25  O   UNL     1      -4.236  12.324  19.209  0.00  0.00    +0.000 OA
ATOM     26  C   UNL     1      -5.293  11.812  18.371  0.00  0.00    +0.000 C 
ATOM     27  O   UNL     1      -4.859  10.775  17.469  0.00  0.00    +0.000 OA
ENDBRANCH  18  19
ENDBRANCH   3  18
TORSDOF 5
ENDMDL
