MODEL 1
REMARK VINA RESULT:      -8.6      0.000      0.000
REMARK  Name = 
REMARK  3 active torsions:
REMARK  status: ('A' for Active; 'I' for Inactive)
REMARK    1  A    between atoms: C_2  and  C_13
REMARK    2  A    between atoms: N_3  and  C_4
REMARK    3  A    between atoms: N_17  and  C_18
REMARK                            x       y       z     vdW  Elec       q    Type
REMARK                         _______ _______ _______ _____ _____    ______ ____
ROOT
ATOM      1  C   UNL     1       1.815   3.897  19.564  0.00  0.00    +0.000 C 
ATOM      2  C   UNL     1       2.574   2.694  20.102  0.00  0.00    +0.000 C 
ATOM      3  C   UNL     1       3.908   2.784  19.401  0.00  0.00    +0.000 C 
ATOM      4  O   UNL     1       4.895   2.163  19.763  0.00  0.00    +0.000 OA
ATOM      5  N   UNL     1       3.766   3.659  18.314  0.00  0.00    +0.000 N 
ATOM      6  C   UNL     1       2.397   4.109  18.181  0.00  0.00    +0.000 C 
ENDROOT
BRANCH   5   7
ATOM      7  C   UNL     1       4.790   4.049  17.414  0.00  0.00    +0.000 A 
ATOM      8  C   UNL     1       5.946   4.694  17.873  0.00  0.00    +0.000 A 
ATOM      9  C   UNL     1       6.950   5.096  16.987  0.00  0.00    +0.000 A 
ATOM     10  C   UNL     1       6.814   4.850  15.626  0.00  0.00    +0.000 A 
ATOM     11  C   UNL     1       5.677   4.194  15.152  0.00  0.00    +0.000 A 
ATOM     12  C   UNL     1       4.662   3.819  16.036  0.00  0.00    +0.000 A 
ATOM     13  O   UNL     1       5.489   3.886  13.828  0.00  0.00    +0.000 OA
ATOM     14  C   UNL     1       6.717   3.977  13.094  0.00  0.00    +0.000 C 
ATOM     15  C   UNL     1       7.460   5.257  13.441  0.00  0.00    +0.000 C 
ATOM     16  O   UNL     1       7.839   5.267  14.821  0.00  0.00    +0.000 OA
ENDBRANCH   5   7
BRANCH   1  18
ATOM     17  O   UNL     1       2.281   5.045  21.619  0.00  0.00    +0.000 OA
ATOM     18  C   UNL     1       1.971   5.141  20.433  0.00  0.00    +0.000 C 
ATOM     19  N   UNL     1       1.730   6.349  19.824  0.00  0.00    +0.000 N 
ATOM     20  H   UNL     1       1.342   6.386  18.889  0.00  0.00    +0.000 HD
BRANCH  19  21
ATOM     21  C   UNL     1       1.703   7.583  20.577  0.00  0.00    +0.000 C 
ATOM     22  C   UNL     1       0.454   7.686  21.478  0.00  0.00    +0.000 C 
ATOM     23  C   UNL     1       0.160   9.184  21.632  0.00  0.00    +0.000 C 
ATOM     24  C   UNL     1       0.644   9.707  20.316  0.00  0.00    +0.000 A 
ATOM     25  C   UNL     1       0.359  10.929  19.729  0.00  0.00    +0.000 A 
ATOM     26  C   UNL     1       0.949  11.226  18.499  0.00  0.00    +0.000 A 
ATOM     27  C   UNL     1       1.818  10.312  17.883  0.00  0.00    +0.000 A 
ATOM     28  C   UNL     1       2.115   9.089  18.491  0.00  0.00    +0.000 A 
ATOM     29  C   UNL     1       1.516   8.794  19.706  0.00  0.00    +0.000 A 
ENDBRANCH  19  21
ENDBRANCH   1  18
TORSDOF 3
ENDMDL
MODEL 2
REMARK VINA RESULT:      -8.5      2.097      6.760
REMARK  Name = 
REMARK  3 active torsions:
REMARK  status: ('A' for Active; 'I' for Inactive)
REMARK    1  A    between atoms: C_2  and  C_13
REMARK    2  A    between atoms: N_3  and  C_4
REMARK    3  A    between atoms: N_17  and  C_18
REMARK                            x       y       z     vdW  Elec       q    Type
REMARK                         _______ _______ _______ _____ _____    ______ ____
ROOT
ATOM      1  C   UNL     1       2.873   2.790  20.125  0.00  0.00    +0.000 C 
ATOM      2  C   UNL     1       1.921   2.606  18.953  0.00  0.00    +0.000 C 
ATOM      3  C   UNL     1       1.527   4.019  18.600  0.00  0.00    +0.000 C 
ATOM      4  O   UNL     1       0.992   4.318  17.544  0.00  0.00    +0.000 OA
ATOM      5  N   UNL     1       1.871   4.845  19.681  0.00  0.00    +0.000 N 
ATOM      6  C   UNL     1       2.401   4.071  20.782  0.00  0.00    +0.000 C 
ENDROOT
BRANCH   5   7
ATOM      7  C   UNL     1       1.703   6.252  19.745  0.00  0.00    +0.000 A 
ATOM      8  C   UNL     1       1.229   6.869  20.910  0.00  0.00    +0.000 A 
ATOM      9  C   UNL     1       1.045   8.254  20.970  0.00  0.00    +0.000 A 
ATOM     10  C   UNL     1       1.342   9.042  19.865  0.00  0.00    +0.000 A 
ATOM     11  C   UNL     1       1.829   8.447  18.701  0.00  0.00    +0.000 A 
ATOM     12  C   UNL     1       1.986   7.060  18.633  0.00  0.00    +0.000 A 
ATOM     13  O   UNL     1       2.177   9.164  17.584  0.00  0.00    +0.000 OA
ATOM     14  C   UNL     1       2.327  10.557  17.886  0.00  0.00    +0.000 C 
ATOM     15  C   UNL     1       1.167  11.054  18.733  0.00  0.00    +0.000 C 
ATOM     16  O   UNL     1       1.141  10.390  20.000  0.00  0.00    +0.000 OA
ENDBRANCH   5   7
BRANCH   1  18
ATOM     17  O   UNL     1       5.183   2.146  20.191  0.00  0.00    +0.000 OA
ATOM     18  C   UNL     1       4.334   2.887  19.699  0.00  0.00    +0.000 C 
ATOM     19  N   UNL     1       4.639   3.847  18.764  0.00  0.00    +0.000 N 
ATOM     20  H   UNL     1       3.946   4.531  18.484  0.00  0.00    +0.000 HD
BRANCH  19  21
ATOM     21  C   UNL     1       6.006   4.132  18.391  0.00  0.00    +0.000 C 
ATOM     22  C   UNL     1       6.470   5.514  18.899  0.00  0.00    +0.000 C 
ATOM     23  C   UNL     1       7.544   5.993  17.913  0.00  0.00    +0.000 C 
ATOM     24  C   UNL     1       7.066   5.364  16.642  0.00  0.00    +0.000 A 
ATOM     25  C   UNL     1       7.430   5.684  15.344  0.00  0.00    +0.000 A 
ATOM     26  C   UNL     1       6.879   4.940  14.299  0.00  0.00    +0.000 A 
ATOM     27  C   UNL     1       5.990   3.887  14.562  0.00  0.00    +0.000 A 
ATOM     28  C   UNL     1       5.642   3.558  15.876  0.00  0.00    +0.000 A 
ATOM     29  C   UNL     1       6.183   4.309  16.909  0.00  0.00    +0.000 A 
ENDBRANCH  19  21
ENDBRANCH   1  18
TORSDOF 3
ENDMDL
MODEL 3
REMARK VINA RESULT:      -8.5      2.194      7.084
REMARK  Name = 
REMARK  3 active torsions:
REMARK  status: ('A' for Active; 'I' for Inactive)
REMARK    1  A    between atoms: C_2  and  C_13
REMARK    2  A    between atoms: N_3  and  C_4
REMARK    3  A    between atoms: N_17  and  C_18
REMARK                            x       y       z     vdW  Elec       q    Type
REMARK                         _______ _______ _______ _____ _____    ______ ____
ROOT
ATOM      1  C   UNL     1       2.906   2.923  20.474  0.00  0.00    +0.000 C 
ATOM      2  C   UNL     1       1.870   2.594  19.410  0.00  0.00    +0.000 C 
ATOM      3  C   UNL     1       1.460   3.951  18.893  0.00  0.00    +0.000 C 
ATOM      4  O   UNL     1       0.852   4.111  17.847  0.00  0.00    +0.000 OA
ATOM      5  N   UNL     1       1.886   4.913  19.822  0.00  0.00    +0.000 N 
ATOM      6  C   UNL     1       2.490   4.290  20.980  0.00  0.00    +0.000 C 
ENDROOT
BRANCH   5   7
ATOM      7  C   UNL     1       1.732   6.317  19.703  0.00  0.00    +0.000 A 
ATOM      8  C   UNL     1       2.165   6.995  18.556  0.00  0.00    +0.000 A 
ATOM      9  C   UNL     1       2.032   8.383  18.442  0.00  0.00    +0.000 A 
ATOM     10  C   UNL     1       1.453   9.111  19.474  0.00  0.00    +0.000 A 
ATOM     11  C   UNL     1       1.001   8.451  20.618  0.00  0.00    +0.000 A 
ATOM     12  C   UNL     1       1.161   7.069  20.742  0.00  0.00    +0.000 A 
ATOM     13  O   UNL     1       0.388   9.098  21.661  0.00  0.00    +0.000 OA
ATOM     14  C   UNL     1      -0.047  10.409  21.276  0.00  0.00    +0.000 C 
ATOM     15  C   UNL     1       1.047  11.139  20.513  0.00  0.00    +0.000 C 
ATOM     16  O   UNL     1       1.351  10.463  19.289  0.00  0.00    +0.000 OA
ENDBRANCH   5   7
BRANCH   1  18
ATOM     17  O   UNL     1       5.125   2.045  20.233  0.00  0.00    +0.000 OA
ATOM     18  C   UNL     1       4.332   2.936  19.937  0.00  0.00    +0.000 C 
ATOM     19  N   UNL     1       4.676   3.997  19.133  0.00  0.00    +0.000 N 
ATOM     20  H   UNL     1       4.047   4.784  19.023  0.00  0.00    +0.000 HD
BRANCH  19  21
ATOM     21  C   UNL     1       6.035   4.197  18.684  0.00  0.00    +0.000 C 
ATOM     22  C   UNL     1       6.614   5.543  19.169  0.00  0.00    +0.000 C 
ATOM     23  C   UNL     1       7.659   5.959  18.125  0.00  0.00    +0.000 C 
ATOM     24  C   UNL     1       7.071   5.370  16.881  0.00  0.00    +0.000 A 
ATOM     25  C   UNL     1       7.382   5.675  15.566  0.00  0.00    +0.000 A 
ATOM     26  C   UNL     1       6.727   4.973  14.552  0.00  0.00    +0.000 A 
ATOM     27  C   UNL     1       5.788   3.977  14.861  0.00  0.00    +0.000 A 
ATOM     28  C   UNL     1       5.494   3.663  16.192  0.00  0.00    +0.000 A 
ATOM     29  C   UNL     1       6.139   4.372  17.194  0.00  0.00    +0.000 A 
ENDBRANCH  19  21
ENDBRANCH   1  18
TORSDOF 3
ENDMDL
MODEL 4
REMARK VINA RESULT:      -8.4      3.922      9.843
REMARK  Name = 
REMARK  3 active torsions:
REMARK  status: ('A' for Active; 'I' for Inactive)
REMARK    1  A    between atoms: C_2  and  C_13
REMARK    2  A    between atoms: N_3  and  C_4
REMARK    3  A    between atoms: N_17  and  C_18
REMARK                            x       y       z     vdW  Elec       q    Type
REMARK                         _______ _______ _______ _____ _____    ______ ____
ROOT
ATOM      1  C   UNL     1       1.282   9.671  17.824  0.00  0.00    +0.000 C 
ATOM      2  C   UNL     1       2.073  10.967  17.913  0.00  0.00    +0.000 C 
ATOM      3  C   UNL     1       1.525  11.625  19.155  0.00  0.00    +0.000 C 
ATOM      4  O   UNL     1       2.084  12.550  19.723  0.00  0.00    +0.000 OA
ATOM      5  N   UNL     1       0.312  10.996  19.476  0.00  0.00    +0.000 N 
ATOM      6  C   UNL     1      -0.041  10.004  18.483  0.00  0.00    +0.000 C 
ENDROOT
BRANCH   5   7
ATOM      7  C   UNL     1      -0.512  11.288  20.593  0.00  0.00    +0.000 A 
ATOM      8  C   UNL     1      -0.304  10.656  21.826  0.00  0.00    +0.000 A 
ATOM      9  C   UNL     1      -1.126  10.927  22.924  0.00  0.00    +0.000 A 
ATOM     10  C   UNL     1      -2.164  11.844  22.805  0.00  0.00    +0.000 A 
ATOM     11  C   UNL     1      -2.376  12.494  21.589  0.00  0.00    +0.000 A 
ATOM     12  C   UNL     1      -1.572  12.200  20.485  0.00  0.00    +0.000 A 
ATOM     13  O   UNL     1      -3.358  13.435  21.406  0.00  0.00    +0.000 OA
ATOM     14  C   UNL     1      -3.860  13.914  22.661  0.00  0.00    +0.000 C 
ATOM     15  C   UNL     1      -4.132  12.759  23.610  0.00  0.00    +0.000 C 
ATOM     16  O   UNL     1      -2.923  12.061  23.923  0.00  0.00    +0.000 OA
ENDBRANCH   5   7
BRANCH   1  18
ATOM     17  O   UNL     1       1.815   8.299  19.719  0.00  0.00    +0.000 OA
ATOM     18  C   UNL     1       1.973   8.501  18.516  0.00  0.00    +0.000 C 
ATOM     19  N   UNL     1       2.781   7.713  17.731  0.00  0.00    +0.000 N 
ATOM     20  H   UNL     1       2.999   7.987  16.781  0.00  0.00    +0.000 HD
BRANCH  19  21
ATOM     21  C   UNL     1       3.599   6.667  18.299  0.00  0.00    +0.000 C 
ATOM     22  C   UNL     1       4.957   6.535  17.577  0.00  0.00    +0.000 C 
ATOM     23  C   UNL     1       5.384   5.070  17.733  0.00  0.00    +0.000 C 
ATOM     24  C   UNL     1       4.053   4.385  17.761  0.00  0.00    +0.000 A 
ATOM     25  C   UNL     1       3.783   3.041  17.564  0.00  0.00    +0.000 A 
ATOM     26  C   UNL     1       2.458   2.611  17.666  0.00  0.00    +0.000 A 
ATOM     27  C   UNL     1       1.433   3.518  17.974  0.00  0.00    +0.000 A 
ATOM     28  C   UNL     1       1.717   4.869  18.190  0.00  0.00    +0.000 A 
ATOM     29  C   UNL     1       3.032   5.293  18.074  0.00  0.00    +0.000 A 
ENDBRANCH  19  21
ENDBRANCH   1  18
TORSDOF 3
ENDMDL
MODEL 5
REMARK VINA RESULT:      -8.1      4.004      9.884
REMARK  Name = 
REMARK  3 active torsions:
REMARK  status: ('A' for Active; 'I' for Inactive)
REMARK    1  A    between atoms: C_2  and  C_13
REMARK    2  A    between atoms: N_3  and  C_4
REMARK    3  A    between atoms: N_17  and  C_18
REMARK                            x       y       z     vdW  Elec       q    Type
REMARK                         _______ _______ _______ _____ _____    ______ ____
ROOT
ATOM      1  C   UNL     1       1.149   9.282  18.294  0.00  0.00    +0.000 C 
ATOM      2  C   UNL     1       1.904  10.597  18.175  0.00  0.00    +0.000 C 
ATOM      3  C   UNL     1       1.313  11.439  19.279  0.00  0.00    +0.000 C 
ATOM      4  O   UNL     1       1.837  12.462  19.691  0.00  0.00    +0.000 OA
ATOM      5  N   UNL     1       0.111  10.838  19.682  0.00  0.00    +0.000 N 
ATOM      6  C   UNL     1      -0.196   9.684  18.866  0.00  0.00    +0.000 C 
ENDROOT
BRANCH   5   7
ATOM      7  C   UNL     1      -0.743  11.290  20.720  0.00  0.00    +0.000 A 
ATOM      8  C   UNL     1      -0.561  10.861  22.041  0.00  0.00    +0.000 A 
ATOM      9  C   UNL     1      -1.413  11.290  23.064  0.00  0.00    +0.000 A 
ATOM     10  C   UNL     1      -2.455  12.164  22.779  0.00  0.00    +0.000 A 
ATOM     11  C   UNL     1      -2.642  12.615  21.471  0.00  0.00    +0.000 A 
ATOM     12  C   UNL     1      -1.808  12.162  20.446  0.00  0.00    +0.000 A 
ATOM     13  O   UNL     1      -3.626  13.504  21.121  0.00  0.00    +0.000 OA
ATOM     14  C   UNL     1      -4.163  14.167  22.274  0.00  0.00    +0.000 C 
ATOM     15  C   UNL     1      -4.450  13.170  23.385  0.00  0.00    +0.000 C 
ATOM     16  O   UNL     1      -3.243  12.545  23.832  0.00  0.00    +0.000 OA
ENDBRANCH   5   7
BRANCH   1  18
ATOM     17  O   UNL     1       1.824   8.374  20.409  0.00  0.00    +0.000 OA
ATOM     18  C   UNL     1       1.854   8.266  19.185  0.00  0.00    +0.000 C 
ATOM     19  N   UNL     1       2.528   7.252  18.546  0.00  0.00    +0.000 N 
ATOM     20  H   UNL     1       2.651   7.270  17.541  0.00  0.00    +0.000 HD
BRANCH  19  21
ATOM     21  C   UNL     1       3.353   6.316  19.275  0.00  0.00    +0.000 C 
ATOM     22  C   UNL     1       4.511   5.770  18.412  0.00  0.00    +0.000 C 
ATOM     23  C   UNL     1       4.831   4.373  18.962  0.00  0.00    +0.000 C 
ATOM     24  C   UNL     1       3.481   3.937  19.439  0.00  0.00    +0.000 A 
ATOM     25  C   UNL     1       3.059   2.653  19.740  0.00  0.00    +0.000 A 
ATOM     26  C   UNL     1       1.753   2.478  20.204  0.00  0.00    +0.000 A 
ATOM     27  C   UNL     1       0.899   3.578  20.371  0.00  0.00    +0.000 A 
ATOM     28  C   UNL     1       1.340   4.873  20.082  0.00  0.00    +0.000 A 
ATOM     29  C   UNL     1       2.633   5.040  19.610  0.00  0.00    +0.000 A 
ENDBRANCH  19  21
ENDBRANCH   1  18
TORSDOF 3
ENDMDL
MODEL 6
REMARK VINA RESULT:      -8.0      1.482      1.639
REMARK  Name = 
REMARK  3 active torsions:
REMARK  status: ('A' for Active; 'I' for Inactive)
REMARK    1  A    between atoms: C_2  and  C_13
REMARK    2  A    between atoms: N_3  and  C_4
REMARK    3  A    between atoms: N_17  and  C_18
REMARK                            x       y       z     vdW  Elec       q    Type
REMARK                         _______ _______ _______ _____ _____    ______ ____
ROOT
ATOM      1  C   UNL     1       2.221   5.381  19.133  0.00  0.00    +0.000 C 
ATOM      2  C   UNL     1       3.142   4.608  20.064  0.00  0.00    +0.000 C 
ATOM      3  C   UNL     1       4.438   4.540  19.294  0.00  0.00    +0.000 C 
ATOM      4  O   UNL     1       5.505   4.242  19.807  0.00  0.00    +0.000 OA
ATOM      5  N   UNL     1       4.160   4.853  17.955  0.00  0.00    +0.000 N 
ATOM      6  C   UNL     1       2.742   5.052  17.748  0.00  0.00    +0.000 C 
ENDROOT
BRANCH   5   7
ATOM      7  C   UNL     1       5.106   4.937  16.902  0.00  0.00    +0.000 A 
ATOM      8  C   UNL     1       6.325   5.604  17.079  0.00  0.00    +0.000 A 
ATOM      9  C   UNL     1       7.252   5.705  16.037  0.00  0.00    +0.000 A 
ATOM     10  C   UNL     1       6.975   5.130  14.803  0.00  0.00    +0.000 A 
ATOM     11  C   UNL     1       5.772   4.448  14.612  0.00  0.00    +0.000 A 
ATOM     12  C   UNL     1       4.835   4.373  15.646  0.00  0.00    +0.000 A 
ATOM     13  O   UNL     1       5.444   3.826  13.434  0.00  0.00    +0.000 OA
ATOM     14  C   UNL     1       6.598   3.651  12.600  0.00  0.00    +0.000 C 
ATOM     15  C   UNL     1       7.420   4.928  12.540  0.00  0.00    +0.000 C 
ATOM     16  O   UNL     1       7.931   5.265  13.833  0.00  0.00    +0.000 OA
ENDBRANCH   5   7
BRANCH   1  18
ATOM     17  O   UNL     1       2.994   7.623  18.773  0.00  0.00    +0.000 OA
ATOM     18  C   UNL     1       2.232   6.883  19.392  0.00  0.00    +0.000 C 
ATOM     19  N   UNL     1       1.368   7.346  20.355  0.00  0.00    +0.000 N 
ATOM     20  H   UNL     1       0.857   6.698  20.943  0.00  0.00    +0.000 HD
BRANCH  19  21
ATOM     21  C   UNL     1       1.389   8.723  20.792  0.00  0.00    +0.000 C 
ATOM     22  C   UNL     1       0.853   8.885  22.230  0.00  0.00    +0.000 C 
ATOM     23  C   UNL     1       0.266  10.300  22.311  0.00  0.00    +0.000 C 
ATOM     24  C   UNL     1      -0.210  10.493  20.905  0.00  0.00    +0.000 A 
ATOM     25  C   UNL     1      -1.107  11.436  20.432  0.00  0.00    +0.000 A 
ATOM     26  C   UNL     1      -1.386  11.456  19.063  0.00  0.00    +0.000 A 
ATOM     27  C   UNL     1      -0.761  10.551  18.192  0.00  0.00    +0.000 A 
ATOM     28  C   UNL     1       0.158   9.615  18.676  0.00  0.00    +0.000 A 
ATOM     29  C   UNL     1       0.421   9.591  20.037  0.00  0.00    +0.000 A 
ENDBRANCH  19  21
ENDBRANCH   1  18
TORSDOF 3
ENDMDL
MODEL 7
REMARK VINA RESULT:      -7.8      3.714      6.252
REMARK  Name = 
REMARK  3 active torsions:
REMARK  status: ('A' for Active; 'I' for Inactive)
REMARK    1  A    between atoms: C_2  and  C_13
REMARK    2  A    between atoms: N_3  and  C_4
REMARK    3  A    between atoms: N_17  and  C_18
REMARK                            x       y       z     vdW  Elec       q    Type
REMARK                         _______ _______ _______ _____ _____    ______ ____
ROOT
ATOM      1  C   UNL     1       0.742  10.355  19.475  0.00  0.00    +0.000 C 
ATOM      2  C   UNL     1       1.645  10.449  18.254  0.00  0.00    +0.000 C 
ATOM      3  C   UNL     1       2.164   9.041  18.096  0.00  0.00    +0.000 C 
ATOM      4  O   UNL     1       2.701   8.638  17.076  0.00  0.00    +0.000 OA
ATOM      5  N   UNL     1       1.926   8.357  19.298  0.00  0.00    +0.000 N 
ATOM      6  C   UNL     1       1.351   9.234  20.294  0.00  0.00    +0.000 C 
ENDROOT
BRANCH   5   7
ATOM      7  C   UNL     1       2.230   6.997  19.560  0.00  0.00    +0.000 A 
ATOM      8  C   UNL     1       1.658   6.327  20.650  0.00  0.00    +0.000 A 
ATOM      9  C   UNL     1       1.970   4.992  20.922  0.00  0.00    +0.000 A 
ATOM     10  C   UNL     1       2.852   4.303  20.099  0.00  0.00    +0.000 A 
ATOM     11  C   UNL     1       3.419   4.949  18.999  0.00  0.00    +0.000 A 
ATOM     12  C   UNL     1       3.129   6.291  18.746  0.00  0.00    +0.000 A 
ATOM     13  O   UNL     1       4.271   4.324  18.123  0.00  0.00    +0.000 OA
ATOM     14  C   UNL     1       4.203   2.898  18.260  0.00  0.00    +0.000 C 
ATOM     15  C   UNL     1       4.245   2.493  19.724  0.00  0.00    +0.000 C 
ATOM     16  O   UNL     1       3.104   2.998  20.425  0.00  0.00    +0.000 OA
ENDBRANCH   5   7
BRANCH   1  18
ATOM     17  O   UNL     1      -1.412   9.371  19.859  0.00  0.00    +0.000 OA
ATOM     18  C   UNL     1      -0.712  10.063  19.122  0.00  0.00    +0.000 C 
ATOM     19  N   UNL     1      -1.177  10.595  17.943  0.00  0.00    +0.000 N 
ATOM     20  H   UNL     1      -0.540  11.040  17.293  0.00  0.00    +0.000 HD
BRANCH  19  21
ATOM     21  C   UNL     1      -2.488  10.269  17.431  0.00  0.00    +0.000 C 
ATOM     22  C   UNL     1      -2.579  10.463  15.902  0.00  0.00    +0.000 C 
ATOM     23  C   UNL     1      -4.047  10.793  15.600  0.00  0.00    +0.000 C 
ATOM     24  C   UNL     1      -4.442  11.513  16.852  0.00  0.00    +0.000 A 
ATOM     25  C   UNL     1      -5.542  12.330  17.052  0.00  0.00    +0.000 A 
ATOM     26  C   UNL     1      -5.736  12.879  18.321  0.00  0.00    +0.000 A 
ATOM     27  C   UNL     1      -4.843  12.597  19.367  0.00  0.00    +0.000 A 
ATOM     28  C   UNL     1      -3.746  11.756  19.161  0.00  0.00    +0.000 A 
ATOM     29  C   UNL     1      -3.552  11.224  17.895  0.00  0.00    +0.000 A 
ENDBRANCH  19  21
ENDBRANCH   1  18
TORSDOF 3
ENDMDL
MODEL 8
REMARK VINA RESULT:      -7.8      4.033      7.313
REMARK  Name = 
REMARK  3 active torsions:
REMARK  status: ('A' for Active; 'I' for Inactive)
REMARK    1  A    between atoms: C_2  and  C_13
REMARK    2  A    between atoms: N_3  and  C_4
REMARK    3  A    between atoms: N_17  and  C_18
REMARK                            x       y       z     vdW  Elec       q    Type
REMARK                         _______ _______ _______ _____ _____    ______ ____
ROOT
ATOM      1  C   UNL     1      -1.087  12.026  21.363  0.00  0.00    +0.000 C 
ATOM      2  C   UNL     1      -0.855  11.194  22.615  0.00  0.00    +0.000 C 
ATOM      3  C   UNL     1       0.160  10.170  22.168  0.00  0.00    +0.000 C 
ATOM      4  O   UNL     1       0.810   9.490  22.946  0.00  0.00    +0.000 OA
ATOM      5  N   UNL     1       0.174  10.162  20.765  0.00  0.00    +0.000 N 
ATOM      6  C   UNL     1      -0.825  11.058  20.227  0.00  0.00    +0.000 C 
ENDROOT
BRANCH   5   7
ATOM      7  C   UNL     1       1.013   9.368  19.942  0.00  0.00    +0.000 A 
ATOM      8  C   UNL     1       1.415   9.816  18.676  0.00  0.00    +0.000 A 
ATOM      9  C   UNL     1       2.226   9.027  17.855  0.00  0.00    +0.000 A 
ATOM     10  C   UNL     1       2.655   7.780  18.293  0.00  0.00    +0.000 A 
ATOM     11  C   UNL     1       2.277   7.324  19.557  0.00  0.00    +0.000 A 
ATOM     12  C   UNL     1       1.443   8.101  20.365  0.00  0.00    +0.000 A 
ATOM     13  O   UNL     1       2.690   6.120  20.071  0.00  0.00    +0.000 OA
ATOM     14  C   UNL     1       3.805   5.597  19.337  0.00  0.00    +0.000 C 
ATOM     15  C   UNL     1       3.564   5.700  17.840  0.00  0.00    +0.000 C 
ATOM     16  O   UNL     1       3.450   7.068  17.436  0.00  0.00    +0.000 OA
ENDBRANCH   5   7
BRANCH   1  18
ATOM     17  O   UNL     1       0.568  13.542  22.211  0.00  0.00    +0.000 OA
ATOM     18  C   UNL     1      -0.177  13.247  21.279  0.00  0.00    +0.000 C 
ATOM     19  N   UNL     1      -0.255  13.992  20.127  0.00  0.00    +0.000 N 
ATOM     20  H   UNL     1      -0.976  13.805  19.440  0.00  0.00    +0.000 HD
BRANCH  19  21
ATOM     21  C   UNL     1       0.447  15.248  19.990  0.00  0.00    +0.000 C 
ATOM     22  C   UNL     1      -0.344  16.266  19.141  0.00  0.00    +0.000 C 
ATOM     23  C   UNL     1       0.700  17.181  18.488  0.00  0.00    +0.000 C 
ATOM     24  C   UNL     1       1.850  16.235  18.328  0.00  0.00    +0.000 A 
ATOM     25  C   UNL     1       2.964  16.379  17.517  0.00  0.00    +0.000 A 
ATOM     26  C   UNL     1       3.938  15.379  17.549  0.00  0.00    +0.000 A 
ATOM     27  C   UNL     1       3.794  14.266  18.392  0.00  0.00    +0.000 A 
ATOM     28  C   UNL     1       2.676  14.139  19.221  0.00  0.00    +0.000 A 
ATOM     29  C   UNL     1       1.705  15.128  19.176  0.00  0.00    +0.000 A 
ENDBRANCH  19  21
ENDBRANCH   1  18
TORSDOF 3
ENDMDL
MODEL 9
REMARK VINA RESULT:      -7.7      3.931      8.954
REMARK  Name = 
REMARK  3 active torsions:
REMARK  status: ('A' for Active; 'I' for Inactive)
REMARK    1  A    between atoms: C_2  and  C_13
REMARK    2  A    between atoms: N_3  and  C_4
REMARK    3  A    between atoms: N_17  and  C_18
REMARK                            x       y       z     vdW  Elec       q    Type
REMARK                         _______ _______ _______ _____ _____    ______ ____
ROOT
ATOM      1  C   UNL     1       2.063   9.124  19.865  0.00  0.00    +0.000 C 
ATOM      2  C   UNL     1       1.433   8.563  21.131  0.00  0.00    +0.000 C 
ATOM      3  C   UNL     1      -0.012   8.983  21.015  0.00  0.00    +0.000 C 
ATOM      4  O   UNL     1      -0.905   8.496  21.691  0.00  0.00    +0.000 OA
ATOM      5  N   UNL     1      -0.091   9.992  20.042  0.00  0.00    +0.000 N 
ATOM      6  C   UNL     1       1.222  10.343  19.547  0.00  0.00    +0.000 C 
ENDROOT
BRANCH   5   7
ATOM      7  C   UNL     1      -1.274  10.637  19.601  0.00  0.00    +0.000 A 
ATOM      8  C   UNL     1      -1.825  11.705  20.322  0.00  0.00    +0.000 A 
ATOM      9  C   UNL     1      -3.001  12.331  19.900  0.00  0.00    +0.000 A 
ATOM     10  C   UNL     1      -3.639  11.903  18.743  0.00  0.00    +0.000 A 
ATOM     11  C   UNL     1      -3.097  10.851  18.003  0.00  0.00    +0.000 A 
ATOM     12  C   UNL     1      -1.937  10.207  18.442  0.00  0.00    +0.000 A 
ATOM     13  O   UNL     1      -3.652  10.396  16.833  0.00  0.00    +0.000 OA
ATOM     14  C   UNL     1      -4.590  11.341  16.300  0.00  0.00    +0.000 C 
ATOM     15  C   UNL     1      -5.517  11.854  17.390  0.00  0.00    +0.000 C 
ATOM     16  O   UNL     1      -4.783  12.567  18.389  0.00  0.00    +0.000 OA
ENDBRANCH   5   7
BRANCH   1  18
ATOM     17  O   UNL     1       1.656   8.456  17.597  0.00  0.00    +0.000 OA
ATOM     18  C   UNL     1       2.068   8.130  18.709  0.00  0.00    +0.000 C 
ATOM     19  N   UNL     1       2.533   6.867  18.987  0.00  0.00    +0.000 N 
ATOM     20  H   UNL     1       2.732   6.590  19.940  0.00  0.00    +0.000 HD
BRANCH  19  21
ATOM     21  C   UNL     1       2.451   5.800  18.015  0.00  0.00    +0.000 C 
ATOM     22  C   UNL     1       2.195   4.430  18.678  0.00  0.00    +0.000 C 
ATOM     23  C   UNL     1       2.818   3.381  17.747  0.00  0.00    +0.000 C 
ATOM     24  C   UNL     1       3.961   4.156  17.169  0.00  0.00    +0.000 A 
ATOM     25  C   UNL     1       5.076   3.663  16.510  0.00  0.00    +0.000 A 
ATOM     26  C   UNL     1       6.012   4.576  16.021  0.00  0.00    +0.000 A 
ATOM     27  C   UNL     1       5.819   5.957  16.183  0.00  0.00    +0.000 A 
ATOM     28  C   UNL     1       4.681   6.445  16.832  0.00  0.00    +0.000 A 
ATOM     29  C   UNL     1       3.761   5.534  17.327  0.00  0.00    +0.000 A 
ENDBRANCH  19  21
ENDBRANCH   1  18
TORSDOF 3
ENDMDL
