MODEL 1
REMARK VINA RESULT:      -8.4      0.000      0.000
REMARK  Name = 
REMARK  5 active torsions:
REMARK  status: ('A' for Active; 'I' for Inactive)
REMARK    1  A    between atoms: C_1  and  C_2
REMARK    2  A    between atoms: C_11  and  N_12
REMARK    3  A    between atoms: C_13  and  C_15
REMARK    4  A    between atoms: C_17  and  C_18
REMARK    5  A    between atoms: N_19  and  C_20
REMARK                            x       y       z     vdW  Elec       q    Type
REMARK                         _______ _______ _______ _____ _____    ______ ____
ROOT
ATOM      1  N   UNL     1       2.720   6.956  19.061  0.00  0.00    +0.000 N 
ATOM      2  C   UNL     1       2.166   8.162  18.620  0.00  0.00    +0.000 C 
ATOM      3  O   UNL     1       2.235   8.551  17.454  0.00  0.00    +0.000 OA
ATOM      4  H   UNL     1       2.973   6.946  20.052  0.00  0.00    +0.000 HD
ENDROOT
BRANCH   1  15
ATOM      5  C   UNL     1       1.117   3.096  21.064  0.00  0.00    +0.000 C 
ATOM      6  C   UNL     1       1.650   4.202  20.180  0.00  0.00    +0.000 C 
ATOM      7  O   UNL     1       1.258   5.352  20.367  0.00  0.00    +0.000 OA
ATOM      8  N   UNL     1       2.577   3.821  19.229  0.00  0.00    +0.000 N 
ATOM      9  C   UNL     1       2.881   2.414  18.909  0.00  0.00    +0.000 C 
ATOM     10  C   UNL     1       3.994   2.394  17.876  0.00  0.00    +0.000 C 
ATOM     11  C   UNL     1       4.062   3.833  17.481  0.00  0.00    +0.000 A 
ATOM     12  C   UNL     1       4.859   4.338  16.465  0.00  0.00    +0.000 A 
ATOM     13  C   UNL     1       4.907   5.716  16.298  0.00  0.00    +0.000 A 
ATOM     14  C   UNL     1       4.202   6.558  17.173  0.00  0.00    +0.000 A 
ATOM     15  C   UNL     1       3.392   6.049  18.208  0.00  0.00    +0.000 A 
ATOM     16  C   UNL     1       3.292   4.658  18.326  0.00  0.00    +0.000 A 
ENDBRANCH   1  15
BRANCH   2  17
ATOM     17  C   UNL     1       1.520   8.973  19.692  0.00  0.00    +0.000 A 
ATOM     18  N   UNL     1       1.430   8.560  21.002  0.00  0.00    +0.000 NA
ATOM     19  C   UNL     1       0.725   9.497  21.600  0.00  0.00    +0.000 A 
ATOM     20  C   UNL     1       0.215   9.384  22.987  0.00  0.00    +0.000 C 
ATOM     21  N   UNL     1       0.438  10.523  20.694  0.00  0.00    +0.000 N 
ATOM     22  N   UNL     1       0.917  10.156  19.478  0.00  0.00    +0.000 NA
BRANCH  21  23
ATOM     23  C   UNL     1      -0.185  11.801  20.908  0.00  0.00    +0.000 A 
ATOM     24  C   UNL     1      -1.586  11.877  21.059  0.00  0.00    +0.000 A 
ATOM     25  C   UNL     1      -2.239  13.093  21.312  0.00  0.00    +0.000 A 
ATOM     26  C   UNL     1      -1.509  14.261  21.438  0.00  0.00    +0.000 A 
ATOM     27  C   UNL     1      -0.123  14.208  21.292  0.00  0.00    +0.000 A 
ATOM     28  C   UNL     1       0.542  12.999  21.024  0.00  0.00    +0.000 A 
ATOM     29 CL   UNL     1       2.242  13.162  20.736  0.00  0.00    +0.000 Cl
ENDBRANCH  21  23
ENDBRANCH   2  17
TORSDOF 3
ENDMDL
MODEL 2
REMARK VINA RESULT:      -8.4      1.135      1.334
REMARK  Name = 
REMARK  5 active torsions:
REMARK  status: ('A' for Active; 'I' for Inactive)
REMARK    1  A    between atoms: C_1  and  C_2
REMARK    2  A    between atoms: C_11  and  N_12
REMARK    3  A    between atoms: C_13  and  C_15
REMARK    4  A    between atoms: C_17  and  C_18
REMARK    5  A    between atoms: N_19  and  C_20
REMARK                            x       y       z     vdW  Elec       q    Type
REMARK                         _______ _______ _______ _____ _____    ______ ____
ROOT
ATOM      1  N   UNL     1       2.575   6.840  19.172  0.00  0.00    +0.000 N 
ATOM      2  C   UNL     1       2.095   8.076  18.728  0.00  0.00    +0.000 C 
ATOM      3  O   UNL     1       2.286   8.506  17.590  0.00  0.00    +0.000 OA
ATOM      4  H   UNL     1       2.730   6.787  20.182  0.00  0.00    +0.000 HD
ENDROOT
BRANCH   1  15
ATOM      5  C   UNL     1       1.161   2.957  21.269  0.00  0.00    +0.000 C 
ATOM      6  C   UNL     1       1.643   4.065  20.359  0.00  0.00    +0.000 C 
ATOM      7  O   UNL     1       1.187   5.197  20.509  0.00  0.00    +0.000 OA
ATOM      8  N   UNL     1       2.601   3.708  19.429  0.00  0.00    +0.000 N 
ATOM      9  C   UNL     1       2.985   2.311  19.153  0.00  0.00    +0.000 C 
ATOM     10  C   UNL     1       4.110   2.323  18.132  0.00  0.00    +0.000 C 
ATOM     11  C   UNL     1       4.103   3.752  17.697  0.00  0.00    +0.000 A 
ATOM     12  C   UNL     1       4.884   4.271  16.675  0.00  0.00    +0.000 A 
ATOM     13  C   UNL     1       4.859   5.644  16.469  0.00  0.00    +0.000 A 
ATOM     14  C   UNL     1       4.099   6.471  17.312  0.00  0.00    +0.000 A 
ATOM     15  C   UNL     1       3.306   5.948  18.352  0.00  0.00    +0.000 A 
ATOM     16  C   UNL     1       3.279   4.557  18.509  0.00  0.00    +0.000 A 
ENDBRANCH   1  15
BRANCH   2  17
ATOM     17  C   UNL     1       1.367   8.864  19.764  0.00  0.00    +0.000 A 
ATOM     18  N   UNL     1       1.281   8.481  21.083  0.00  0.00    +0.000 NA
ATOM     19  C   UNL     1       0.494   9.377  21.640  0.00  0.00    +0.000 A 
ATOM     20  C   UNL     1      -0.035   9.262  23.020  0.00  0.00    +0.000 C 
ATOM     21  N   UNL     1       0.150  10.353  20.700  0.00  0.00    +0.000 N 
ATOM     22  N   UNL     1       0.680   9.992  19.505  0.00  0.00    +0.000 NA
BRANCH  21  23
ATOM     23  C   UNL     1      -0.573  11.585  20.866  0.00  0.00    +0.000 A 
ATOM     24  C   UNL     1      -0.219  12.466  21.909  0.00  0.00    +0.000 A 
ATOM     25  C   UNL     1      -0.865  13.699  22.089  0.00  0.00    +0.000 A 
ATOM     26  C   UNL     1      -1.868  14.092  21.221  0.00  0.00    +0.000 A 
ATOM     27  C   UNL     1      -2.233  13.236  20.183  0.00  0.00    +0.000 A 
ATOM     28  C   UNL     1      -1.605  11.991  20.002  0.00  0.00    +0.000 A 
ATOM     29 CL   UNL     1      -2.295  11.014  18.748  0.00  0.00    +0.000 Cl
ENDBRANCH  21  23
ENDBRANCH   2  17
TORSDOF 3
ENDMDL
MODEL 3
REMARK VINA RESULT:      -8.3      2.482      8.276
REMARK  Name = 
REMARK  5 active torsions:
REMARK  status: ('A' for Active; 'I' for Inactive)
REMARK    1  A    between atoms: C_1  and  C_2
REMARK    2  A    between atoms: C_11  and  N_12
REMARK    3  A    between atoms: C_13  and  C_15
REMARK    4  A    between atoms: C_17  and  C_18
REMARK    5  A    between atoms: N_19  and  C_20
REMARK                            x       y       z     vdW  Elec       q    Type
REMARK                         _______ _______ _______ _____ _____    ______ ____
ROOT
ATOM      1  N   UNL     1       0.668   9.124  19.127  0.00  0.00    +0.000 N 
ATOM      2  C   UNL     1       1.806   9.083  18.315  0.00  0.00    +0.000 C 
ATOM      3  O   UNL     1       2.157  10.018  17.595  0.00  0.00    +0.000 OA
ATOM      4  H   UNL     1       0.258   8.207  19.323  0.00  0.00    +0.000 HD
ENDROOT
BRANCH   1  15
ATOM      5  C   UNL     1       0.551   9.275  23.757  0.00  0.00    +0.000 C 
ATOM      6  C   UNL     1       0.552   9.500  22.261  0.00  0.00    +0.000 C 
ATOM      7  O   UNL     1       1.304   8.825  21.560  0.00  0.00    +0.000 OA
ATOM      8  N   UNL     1      -0.335  10.450  21.793  0.00  0.00    +0.000 N 
ATOM      9  C   UNL     1      -1.081  11.368  22.674  0.00  0.00    +0.000 C 
ATOM     10  C   UNL     1      -2.003  12.209  21.807  0.00  0.00    +0.000 C 
ATOM     11  C   UNL     1      -1.507  11.880  20.437  0.00  0.00    +0.000 A 
ATOM     12  C   UNL     1      -1.950  12.484  19.270  0.00  0.00    +0.000 A 
ATOM     13  C   UNL     1      -1.486  11.984  18.061  0.00  0.00    +0.000 A 
ATOM     14  C   UNL     1      -0.632  10.869  18.039  0.00  0.00    +0.000 A 
ATOM     15  C   UNL     1      -0.181  10.252  19.223  0.00  0.00    +0.000 A 
ATOM     16  C   UNL     1      -0.596  10.805  20.440  0.00  0.00    +0.000 A 
ENDBRANCH   1  15
BRANCH   2  17
ATOM     17  C   UNL     1       2.545   7.788  18.352  0.00  0.00    +0.000 A 
ATOM     18  N   UNL     1       2.246   6.772  19.232  0.00  0.00    +0.000 NA
ATOM     19  C   UNL     1       3.166   5.857  19.009  0.00  0.00    +0.000 A 
ATOM     20  C   UNL     1       3.354   4.657  19.859  0.00  0.00    +0.000 C 
ATOM     21  N   UNL     1       3.988   6.260  17.953  0.00  0.00    +0.000 N 
ATOM     22  N   UNL     1       3.605   7.505  17.573  0.00  0.00    +0.000 NA
BRANCH  21  23
ATOM     23  C   UNL     1       5.035   5.549  17.270  0.00  0.00    +0.000 A 
ATOM     24  C   UNL     1       4.832   5.111  15.945  0.00  0.00    +0.000 A 
ATOM     25  C   UNL     1       5.835   4.450  15.221  0.00  0.00    +0.000 A 
ATOM     26  C   UNL     1       7.075   4.226  15.794  0.00  0.00    +0.000 A 
ATOM     27  C   UNL     1       7.297   4.651  17.104  0.00  0.00    +0.000 A 
ATOM     28  C   UNL     1       6.294   5.300  17.846  0.00  0.00    +0.000 A 
ATOM     29 CL   UNL     1       6.715   5.621  19.496  0.00  0.00    +0.000 Cl
ENDBRANCH  21  23
ENDBRANCH   2  17
TORSDOF 3
ENDMDL
MODEL 4
REMARK VINA RESULT:      -8.0      2.685      8.389
REMARK  Name = 
REMARK  5 active torsions:
REMARK  status: ('A' for Active; 'I' for Inactive)
REMARK    1  A    between atoms: C_1  and  C_2
REMARK    2  A    between atoms: C_11  and  N_12
REMARK    3  A    between atoms: C_13  and  C_15
REMARK    4  A    between atoms: C_17  and  C_18
REMARK    5  A    between atoms: N_19  and  C_20
REMARK                            x       y       z     vdW  Elec       q    Type
REMARK                         _______ _______ _______ _____ _____    ______ ____
ROOT
ATOM      1  N   UNL     1       0.574   9.337  19.271  0.00  0.00    +0.000 N 
ATOM      2  C   UNL     1       1.661   9.286  18.392  0.00  0.00    +0.000 C 
ATOM      3  O   UNL     1       1.954  10.205  17.627  0.00  0.00    +0.000 OA
ATOM      4  H   UNL     1       0.189   8.421  19.517  0.00  0.00    +0.000 HD
ENDROOT
BRANCH   1  15
ATOM      5  C   UNL     1       0.365   9.325  23.901  0.00  0.00    +0.000 C 
ATOM      6  C   UNL     1       0.394   9.602  22.414  0.00  0.00    +0.000 C 
ATOM      7  O   UNL     1       1.164   8.955  21.705  0.00  0.00    +0.000 OA
ATOM      8  N   UNL     1      -0.487  10.565  21.961  0.00  0.00    +0.000 N 
ATOM      9  C   UNL     1      -1.255  11.448  22.859  0.00  0.00    +0.000 C 
ATOM     10  C   UNL     1      -2.163  12.316  22.004  0.00  0.00    +0.000 C 
ATOM     11  C   UNL     1      -1.639  12.037  20.633  0.00  0.00    +0.000 A 
ATOM     12  C   UNL     1      -2.062  12.679  19.479  0.00  0.00    +0.000 A 
ATOM     13  C   UNL     1      -1.571  12.224  18.263  0.00  0.00    +0.000 A 
ATOM     14  C   UNL     1      -0.712  11.114  18.219  0.00  0.00    +0.000 A 
ATOM     15  C   UNL     1      -0.281  10.457  19.390  0.00  0.00    +0.000 A 
ATOM     16  C   UNL     1      -0.723  10.966  20.617  0.00  0.00    +0.000 A 
ENDBRANCH   1  15
BRANCH   2  17
ATOM     17  C   UNL     1       2.417   8.001  18.417  0.00  0.00    +0.000 A 
ATOM     18  N   UNL     1       2.255   7.048  19.397  0.00  0.00    +0.000 NA
ATOM     19  C   UNL     1       3.150   6.124  19.116  0.00  0.00    +0.000 A 
ATOM     20  C   UNL     1       3.469   4.988  20.013  0.00  0.00    +0.000 C 
ATOM     21  N   UNL     1       3.816   6.457  17.932  0.00  0.00    +0.000 N 
ATOM     22  N   UNL     1       3.366   7.670  17.523  0.00  0.00    +0.000 NA
BRANCH  21  23
ATOM     23  C   UNL     1       4.772   5.706  17.164  0.00  0.00    +0.000 A 
ATOM     24  C   UNL     1       6.033   6.268  16.877  0.00  0.00    +0.000 A 
ATOM     25  C   UNL     1       7.015   5.561  16.168  0.00  0.00    +0.000 A 
ATOM     26  C   UNL     1       6.771   4.267  15.743  0.00  0.00    +0.000 A 
ATOM     27  C   UNL     1       5.531   3.692  16.017  0.00  0.00    +0.000 A 
ATOM     28  C   UNL     1       4.532   4.395  16.713  0.00  0.00    +0.000 A 
ATOM     29 CL   UNL     1       3.016   3.565  16.828  0.00  0.00    +0.000 Cl
ENDBRANCH  21  23
ENDBRANCH   2  17
TORSDOF 3
ENDMDL
MODEL 5
REMARK VINA RESULT:      -7.9      2.227      8.146
REMARK  Name = 
REMARK  5 active torsions:
REMARK  status: ('A' for Active; 'I' for Inactive)
REMARK    1  A    between atoms: C_1  and  C_2
REMARK    2  A    between atoms: C_11  and  N_12
REMARK    3  A    between atoms: C_13  and  C_15
REMARK    4  A    between atoms: C_17  and  C_18
REMARK    5  A    between atoms: N_19  and  C_20
REMARK                            x       y       z     vdW  Elec       q    Type
REMARK                         _______ _______ _______ _____ _____    ______ ____
ROOT
ATOM      1  N   UNL     1       0.569   9.294  19.033  0.00  0.00    +0.000 N 
ATOM      2  C   UNL     1       1.668   9.291  18.168  0.00  0.00    +0.000 C 
ATOM      3  O   UNL     1       1.985  10.258  17.475  0.00  0.00    +0.000 OA
ATOM      4  H   UNL     1       0.167   8.369  19.206  0.00  0.00    +0.000 HD
ENDROOT
BRANCH   1  15
ATOM      5  C   UNL     1       0.625   9.199  23.666  0.00  0.00    +0.000 C 
ATOM      6  C   UNL     1       0.570   9.503  22.185  0.00  0.00    +0.000 C 
ATOM      7  O   UNL     1       1.294   8.866  21.422  0.00  0.00    +0.000 OA
ATOM      8  N   UNL     1      -0.331  10.477  21.801  0.00  0.00    +0.000 N 
ATOM      9  C   UNL     1      -1.041  11.347  22.757  0.00  0.00    +0.000 C 
ATOM     10  C   UNL     1      -1.992  12.234  21.971  0.00  0.00    +0.000 C 
ATOM     11  C   UNL     1      -1.549  11.978  20.568  0.00  0.00    +0.000 A 
ATOM     12  C   UNL     1      -2.034  12.643  19.451  0.00  0.00    +0.000 A 
ATOM     13  C   UNL     1      -1.616  12.207  18.201  0.00  0.00    +0.000 A 
ATOM     14  C   UNL     1      -0.767  11.095  18.088  0.00  0.00    +0.000 A 
ATOM     15  C   UNL     1      -0.273  10.415  19.220  0.00  0.00    +0.000 A 
ATOM     16  C   UNL     1      -0.641  10.904  20.480  0.00  0.00    +0.000 A 
ENDBRANCH   1  15
BRANCH   2  17
ATOM     17  C   UNL     1       2.405   7.996  18.110  0.00  0.00    +0.000 A 
ATOM     18  N   UNL     1       3.730   7.897  17.752  0.00  0.00    +0.000 NA
ATOM     19  C   UNL     1       3.976   6.603  17.736  0.00  0.00    +0.000 A 
ATOM     20  C   UNL     1       5.234   6.012  17.221  0.00  0.00    +0.000 C 
ATOM     21  N   UNL     1       2.840   5.902  18.151  0.00  0.00    +0.000 N 
ATOM     22  N   UNL     1       1.841   6.798  18.347  0.00  0.00    +0.000 NA
BRANCH  21  23
ATOM     23  C   UNL     1       2.663   4.500  18.417  0.00  0.00    +0.000 A 
ATOM     24  C   UNL     1       2.691   3.579  17.349  0.00  0.00    +0.000 A 
ATOM     25  C   UNL     1       2.565   2.197  17.559  0.00  0.00    +0.000 A 
ATOM     26  C   UNL     1       2.426   1.698  18.842  0.00  0.00    +0.000 A 
ATOM     27  C   UNL     1       2.395   2.592  19.912  0.00  0.00    +0.000 A 
ATOM     28  C   UNL     1       2.505   3.979  19.714  0.00  0.00    +0.000 A 
ATOM     29 CL   UNL     1       2.302   4.929  21.149  0.00  0.00    +0.000 Cl
ENDBRANCH  21  23
ENDBRANCH   2  17
TORSDOF 3
ENDMDL
MODEL 6
REMARK VINA RESULT:      -7.9      2.618      8.388
REMARK  Name = 
REMARK  5 active torsions:
REMARK  status: ('A' for Active; 'I' for Inactive)
REMARK    1  A    between atoms: C_1  and  C_2
REMARK    2  A    between atoms: C_11  and  N_12
REMARK    3  A    between atoms: C_13  and  C_15
REMARK    4  A    between atoms: C_17  and  C_18
REMARK    5  A    between atoms: N_19  and  C_20
REMARK                            x       y       z     vdW  Elec       q    Type
REMARK                         _______ _______ _______ _____ _____    ______ ____
ROOT
ATOM      1  N   UNL     1       1.663  10.279  19.415  0.00  0.00    +0.000 N 
ATOM      2  C   UNL     1       1.346   9.336  18.432  0.00  0.00    +0.000 C 
ATOM      3  O   UNL     1       0.446   9.497  17.608  0.00  0.00    +0.000 OA
ATOM      4  H   UNL     1       2.092   9.883  20.256  0.00  0.00    +0.000 HD
ENDROOT
BRANCH   1  15
ATOM      5  C   UNL     1      -0.262   9.396  23.537  0.00  0.00    +0.000 C 
ATOM      6  C   UNL     1       0.362   9.948  22.275  0.00  0.00    +0.000 C 
ATOM      7  O   UNL     1       1.236   9.293  21.709  0.00  0.00    +0.000 OA
ATOM      8  N   UNL     1      -0.134  11.162  21.837  0.00  0.00    +0.000 N 
ATOM      9  C   UNL     1      -1.042  12.004  22.638  0.00  0.00    +0.000 C 
ATOM     10  C   UNL     1      -1.425  13.213  21.802  0.00  0.00    +0.000 C 
ATOM     11  C   UNL     1      -0.474  13.097  20.656  0.00  0.00    +0.000 A 
ATOM     12  C   UNL     1      -0.334  14.037  19.645  0.00  0.00    +0.000 A 
ATOM     13  C   UNL     1       0.502  13.730  18.581  0.00  0.00    +0.000 A 
ATOM     14  C   UNL     1       1.141  12.481  18.522  0.00  0.00    +0.000 A 
ATOM     15  C   UNL     1       1.001  11.522  19.546  0.00  0.00    +0.000 A 
ATOM     16  C   UNL     1       0.212  11.866  20.650  0.00  0.00    +0.000 A 
ENDBRANCH   1  15
BRANCH   2  17
ATOM     17  C   UNL     1       2.157   8.086  18.490  0.00  0.00    +0.000 A 
ATOM     18  N   UNL     1       2.020   7.142  19.481  0.00  0.00    +0.000 NA
ATOM     19  C   UNL     1       2.959   6.254  19.229  0.00  0.00    +0.000 A 
ATOM     20  C   UNL     1       3.312   5.146  20.149  0.00  0.00    +0.000 C 
ATOM     21  N   UNL     1       3.631   6.599  18.053  0.00  0.00    +0.000 N 
ATOM     22  N   UNL     1       3.135   7.785  17.617  0.00  0.00    +0.000 NA
BRANCH  21  23
ATOM     23  C   UNL     1       4.633   5.880  17.313  0.00  0.00    +0.000 A 
ATOM     24  C   UNL     1       5.885   6.480  17.069  0.00  0.00    +0.000 A 
ATOM     25  C   UNL     1       6.911   5.806  16.389  0.00  0.00    +0.000 A 
ATOM     26  C   UNL     1       6.719   4.507  15.952  0.00  0.00    +0.000 A 
ATOM     27  C   UNL     1       5.487   3.895  16.182  0.00  0.00    +0.000 A 
ATOM     28  C   UNL     1       4.447   4.565  16.848  0.00  0.00    +0.000 A 
ATOM     29 CL   UNL     1       2.952   3.690  16.911  0.00  0.00    +0.000 Cl
ENDBRANCH  21  23
ENDBRANCH   2  17
TORSDOF 3
ENDMDL
MODEL 7
REMARK VINA RESULT:      -7.9      2.521      8.928
REMARK  Name = 
REMARK  5 active torsions:
REMARK  status: ('A' for Active; 'I' for Inactive)
REMARK    1  A    between atoms: C_1  and  C_2
REMARK    2  A    between atoms: C_11  and  N_12
REMARK    3  A    between atoms: C_13  and  C_15
REMARK    4  A    between atoms: C_17  and  C_18
REMARK    5  A    between atoms: N_19  and  C_20
REMARK                            x       y       z     vdW  Elec       q    Type
REMARK                         _______ _______ _______ _____ _____    ______ ____
ROOT
ATOM      1  N   UNL     1       0.213  10.409  21.096  0.00  0.00    +0.000 N 
ATOM      2  C   UNL     1       1.006   9.434  21.710  0.00  0.00    +0.000 C 
ATOM      3  O   UNL     1       1.316   9.467  22.900  0.00  0.00    +0.000 OA
ATOM      4  H   UNL     1       0.377  10.514  20.091  0.00  0.00    +0.000 HD
ENDROOT
BRANCH   1  15
ATOM      5  C   UNL     1       2.722  13.645  18.926  0.00  0.00    +0.000 C 
ATOM      6  C   UNL     1       1.713  12.789  19.659  0.00  0.00    +0.000 C 
ATOM      7  O   UNL     1       1.604  11.604  19.349  0.00  0.00    +0.000 OA
ATOM      8  N   UNL     1       0.999  13.420  20.659  0.00  0.00    +0.000 N 
ATOM      9  C   UNL     1       1.020  14.879  20.874  0.00  0.00    +0.000 C 
ATOM     10  C   UNL     1       0.177  15.187  22.100  0.00  0.00    +0.000 C 
ATOM     11  C   UNL     1      -0.491  13.873  22.342  0.00  0.00    +0.000 A 
ATOM     12  C   UNL     1      -1.468  13.647  23.299  0.00  0.00    +0.000 A 
ATOM     13  C   UNL     1      -1.906  12.343  23.489  0.00  0.00    +0.000 A 
ATOM     14  C   UNL     1      -1.328  11.292  22.759  0.00  0.00    +0.000 A 
ATOM     15  C   UNL     1      -0.334  11.517  21.786  0.00  0.00    +0.000 A 
ATOM     16  C   UNL     1       0.052  12.842  21.549  0.00  0.00    +0.000 A 
ENDBRANCH   1  15
BRANCH   2  17
ATOM     17  C   UNL     1       1.493   8.365  20.791  0.00  0.00    +0.000 A 
ATOM     18  N   UNL     1       1.979   8.618  19.528  0.00  0.00    +0.000 NA
ATOM     19  C   UNL     1       2.215   7.428  19.017  0.00  0.00    +0.000 A 
ATOM     20  C   UNL     1       2.576   7.201  17.597  0.00  0.00    +0.000 C 
ATOM     21  N   UNL     1       1.949   6.443  19.972  0.00  0.00    +0.000 N 
ATOM     22  N   UNL     1       1.454   7.052  21.079  0.00  0.00    +0.000 NA
BRANCH  21  23
ATOM     23  C   UNL     1       2.175   5.023  19.926  0.00  0.00    +0.000 A 
ATOM     24  C   UNL     1       1.095   4.138  20.123  0.00  0.00    +0.000 A 
ATOM     25  C   UNL     1       1.255   2.746  20.048  0.00  0.00    +0.000 A 
ATOM     26  C   UNL     1       2.493   2.203  19.754  0.00  0.00    +0.000 A 
ATOM     27  C   UNL     1       3.574   3.060  19.555  0.00  0.00    +0.000 A 
ATOM     28  C   UNL     1       3.431   4.456  19.644  0.00  0.00    +0.000 A 
ATOM     29 CL   UNL     1       4.914   5.341  19.507  0.00  0.00    +0.000 Cl
ENDBRANCH  21  23
ENDBRANCH   2  17
TORSDOF 3
ENDMDL
MODEL 8
REMARK VINA RESULT:      -7.9      7.051     10.349
REMARK  Name = 
REMARK  5 active torsions:
REMARK  status: ('A' for Active; 'I' for Inactive)
REMARK    1  A    between atoms: C_1  and  C_2
REMARK    2  A    between atoms: C_11  and  N_12
REMARK    3  A    between atoms: C_13  and  C_15
REMARK    4  A    between atoms: C_17  and  C_18
REMARK    5  A    between atoms: N_19  and  C_20
REMARK                            x       y       z     vdW  Elec       q    Type
REMARK                         _______ _______ _______ _____ _____    ______ ____
ROOT
ATOM      1  N   UNL     1       9.874  10.570  18.538  0.00  0.00    +0.000 N 
ATOM      2  C   UNL     1       8.667  10.294  17.887  0.00  0.00    +0.000 C 
ATOM      3  O   UNL     1       7.999  11.153  17.311  0.00  0.00    +0.000 OA
ATOM      4  H   UNL     1      10.097   9.924  19.300  0.00  0.00    +0.000 HD
ENDROOT
BRANCH   1  15
ATOM      5  C   UNL     1       8.309  11.704  22.750  0.00  0.00    +0.000 C 
ATOM      6  C   UNL     1       9.032  11.501  21.437  0.00  0.00    +0.000 C 
ATOM      7  O   UNL     1       9.005  10.390  20.911  0.00  0.00    +0.000 OA
ATOM      8  N   UNL     1       9.655  12.617  20.912  0.00  0.00    +0.000 N 
ATOM      9  C   UNL     1       9.827  13.877  21.658  0.00  0.00    +0.000 C 
ATOM     10  C   UNL     1      10.486  14.887  20.734  0.00  0.00    +0.000 C 
ATOM     11  C   UNL     1      10.889  14.022  19.585  0.00  0.00    +0.000 A 
ATOM     12  C   UNL     1      11.641  14.448  18.500  0.00  0.00    +0.000 A 
ATOM     13  C   UNL     1      11.829  13.561  17.449  0.00  0.00    +0.000 A 
ATOM     14  C   UNL     1      11.228  12.292  17.480  0.00  0.00    +0.000 A 
ATOM     15  C   UNL     1      10.461  11.856  18.580  0.00  0.00    +0.000 A 
ATOM     16  C   UNL     1      10.334  12.729  19.666  0.00  0.00    +0.000 A 
ENDBRANCH   1  15
BRANCH   2  17
ATOM     17  C   UNL     1       8.221   8.874  17.985  0.00  0.00    +0.000 A 
ATOM     18  N   UNL     1       8.511   8.065  19.059  0.00  0.00    +0.000 NA
ATOM     19  C   UNL     1       8.028   6.885  18.728  0.00  0.00    +0.000 A 
ATOM     20  C   UNL     1       8.274   5.648  19.507  0.00  0.00    +0.000 C 
ATOM     21  N   UNL     1       7.380   6.971  17.493  0.00  0.00    +0.000 N 
ATOM     22  N   UNL     1       7.545   8.231  17.017  0.00  0.00    +0.000 NA
BRANCH  21  23
ATOM     23  C   UNL     1       6.597   5.992  16.788  0.00  0.00    +0.000 A 
ATOM     24  C   UNL     1       7.094   5.430  15.593  0.00  0.00    +0.000 A 
ATOM     25  C   UNL     1       6.389   4.441  14.890  0.00  0.00    +0.000 A 
ATOM     26  C   UNL     1       5.178   3.975  15.371  0.00  0.00    +0.000 A 
ATOM     27  C   UNL     1       4.668   4.518  16.550  0.00  0.00    +0.000 A 
ATOM     28  C   UNL     1       5.357   5.520  17.255  0.00  0.00    +0.000 A 
ATOM     29 CL   UNL     1       4.496   6.164  18.614  0.00  0.00    +0.000 Cl
ENDBRANCH  21  23
ENDBRANCH   2  17
TORSDOF 3
ENDMDL
MODEL 9
REMARK VINA RESULT:      -7.7      2.527      8.137
REMARK  Name = 
REMARK  5 active torsions:
REMARK  status: ('A' for Active; 'I' for Inactive)
REMARK    1  A    between atoms: C_1  and  C_2
REMARK    2  A    between atoms: C_11  and  N_12
REMARK    3  A    between atoms: C_13  and  C_15
REMARK    4  A    between atoms: C_17  and  C_18
REMARK    5  A    between atoms: N_19  and  C_20
REMARK                            x       y       z     vdW  Elec       q    Type
REMARK                         _______ _______ _______ _____ _____    ______ ____
ROOT
ATOM      1  N   UNL     1       0.687   9.548  19.250  0.00  0.00    +0.000 N 
ATOM      2  C   UNL     1       1.774   9.340  18.395  0.00  0.00    +0.000 C 
ATOM      3  O   UNL     1       2.198  10.199  17.621  0.00  0.00    +0.000 OA
ATOM      4  H   UNL     1       0.182   8.694  19.503  0.00  0.00    +0.000 HD
ENDROOT
BRANCH   1  15
ATOM      5  C   UNL     1       0.046   9.452  23.839  0.00  0.00    +0.000 C 
ATOM      6  C   UNL     1       0.251   9.758  22.372  0.00  0.00    +0.000 C 
ATOM      7  O   UNL     1       0.990   9.030  21.711  0.00  0.00    +0.000 OA
ATOM      8  N   UNL     1      -0.447  10.844  21.878  0.00  0.00    +0.000 N 
ATOM      9  C   UNL     1      -1.170  11.802  22.736  0.00  0.00    +0.000 C 
ATOM     10  C   UNL     1      -1.869  12.806  21.835  0.00  0.00    +0.000 C 
ATOM     11  C   UNL     1      -1.262  12.491  20.508  0.00  0.00    +0.000 A 
ATOM     12  C   UNL     1      -1.485  13.213  19.345  0.00  0.00    +0.000 A 
ATOM     13  C   UNL     1      -0.948  12.725  18.161  0.00  0.00    +0.000 A 
ATOM     14  C   UNL     1      -0.246  11.509  18.154  0.00  0.00    +0.000 A 
ATOM     15  C   UNL     1      -0.018  10.771  19.333  0.00  0.00    +0.000 A 
ATOM     16  C   UNL     1      -0.500  11.306  20.534  0.00  0.00    +0.000 A 
ENDBRANCH   1  15
BRANCH   2  17
ATOM     17  C   UNL     1       2.356   7.969  18.456  0.00  0.00    +0.000 A 
ATOM     18  N   UNL     1       3.505   7.605  17.790  0.00  0.00    +0.000 NA
ATOM     19  C   UNL     1       3.631   6.315  18.023  0.00  0.00    +0.000 A 
ATOM     20  C   UNL     1       4.630   5.453  17.348  0.00  0.00    +0.000 C 
ATOM     21  N   UNL     1       2.616   5.889  18.884  0.00  0.00    +0.000 N 
ATOM     22  N   UNL     1       1.793   6.942  19.118  0.00  0.00    +0.000 NA
BRANCH  21  23
ATOM     23  C   UNL     1       2.413   4.614  19.518  0.00  0.00    +0.000 A 
ATOM     24  C   UNL     1       2.437   4.524  20.925  0.00  0.00    +0.000 A 
ATOM     25  C   UNL     1       2.204   3.313  21.594  0.00  0.00    +0.000 A 
ATOM     26  C   UNL     1       1.923   2.164  20.876  0.00  0.00    +0.000 A 
ATOM     27  C   UNL     1       1.895   2.231  19.483  0.00  0.00    +0.000 A 
ATOM     28  C   UNL     1       2.142   3.435  18.801  0.00  0.00    +0.000 A 
ATOM     29 CL   UNL     1       2.203   3.284  17.076  0.00  0.00    +0.000 Cl
ENDBRANCH  21  23
ENDBRANCH   2  17
TORSDOF 3
ENDMDL
