MODEL 1
REMARK VINA RESULT:      -7.4      0.000      0.000
REMARK  Name = 
REMARK  4 active torsions:
REMARK  status: ('A' for Active; 'I' for Inactive)
REMARK    1  A    between atoms: C_6  and  C_8
REMARK    2  A    between atoms: N_11  and  C_12
REMARK    3  A    between atoms: N_25  and  C_26
REMARK    4  A    between atoms: C_26  and  C_27
REMARK                            x       y       z     vdW  Elec       q    Type
REMARK                         _______ _______ _______ _____ _____    ______ ____
ROOT
ATOM      1  O   UNL     1      -2.019  14.813  22.905  0.00  0.00    +0.000 OA
ATOM      2  C   UNL     1      -2.179  14.477  21.730  0.00  0.00    +0.000 C 
ATOM      3  C   UNL     1      -1.568  15.300  20.626  0.00  0.00    +0.000 C 
ATOM      4  C   UNL     1      -0.236  14.689  20.243  0.00  0.00    +0.000 C 
ATOM      5  N   UNL     1      -0.270  13.229  20.157  0.00  0.00    +0.000 N 
ATOM      6  C   UNL     1       0.774  12.467  20.730  0.00  0.00    +0.000 C 
ATOM      7  O   UNL     1       1.774  13.028  21.192  0.00  0.00    +0.000 OA
ATOM      8  C   UNL     1      -1.389  12.687  19.474  0.00  0.00    +0.000 A 
ATOM      9  C   UNL     1      -1.170  12.045  18.246  0.00  0.00    +0.000 A 
ATOM     10  C   UNL     1      -2.224  11.418  17.590  0.00  0.00    +0.000 A 
ATOM     11  C   UNL     1      -3.499  11.437  18.155  0.00  0.00    +0.000 A 
ATOM     12  C   UNL     1      -3.727  12.078  19.381  0.00  0.00    +0.000 A 
ATOM     13  C   UNL     1      -2.684  12.730  20.054  0.00  0.00    +0.000 A 
ATOM     14  N   UNL     1      -2.922  13.369  21.322  0.00  0.00    +0.000 N 
ENDROOT
BRANCH   6  15
ATOM     15  C   UNL     1       0.674  10.982  20.816  0.00  0.00    +0.000 A 
ATOM     16  C   UNL     1      -0.167  10.253  21.698  0.00  0.00    +0.000 A 
ATOM     17  C   UNL     1       0.117   8.924  21.474  0.00  0.00    +0.000 A 
ATOM     18  N   UNL     1       1.069   8.885  20.483  0.00  0.00    +0.000 N 
ATOM     19  N   UNL     1       1.351  10.127  20.039  0.00  0.00    +0.000 NA
BRANCH  18  20
ATOM     20  C   UNL     1       1.730   7.758  19.916  0.00  0.00    +0.000 A 
ATOM     21  C   UNL     1       1.818   6.533  20.584  0.00  0.00    +0.000 A 
ATOM     22  C   UNL     1       2.457   5.450  19.966  0.00  0.00    +0.000 A 
ATOM     23  C   UNL     1       3.021   5.581  18.694  0.00  0.00    +0.000 A 
ATOM     24  C   UNL     1       2.957   6.802  18.036  0.00  0.00    +0.000 A 
ATOM     25  C   UNL     1       2.308   7.876  18.642  0.00  0.00    +0.000 A 
ENDBRANCH  18  20
ENDBRANCH   6  15
BRANCH  14  26
ATOM     26  C   UNL     1      -3.728  12.665  22.331  0.00  0.00    +0.000 C 
BRANCH  26  27
ATOM     27  C   UNL     1      -5.120  13.238  22.527  0.00  0.00    +0.000 A 
ATOM     28  C   UNL     1      -6.190  12.815  21.723  0.00  0.00    +0.000 A 
ATOM     29  C   UNL     1      -7.473  13.338  21.906  0.00  0.00    +0.000 A 
ATOM     30  C   UNL     1      -7.710  14.284  22.903  0.00  0.00    +0.000 A 
ATOM     31  C   UNL     1      -6.668  14.691  23.729  0.00  0.00    +0.000 A 
ATOM     32  C   UNL     1      -5.389  14.163  23.548  0.00  0.00    +0.000 A 
ENDBRANCH  26  27
ENDBRANCH  14  26
TORSDOF 4
ENDMDL
MODEL 2
REMARK VINA RESULT:      -7.1      3.098      8.151
REMARK  Name = 
REMARK  4 active torsions:
REMARK  status: ('A' for Active; 'I' for Inactive)
REMARK    1  A    between atoms: C_6  and  C_8
REMARK    2  A    between atoms: N_11  and  C_12
REMARK    3  A    between atoms: N_25  and  C_26
REMARK    4  A    between atoms: C_26  and  C_27
REMARK                            x       y       z     vdW  Elec       q    Type
REMARK                         _______ _______ _______ _____ _____    ______ ____
ROOT
ATOM      1  O   UNL     1       1.647   8.693  22.170  0.00  0.00    +0.000 OA
ATOM      2  C   UNL     1       0.676   8.957  21.458  0.00  0.00    +0.000 C 
ATOM      3  C   UNL     1      -0.692   9.084  22.075  0.00  0.00    +0.000 C 
ATOM      4  C   UNL     1      -0.962  10.546  22.364  0.00  0.00    +0.000 C 
ATOM      5  N   UNL     1      -0.543  11.439  21.283  0.00  0.00    +0.000 N 
ATOM      6  C   UNL     1       0.159  12.628  21.587  0.00  0.00    +0.000 C 
ATOM      7  O   UNL     1       0.310  12.980  22.762  0.00  0.00    +0.000 OA
ATOM      8  C   UNL     1      -0.897  11.018  19.975  0.00  0.00    +0.000 A 
ATOM      9  C   UNL     1      -1.848  11.770  19.271  0.00  0.00    +0.000 A 
ATOM     10  C   UNL     1      -2.153  11.449  17.952  0.00  0.00    +0.000 A 
ATOM     11  C   UNL     1      -1.516  10.369  17.340  0.00  0.00    +0.000 A 
ATOM     12  C   UNL     1      -0.567   9.610  18.038  0.00  0.00    +0.000 A 
ATOM     13  C   UNL     1      -0.252   9.907  19.371  0.00  0.00    +0.000 A 
ATOM     14  N   UNL     1       0.739   9.135  20.075  0.00  0.00    +0.000 N 
ENDROOT
BRANCH   6  15
ATOM     15  C   UNL     1       0.754  13.459  20.502  0.00  0.00    +0.000 A 
ATOM     16  C   UNL     1       2.031  13.268  19.910  0.00  0.00    +0.000 A 
ATOM     17  C   UNL     1       2.183  14.298  19.008  0.00  0.00    +0.000 A 
ATOM     18  N   UNL     1       1.030  15.043  19.059  0.00  0.00    +0.000 N 
ATOM     19  N   UNL     1       0.140  14.493  19.911  0.00  0.00    +0.000 NA
BRANCH  18  20
ATOM     20  C   UNL     1       0.699  16.237  18.357  0.00  0.00    +0.000 A 
ATOM     21  C   UNL     1      -0.607  16.733  18.305  0.00  0.00    +0.000 A 
ATOM     22  C   UNL     1      -0.869  17.928  17.622  0.00  0.00    +0.000 A 
ATOM     23  C   UNL     1       0.156  18.625  16.978  0.00  0.00    +0.000 A 
ATOM     24  C   UNL     1       1.451  18.125  17.006  0.00  0.00    +0.000 A 
ATOM     25  C   UNL     1       1.717  16.945  17.698  0.00  0.00    +0.000 A 
ENDBRANCH  18  20
ENDBRANCH   6  15
BRANCH  14  26
ATOM     26  C   UNL     1       1.996   8.799  19.389  0.00  0.00    +0.000 C 
BRANCH  26  27
ATOM     27  C   UNL     1       2.223   7.309  19.201  0.00  0.00    +0.000 A 
ATOM     28  C   UNL     1       2.844   6.818  18.041  0.00  0.00    +0.000 A 
ATOM     29  C   UNL     1       3.058   5.448  17.870  0.00  0.00    +0.000 A 
ATOM     30  C   UNL     1       2.666   4.547  18.860  0.00  0.00    +0.000 A 
ATOM     31  C   UNL     1       2.078   5.018  20.028  0.00  0.00    +0.000 A 
ATOM     32  C   UNL     1       1.870   6.388  20.200  0.00  0.00    +0.000 A 
ENDBRANCH  26  27
ENDBRANCH  14  26
TORSDOF 4
ENDMDL
MODEL 3
REMARK VINA RESULT:      -7.1      2.518      7.290
REMARK  Name = 
REMARK  4 active torsions:
REMARK  status: ('A' for Active; 'I' for Inactive)
REMARK    1  A    between atoms: C_6  and  C_8
REMARK    2  A    between atoms: N_11  and  C_12
REMARK    3  A    between atoms: N_25  and  C_26
REMARK    4  A    between atoms: C_26  and  C_27
REMARK                            x       y       z     vdW  Elec       q    Type
REMARK                         _______ _______ _______ _____ _____    ______ ____
ROOT
ATOM      1  O   UNL     1       1.343   9.766  22.899  0.00  0.00    +0.000 OA
ATOM      2  C   UNL     1       0.319   9.884  22.224  0.00  0.00    +0.000 C 
ATOM      3  C   UNL     1      -1.030   9.742  22.880  0.00  0.00    +0.000 C 
ATOM      4  C   UNL     1      -1.543  11.121  23.242  0.00  0.00    +0.000 C 
ATOM      5  N   UNL     1      -1.321  12.117  22.194  0.00  0.00    +0.000 N 
ATOM      6  C   UNL     1      -0.829  13.398  22.535  0.00  0.00    +0.000 C 
ATOM      7  O   UNL     1      -0.703  13.722  23.721  0.00  0.00    +0.000 OA
ATOM      8  C   UNL     1      -1.638  11.694  20.877  0.00  0.00    +0.000 A 
ATOM      9  C   UNL     1      -2.728  12.296  20.231  0.00  0.00    +0.000 A 
ATOM     10  C   UNL     1      -3.014  11.980  18.908  0.00  0.00    +0.000 A 
ATOM     11  C   UNL     1      -2.218  11.056  18.230  0.00  0.00    +0.000 A 
ATOM     12  C   UNL     1      -1.129  10.448  18.869  0.00  0.00    +0.000 A 
ATOM     13  C   UNL     1      -0.828  10.740  20.207  0.00  0.00    +0.000 A 
ATOM     14  N   UNL     1       0.304  10.127  20.850  0.00  0.00    +0.000 N 
ENDROOT
BRANCH   6  15
ATOM     15  C   UNL     1      -0.424  14.364  21.476  0.00  0.00    +0.000 A 
ATOM     16  C   UNL     1      -1.208  15.443  20.986  0.00  0.00    +0.000 A 
ATOM     17  C   UNL     1      -0.465  16.020  19.979  0.00  0.00    +0.000 A 
ATOM     18  N   UNL     1       0.714  15.316  19.905  0.00  0.00    +0.000 N 
ATOM     19  N   UNL     1       0.765  14.362  20.857  0.00  0.00    +0.000 NA
BRANCH  18  20
ATOM     20  C   UNL     1       1.803  15.482  19.003  0.00  0.00    +0.000 A 
ATOM     21  C   UNL     1       2.824  14.534  18.887  0.00  0.00    +0.000 A 
ATOM     22  C   UNL     1       3.857  14.736  17.962  0.00  0.00    +0.000 A 
ATOM     23  C   UNL     1       3.889  15.882  17.162  0.00  0.00    +0.000 A 
ATOM     24  C   UNL     1       2.891  16.838  17.290  0.00  0.00    +0.000 A 
ATOM     25  C   UNL     1       1.853  16.631  18.198  0.00  0.00    +0.000 A 
ENDBRANCH  18  20
ENDBRANCH   6  15
BRANCH  14  26
ATOM     26  C   UNL     1       1.578  10.046  20.118  0.00  0.00    +0.000 C 
BRANCH  26  27
ATOM     27  C   UNL     1       1.875   8.676  19.535  0.00  0.00    +0.000 A 
ATOM     28  C   UNL     1       2.193   8.527  18.176  0.00  0.00    +0.000 A 
ATOM     29  C   UNL     1       2.471   7.267  17.640  0.00  0.00    +0.000 A 
ATOM     30  C   UNL     1       2.449   6.137  18.456  0.00  0.00    +0.000 A 
ATOM     31  C   UNL     1       2.167   6.269  19.811  0.00  0.00    +0.000 A 
ATOM     32  C   UNL     1       1.894   7.529  20.345  0.00  0.00    +0.000 A 
ENDBRANCH  26  27
ENDBRANCH  14  26
TORSDOF 4
ENDMDL
MODEL 4
REMARK VINA RESULT:      -7.1      2.471      7.452
REMARK  Name = 
REMARK  4 active torsions:
REMARK  status: ('A' for Active; 'I' for Inactive)
REMARK    1  A    between atoms: C_6  and  C_8
REMARK    2  A    between atoms: N_11  and  C_12
REMARK    3  A    between atoms: N_25  and  C_26
REMARK    4  A    between atoms: C_26  and  C_27
REMARK                            x       y       z     vdW  Elec       q    Type
REMARK                         _______ _______ _______ _____ _____    ______ ____
ROOT
ATOM      1  O   UNL     1       1.551   9.899  22.531  0.00  0.00    +0.000 OA
ATOM      2  C   UNL     1       0.468   9.971  21.948  0.00  0.00    +0.000 C 
ATOM      3  C   UNL     1      -0.811   9.733  22.709  0.00  0.00    +0.000 C 
ATOM      4  C   UNL     1      -1.369  11.070  23.152  0.00  0.00    +0.000 C 
ATOM      5  N   UNL     1      -1.294  12.102  22.118  0.00  0.00    +0.000 N 
ATOM      6  C   UNL     1      -0.850  13.402  22.454  0.00  0.00    +0.000 C 
ATOM      7  O   UNL     1      -0.643  13.704  23.635  0.00  0.00    +0.000 OA
ATOM      8  C   UNL     1      -1.697  11.693  20.821  0.00  0.00    +0.000 A 
ATOM      9  C   UNL     1      -2.871  12.244  20.286  0.00  0.00    +0.000 A 
ATOM     10  C   UNL     1      -3.250  11.943  18.982  0.00  0.00    +0.000 A 
ATOM     11  C   UNL     1      -2.463  11.084  18.214  0.00  0.00    +0.000 A 
ATOM     12  C   UNL     1      -1.290  10.528  18.743  0.00  0.00    +0.000 A 
ATOM     13  C   UNL     1      -0.894  10.805  20.058  0.00  0.00    +0.000 A 
ATOM     14  N   UNL     1       0.323  10.245  20.587  0.00  0.00    +0.000 N 
ENDROOT
BRANCH   6  15
ATOM     15  C   UNL     1      -0.592  14.416  21.393  0.00  0.00    +0.000 A 
ATOM     16  C   UNL     1      -1.503  15.413  20.953  0.00  0.00    +0.000 A 
ATOM     17  C   UNL     1      -0.868  16.073  19.924  0.00  0.00    +0.000 A 
ATOM     18  N   UNL     1       0.372  15.496  19.789  0.00  0.00    +0.000 N 
ATOM     19  N   UNL     1       0.562  14.542  20.725  0.00  0.00    +0.000 NA
BRANCH  18  20
ATOM     20  C   UNL     1       1.399  15.782  18.844  0.00  0.00    +0.000 A 
ATOM     21  C   UNL     1       1.447  16.989  18.141  0.00  0.00    +0.000 A 
ATOM     22  C   UNL     1       2.497  17.228  17.244  0.00  0.00    +0.000 A 
ATOM     23  C   UNL     1       3.491  16.268  17.032  0.00  0.00    +0.000 A 
ATOM     24  C   UNL     1       3.435  15.058  17.710  0.00  0.00    +0.000 A 
ATOM     25  C   UNL     1       2.400  14.825  18.615  0.00  0.00    +0.000 A 
ENDBRANCH  18  20
ENDBRANCH   6  15
BRANCH  14  26
ATOM     26  C   UNL     1       1.532  10.258  19.750  0.00  0.00    +0.000 C 
BRANCH  26  27
ATOM     27  C   UNL     1       1.944   8.892  19.230  0.00  0.00    +0.000 A 
ATOM     28  C   UNL     1       1.880   7.760  20.057  0.00  0.00    +0.000 A 
ATOM     29  C   UNL     1       2.254   6.501  19.577  0.00  0.00    +0.000 A 
ATOM     30  C   UNL     1       2.686   6.352  18.260  0.00  0.00    +0.000 A 
ATOM     31  C   UNL     1       2.727   7.457  17.418  0.00  0.00    +0.000 A 
ATOM     32  C   UNL     1       2.348   8.712  17.897  0.00  0.00    +0.000 A 
ENDBRANCH  26  27
ENDBRANCH  14  26
TORSDOF 4
ENDMDL
MODEL 5
REMARK VINA RESULT:      -7.0      2.670      7.172
REMARK  Name = 
REMARK  4 active torsions:
REMARK  status: ('A' for Active; 'I' for Inactive)
REMARK    1  A    between atoms: C_6  and  C_8
REMARK    2  A    between atoms: N_11  and  C_12
REMARK    3  A    between atoms: N_25  and  C_26
REMARK    4  A    between atoms: C_26  and  C_27
REMARK                            x       y       z     vdW  Elec       q    Type
REMARK                         _______ _______ _______ _____ _____    ______ ____
ROOT
ATOM      1  O   UNL     1       1.027   9.610  23.379  0.00  0.00    +0.000 OA
ATOM      2  C   UNL     1       0.130   9.788  22.552  0.00  0.00    +0.000 C 
ATOM      3  C   UNL     1      -1.304   9.866  23.008  0.00  0.00    +0.000 C 
ATOM      4  C   UNL     1      -1.677  11.323  23.191  0.00  0.00    +0.000 C 
ATOM      5  N   UNL     1      -1.184  12.188  22.119  0.00  0.00    +0.000 N 
ATOM      6  C   UNL     1      -0.582  13.427  22.438  0.00  0.00    +0.000 C 
ATOM      7  O   UNL     1      -0.581  13.838  23.603  0.00  0.00    +0.000 OA
ATOM      8  C   UNL     1      -1.368  11.690  20.804  0.00  0.00    +0.000 A 
ATOM      9  C   UNL     1      -2.270  12.357  19.962  0.00  0.00    +0.000 A 
ATOM     10  C   UNL     1      -2.409  11.960  18.636  0.00  0.00    +0.000 A 
ATOM     11  C   UNL     1      -1.653  10.891  18.152  0.00  0.00    +0.000 A 
ATOM     12  C   UNL     1      -0.752  10.218  18.988  0.00  0.00    +0.000 A 
ATOM     13  C   UNL     1      -0.604  10.590  20.331  0.00  0.00    +0.000 A 
ATOM     14  N   UNL     1       0.339   9.907  21.178  0.00  0.00    +0.000 N 
ENDROOT
BRANCH   6  15
ATOM     15  C   UNL     1       0.089  14.240  21.385  0.00  0.00    +0.000 A 
ATOM     16  C   UNL     1      -0.527  15.237  20.582  0.00  0.00    +0.000 A 
ATOM     17  C   UNL     1       0.448  15.673  19.711  0.00  0.00    +0.000 A 
ATOM     18  N   UNL     1       1.591  14.971  20.015  0.00  0.00    +0.000 N 
ATOM     19  N   UNL     1       1.389  14.158  21.072  0.00  0.00    +0.000 NA
BRANCH  18  20
ATOM     20  C   UNL     1       2.867  15.017  19.384  0.00  0.00    +0.000 A 
ATOM     21  C   UNL     1       3.008  15.064  17.994  0.00  0.00    +0.000 A 
ATOM     22  C   UNL     1       4.289  15.135  17.429  0.00  0.00    +0.000 A 
ATOM     23  C   UNL     1       5.429  15.146  18.236  0.00  0.00    +0.000 A 
ATOM     24  C   UNL     1       5.295  15.076  19.617  0.00  0.00    +0.000 A 
ATOM     25  C   UNL     1       4.022  15.021  20.182  0.00  0.00    +0.000 A 
ENDBRANCH  18  20
ENDBRANCH   6  15
BRANCH  14  26
ATOM     26  C   UNL     1       1.680   9.611  20.651  0.00  0.00    +0.000 C 
BRANCH  26  27
ATOM     27  C   UNL     1       1.838   8.202  20.107  0.00  0.00    +0.000 A 
ATOM     28  C   UNL     1       2.209   7.986  18.771  0.00  0.00    +0.000 A 
ATOM     29  C   UNL     1       2.360   6.690  18.270  0.00  0.00    +0.000 A 
ATOM     30  C   UNL     1       2.154   5.589  19.101  0.00  0.00    +0.000 A 
ATOM     31  C   UNL     1       1.815   5.784  20.435  0.00  0.00    +0.000 A 
ATOM     32  C   UNL     1       1.671   7.079  20.934  0.00  0.00    +0.000 A 
ENDBRANCH  26  27
ENDBRANCH  14  26
TORSDOF 4
ENDMDL
MODEL 6
REMARK VINA RESULT:      -6.9      2.700      7.298
REMARK  Name = 
REMARK  4 active torsions:
REMARK  status: ('A' for Active; 'I' for Inactive)
REMARK    1  A    between atoms: C_6  and  C_8
REMARK    2  A    between atoms: N_11  and  C_12
REMARK    3  A    between atoms: N_25  and  C_26
REMARK    4  A    between atoms: C_26  and  C_27
REMARK                            x       y       z     vdW  Elec       q    Type
REMARK                         _______ _______ _______ _____ _____    ______ ____
ROOT
ATOM      1  O   UNL     1       1.263   9.629  23.214  0.00  0.00    +0.000 OA
ATOM      2  C   UNL     1       0.317   9.778  22.437  0.00  0.00    +0.000 C 
ATOM      3  C   UNL     1      -1.088   9.856  22.974  0.00  0.00    +0.000 C 
ATOM      4  C   UNL     1      -1.465  11.314  23.141  0.00  0.00    +0.000 C 
ATOM      5  N   UNL     1      -1.043  12.155  22.020  0.00  0.00    +0.000 N 
ATOM      6  C   UNL     1      -0.435  13.407  22.271  0.00  0.00    +0.000 C 
ATOM      7  O   UNL     1      -0.371  13.848  23.424  0.00  0.00    +0.000 OA
ATOM      8  C   UNL     1      -1.299  11.621  20.731  0.00  0.00    +0.000 A 
ATOM      9  C   UNL     1      -2.254  12.258  19.926  0.00  0.00    +0.000 A 
ATOM     10  C   UNL     1      -2.466  11.826  18.621  0.00  0.00    +0.000 A 
ATOM     11  C   UNL     1      -1.730  10.751  18.121  0.00  0.00    +0.000 A 
ATOM     12  C   UNL     1      -0.775  10.107  18.920  0.00  0.00    +0.000 A 
ATOM     13  C   UNL     1      -0.553  10.516  20.242  0.00  0.00    +0.000 A 
ATOM     14  N   UNL     1       0.444   9.863  21.050  0.00  0.00    +0.000 N 
ENDROOT
BRANCH   6  15
ATOM     15  C   UNL     1       0.165  14.197  21.160  0.00  0.00    +0.000 A 
ATOM     16  C   UNL     1      -0.551  14.926  20.172  0.00  0.00    +0.000 A 
ATOM     17  C   UNL     1       0.402  15.440  19.321  0.00  0.00    +0.000 A 
ATOM     18  N   UNL     1       1.624  15.044  19.811  0.00  0.00    +0.000 N 
ATOM     19  N   UNL     1       1.481  14.353  20.961  0.00  0.00    +0.000 NA
BRANCH  18  20
ATOM     20  C   UNL     1       2.924  15.276  19.276  0.00  0.00    +0.000 A 
ATOM     21  C   UNL     1       3.641  16.445  19.544  0.00  0.00    +0.000 A 
ATOM     22  C   UNL     1       4.928  16.608  19.014  0.00  0.00    +0.000 A 
ATOM     23  C   UNL     1       5.501  15.620  18.208  0.00  0.00    +0.000 A 
ATOM     24  C   UNL     1       4.784  14.467  17.919  0.00  0.00    +0.000 A 
ATOM     25  C   UNL     1       3.510  14.296  18.459  0.00  0.00    +0.000 A 
ENDBRANCH  18  20
ENDBRANCH   6  15
BRANCH  14  26
ATOM     26  C   UNL     1       1.755   9.564  20.454  0.00  0.00    +0.000 C 
BRANCH  26  27
ATOM     27  C   UNL     1       1.915   8.126  19.989  0.00  0.00    +0.000 A 
ATOM     28  C   UNL     1       1.607   7.057  20.845  0.00  0.00    +0.000 A 
ATOM     29  C   UNL     1       1.749   5.734  20.417  0.00  0.00    +0.000 A 
ATOM     30  C   UNL     1       2.189   5.460  19.122  0.00  0.00    +0.000 A 
ATOM     31  C   UNL     1       2.469   6.506  18.251  0.00  0.00    +0.000 A 
ATOM     32  C   UNL     1       2.321   7.826  18.680  0.00  0.00    +0.000 A 
ENDBRANCH  26  27
ENDBRANCH  14  26
TORSDOF 4
ENDMDL
MODEL 7
REMARK VINA RESULT:      -6.9      0.902      1.408
REMARK  Name = 
REMARK  4 active torsions:
REMARK  status: ('A' for Active; 'I' for Inactive)
REMARK    1  A    between atoms: C_6  and  C_8
REMARK    2  A    between atoms: N_11  and  C_12
REMARK    3  A    between atoms: N_25  and  C_26
REMARK    4  A    between atoms: C_26  and  C_27
REMARK                            x       y       z     vdW  Elec       q    Type
REMARK                         _______ _______ _______ _____ _____    ______ ____
ROOT
ATOM      1  O   UNL     1      -0.811  15.437  22.590  0.00  0.00    +0.000 OA
ATOM      2  C   UNL     1      -1.320  14.997  21.558  0.00  0.00    +0.000 C 
ATOM      3  C   UNL     1      -1.006  15.642  20.233  0.00  0.00    +0.000 C 
ATOM      4  C   UNL     1       0.122  14.875  19.574  0.00  0.00    +0.000 C 
ATOM      5  N   UNL     1      -0.021  13.424  19.684  0.00  0.00    +0.000 N 
ATOM      6  C   UNL     1       1.099  12.633  20.034  0.00  0.00    +0.000 C 
ATOM      7  O   UNL     1       2.220  13.145  20.125  0.00  0.00    +0.000 OA
ATOM      8  C   UNL     1      -1.318  12.918  19.413  0.00  0.00    +0.000 A 
ATOM      9  C   UNL     1      -1.498  12.135  18.264  0.00  0.00    +0.000 A 
ATOM     10  C   UNL     1      -2.731  11.542  18.011  0.00  0.00    +0.000 A 
ATOM     11  C   UNL     1      -3.786  11.736  18.903  0.00  0.00    +0.000 A 
ATOM     12  C   UNL     1      -3.615  12.519  20.053  0.00  0.00    +0.000 A 
ATOM     13  C   UNL     1      -2.387  13.139  20.321  0.00  0.00    +0.000 A 
ATOM     14  N   UNL     1      -2.212  13.924  21.515  0.00  0.00    +0.000 N 
ENDROOT
BRANCH   6  15
ATOM     15  C   UNL     1       0.942  11.181  20.330  0.00  0.00    +0.000 A 
ATOM     16  C   UNL     1       0.177  10.623  21.389  0.00  0.00    +0.000 A 
ATOM     17  C   UNL     1       0.372   9.261  21.316  0.00  0.00    +0.000 A 
ATOM     18  N   UNL     1       1.200   9.038  20.241  0.00  0.00    +0.000 N 
ATOM     19  N   UNL     1       1.485  10.193  19.606  0.00  0.00    +0.000 NA
BRANCH  18  20
ATOM     20  C   UNL     1       1.739   7.809  19.763  0.00  0.00    +0.000 A 
ATOM     21  C   UNL     1       2.354   7.704  18.512  0.00  0.00    +0.000 A 
ATOM     22  C   UNL     1       2.892   6.476  18.104  0.00  0.00    +0.000 A 
ATOM     23  C   UNL     1       2.809   5.349  18.926  0.00  0.00    +0.000 A 
ATOM     24  C   UNL     1       2.178   5.442  20.160  0.00  0.00    +0.000 A 
ATOM     25  C   UNL     1       1.656   6.667  20.574  0.00  0.00    +0.000 A 
ENDBRANCH  18  20
ENDBRANCH   6  15
BRANCH  14  26
ATOM     26  C   UNL     1      -2.733  13.405  22.789  0.00  0.00    +0.000 C 
BRANCH  26  27
ATOM     27  C   UNL     1      -4.138  13.874  23.125  0.00  0.00    +0.000 A 
ATOM     28  C   UNL     1      -4.488  15.229  23.016  0.00  0.00    +0.000 A 
ATOM     29  C   UNL     1      -5.783  15.660  23.320  0.00  0.00    +0.000 A 
ATOM     30  C   UNL     1      -6.751  14.742  23.725  0.00  0.00    +0.000 A 
ATOM     31  C   UNL     1      -6.431  13.392  23.808  0.00  0.00    +0.000 A 
ATOM     32  C   UNL     1      -5.139  12.963  23.499  0.00  0.00    +0.000 A 
ENDBRANCH  26  27
ENDBRANCH  14  26
TORSDOF 4
ENDMDL
MODEL 8
REMARK VINA RESULT:      -6.8      3.154      6.811
REMARK  Name = 
REMARK  4 active torsions:
REMARK  status: ('A' for Active; 'I' for Inactive)
REMARK    1  A    between atoms: C_6  and  C_8
REMARK    2  A    between atoms: N_11  and  C_12
REMARK    3  A    between atoms: N_25  and  C_26
REMARK    4  A    between atoms: C_26  and  C_27
REMARK                            x       y       z     vdW  Elec       q    Type
REMARK                         _______ _______ _______ _____ _____    ______ ____
ROOT
ATOM      1  O   UNL     1       0.301  16.568  20.763  0.00  0.00    +0.000 OA
ATOM      2  C   UNL     1       0.320  15.505  21.387  0.00  0.00    +0.000 C 
ATOM      3  C   UNL     1       0.167  15.514  22.886  0.00  0.00    +0.000 C 
ATOM      4  C   UNL     1      -1.288  15.273  23.229  0.00  0.00    +0.000 C 
ATOM      5  N   UNL     1      -1.909  14.224  22.420  0.00  0.00    +0.000 N 
ATOM      6  C   UNL     1      -3.198  14.430  21.873  0.00  0.00    +0.000 C 
ATOM      7  O   UNL     1      -3.850  15.435  22.176  0.00  0.00    +0.000 OA
ATOM      8  C   UNL     1      -1.137  13.046  22.255  0.00  0.00    +0.000 A 
ATOM      9  C   UNL     1      -1.592  11.864  22.857  0.00  0.00    +0.000 A 
ATOM     10  C   UNL     1      -0.917  10.668  22.641  0.00  0.00    +0.000 A 
ATOM     11  C   UNL     1       0.219  10.652  21.831  0.00  0.00    +0.000 A 
ATOM     12  C   UNL     1       0.682  11.829  21.228  0.00  0.00    +0.000 A 
ATOM     13  C   UNL     1       0.026  13.050  21.441  0.00  0.00    +0.000 A 
ATOM     14  N   UNL     1       0.496  14.251  20.801  0.00  0.00    +0.000 N 
ENDROOT
BRANCH   6  15
ATOM     15  C   UNL     1      -3.775  13.460  20.901  0.00  0.00    +0.000 A 
ATOM     16  C   UNL     1      -5.065  12.869  20.977  0.00  0.00    +0.000 A 
ATOM     17  C   UNL     1      -5.141  11.997  19.912  0.00  0.00    +0.000 A 
ATOM     18  N   UNL     1      -3.951  12.097  19.233  0.00  0.00    +0.000 N 
ATOM     19  N   UNL     1      -3.155  13.033  19.792  0.00  0.00    +0.000 NA
BRANCH  18  20
ATOM     20  C   UNL     1      -3.507  11.378  18.086  0.00  0.00    +0.000 A 
ATOM     21  C   UNL     1      -2.357  10.585  18.105  0.00  0.00    +0.000 A 
ATOM     22  C   UNL     1      -1.983   9.877  16.954  0.00  0.00    +0.000 A 
ATOM     23  C   UNL     1      -2.740   9.964  15.782  0.00  0.00    +0.000 A 
ATOM     24  C   UNL     1      -3.871  10.769  15.751  0.00  0.00    +0.000 A 
ATOM     25  C   UNL     1      -4.253  11.461  16.899  0.00  0.00    +0.000 A 
ENDBRANCH  18  20
ENDBRANCH   6  15
BRANCH  14  26
ATOM     26  C   UNL     1       0.878  14.197  19.382  0.00  0.00    +0.000 C 
BRANCH  26  27
ATOM     27  C   UNL     1       2.289  14.682  19.097  0.00  0.00    +0.000 A 
ATOM     28  C   UNL     1       2.548  15.539  18.017  0.00  0.00    +0.000 A 
ATOM     29  C   UNL     1       3.846  15.991  17.758  0.00  0.00    +0.000 A 
ATOM     30  C   UNL     1       4.901  15.602  18.582  0.00  0.00    +0.000 A 
ATOM     31  C   UNL     1       4.658  14.779  19.674  0.00  0.00    +0.000 A 
ATOM     32  C   UNL     1       3.360  14.334  19.934  0.00  0.00    +0.000 A 
ENDBRANCH  26  27
ENDBRANCH  14  26
TORSDOF 4
ENDMDL
MODEL 9
REMARK VINA RESULT:      -6.7      1.508      1.981
REMARK  Name = 
REMARK  4 active torsions:
REMARK  status: ('A' for Active; 'I' for Inactive)
REMARK    1  A    between atoms: C_6  and  C_8
REMARK    2  A    between atoms: N_11  and  C_12
REMARK    3  A    between atoms: N_25  and  C_26
REMARK    4  A    between atoms: C_26  and  C_27
REMARK                            x       y       z     vdW  Elec       q    Type
REMARK                         _______ _______ _______ _____ _____    ______ ____
ROOT
ATOM      1  O   UNL     1      -0.002  15.585  21.900  0.00  0.00    +0.000 OA
ATOM      2  C   UNL     1      -0.698  15.096  21.009  0.00  0.00    +0.000 C 
ATOM      3  C   UNL     1      -0.569  15.601  19.595  0.00  0.00    +0.000 C 
ATOM      4  C   UNL     1       0.390  14.702  18.843  0.00  0.00    +0.000 C 
ATOM      5  N   UNL     1       0.185  13.279  19.113  0.00  0.00    +0.000 N 
ATOM      6  C   UNL     1       1.299  12.442  19.357  0.00  0.00    +0.000 C 
ATOM      7  O   UNL     1       2.447  12.878  19.220  0.00  0.00    +0.000 OA
ATOM      8  C   UNL     1      -1.167  12.847  19.100  0.00  0.00    +0.000 A 
ATOM      9  C   UNL     1      -1.577  11.984  18.074  0.00  0.00    +0.000 A 
ATOM     10  C   UNL     1      -2.866  11.461  18.078  0.00  0.00    +0.000 A 
ATOM     11  C   UNL     1      -3.749  11.807  19.102  0.00  0.00    +0.000 A 
ATOM     12  C   UNL     1      -3.347  12.671  20.130  0.00  0.00    +0.000 A 
ATOM     13  C   UNL     1      -2.058  13.221  20.140  0.00  0.00    +0.000 A 
ATOM     14  N   UNL     1      -1.645  14.091  21.211  0.00  0.00    +0.000 N 
ENDROOT
BRANCH   6  15
ATOM     15  C   UNL     1       1.109  11.036  19.812  0.00  0.00    +0.000 A 
ATOM     16  C   UNL     1       0.319  10.615  20.916  0.00  0.00    +0.000 A 
ATOM     17  C   UNL     1       0.489   9.251  20.999  0.00  0.00    +0.000 A 
ATOM     18  N   UNL     1       1.326   8.892  19.969  0.00  0.00    +0.000 N 
ATOM     19  N   UNL     1       1.641   9.963  19.212  0.00  0.00    +0.000 NA
BRANCH  18  20
ATOM     20  C   UNL     1       1.846   7.608  19.640  0.00  0.00    +0.000 A 
ATOM     21  C   UNL     1       1.716   6.511  20.496  0.00  0.00    +0.000 A 
ATOM     22  C   UNL     1       2.223   5.264  20.108  0.00  0.00    +0.000 A 
ATOM     23  C   UNL     1       2.871   5.104  18.880  0.00  0.00    +0.000 A 
ATOM     24  C   UNL     1       3.025   6.196  18.036  0.00  0.00    +0.000 A 
ATOM     25  C   UNL     1       2.506   7.434  18.413  0.00  0.00    +0.000 A 
ENDBRANCH  18  20
ENDBRANCH   6  15
BRANCH  14  26
ATOM     26  C   UNL     1      -1.980  13.722  22.595  0.00  0.00    +0.000 C 
BRANCH  26  27
ATOM     27  C   UNL     1      -2.967  14.659  23.268  0.00  0.00    +0.000 A 
ATOM     28  C   UNL     1      -2.656  15.272  24.491  0.00  0.00    +0.000 A 
ATOM     29  C   UNL     1      -3.562  16.139  25.109  0.00  0.00    +0.000 A 
ATOM     30  C   UNL     1      -4.789  16.415  24.507  0.00  0.00    +0.000 A 
ATOM     31  C   UNL     1      -5.102  15.841  23.281  0.00  0.00    +0.000 A 
ATOM     32  C   UNL     1      -4.193  14.980  22.663  0.00  0.00    +0.000 A 
ENDBRANCH  26  27
ENDBRANCH  14  26
TORSDOF 4
ENDMDL
