MODEL 1
REMARK VINA RESULT:      -9.5      0.000      0.000
REMARK  Name = 
REMARK  6 active torsions:
REMARK  status: ('A' for Active; 'I' for Inactive)
REMARK    1  A    between atoms: C_2  and  C_3
REMARK    2  A    between atoms: C_3  and  C_4
REMARK    3  A    between atoms: C_4  and  C_5
REMARK    4  A    between atoms: N_14  and  C_15
REMARK    5  A    between atoms: C_19  and  S_20
REMARK    6  A    between atoms: S_20  and  N_23
REMARK                            x       y       z     vdW  Elec       q    Type
REMARK                         _______ _______ _______ _____ _____    ______ ____
ROOT
ATOM      1  O   UNL     1       6.878   8.131  16.832  0.00  0.00    +0.000 OA
ATOM      2  C   UNL     1       7.488   7.592  17.753  0.00  0.00    +0.000 C 
ATOM      3  N   UNL     1       7.270   6.306  18.233  0.00  0.00    +0.000 N 
ATOM      4  H   UNL     1       7.713   6.057  19.111  0.00  0.00    +0.000 HD
ENDROOT
BRANCH   3   5
ATOM      5  C   UNL     1       6.302   5.398  17.729  0.00  0.00    +0.000 A 
ATOM      6  C   UNL     1       6.594   4.479  16.716  0.00  0.00    +0.000 A 
ATOM      7  C   UNL     1       5.592   3.707  16.123  0.00  0.00    +0.000 A 
ATOM      8  C   UNL     1       4.291   3.794  16.589  0.00  0.00    +0.000 A 
ATOM      9  C   UNL     1       4.017   4.592  17.703  0.00  0.00    +0.000 A 
ATOM     10  C   UNL     1       5.006   5.428  18.254  0.00  0.00    +0.000 A 
BRANCH   9  11
ATOM     11  S   UNL     1       2.367   4.556  18.382  0.00  0.00    +0.000 S 
ATOM     12  O   UNL     1       2.250   5.681  19.286  0.00  0.00    +0.000 OA
ATOM     13  O   UNL     1       1.442   4.370  17.279  0.00  0.00    +0.000 OA
BRANCH  11  14
ATOM     14  N   UNL     1       2.361   3.135  19.309  0.00  0.00    +0.000 NA
ATOM     15  C   UNL     1       1.084   2.631  19.842  0.00  0.00    +0.000 C 
ATOM     16  C   UNL     1       1.203   2.815  21.342  0.00  0.00    +0.000 C 
ATOM     17  C   UNL     1       2.679   2.610  21.632  0.00  0.00    +0.000 C 
ATOM     18  C   UNL     1       3.410   2.935  20.331  0.00  0.00    +0.000 C 
ENDBRANCH  11  14
ENDBRANCH   9  11
ENDBRANCH   3   5
BRANCH   2  19
ATOM     19  C   UNL     1       8.544   8.378  18.495  0.00  0.00    +0.000 C 
BRANCH  19  20
ATOM     20  C   UNL     1       8.602   9.833  18.054  0.00  0.00    +0.000 C 
BRANCH  20  21
ATOM     21  C   UNL     1       9.416  10.660  18.999  0.00  0.00    +0.000 A 
ATOM     22  C   UNL     1       9.346  10.624  20.379  0.00  0.00    +0.000 A 
ATOM     23  N   UNL     1      10.227  11.546  20.877  0.00  0.00    +0.000 N 
ATOM     24  C   UNL     1      10.874  12.192  19.850  0.00  0.00    +0.000 A 
ATOM     25  C   UNL     1      11.840  13.206  19.893  0.00  0.00    +0.000 A 
ATOM     26  C   UNL     1      12.333  13.684  18.676  0.00  0.00    +0.000 A 
ATOM     27  C   UNL     1      11.873  13.170  17.467  0.00  0.00    +0.000 A 
ATOM     28  C   UNL     1      10.904  12.158  17.443  0.00  0.00    +0.000 A 
ATOM     29  C   UNL     1      10.392  11.655  18.657  0.00  0.00    +0.000 A 
ATOM     30  H   UNL     1      10.377  11.739  21.857  0.00  0.00    +0.000 HD
ENDBRANCH  20  21
ENDBRANCH  19  20
ENDBRANCH   2  19
TORSDOF 6
ENDMDL
MODEL 2
REMARK VINA RESULT:      -9.1      1.690      1.970
REMARK  Name = 
REMARK  6 active torsions:
REMARK  status: ('A' for Active; 'I' for Inactive)
REMARK    1  A    between atoms: C_2  and  C_3
REMARK    2  A    between atoms: C_3  and  C_4
REMARK    3  A    between atoms: C_4  and  C_5
REMARK    4  A    between atoms: N_14  and  C_15
REMARK    5  A    between atoms: C_19  and  S_20
REMARK    6  A    between atoms: S_20  and  N_23
REMARK                            x       y       z     vdW  Elec       q    Type
REMARK                         _______ _______ _______ _____ _____    ______ ____
ROOT
ATOM      1  O   UNL     1       8.248   6.924  18.688  0.00  0.00    +0.000 OA
ATOM      2  C   UNL     1       7.775   7.766  17.928  0.00  0.00    +0.000 C 
ATOM      3  N   UNL     1       6.857   7.525  16.913  0.00  0.00    +0.000 N 
ATOM      4  H   UNL     1       6.693   8.273  16.248  0.00  0.00    +0.000 HD
ENDROOT
BRANCH   3   5
ATOM      5  C   UNL     1       6.310   6.256  16.590  0.00  0.00    +0.000 A 
ATOM      6  C   UNL     1       6.412   5.700  15.311  0.00  0.00    +0.000 A 
ATOM      7  C   UNL     1       5.730   4.529  14.970  0.00  0.00    +0.000 A 
ATOM      8  C   UNL     1       4.994   3.857  15.931  0.00  0.00    +0.000 A 
ATOM      9  C   UNL     1       5.012   4.318  17.250  0.00  0.00    +0.000 A 
ATOM     10  C   UNL     1       5.633   5.538  17.581  0.00  0.00    +0.000 A 
BRANCH   9  11
ATOM     11  S   UNL     1       4.190   3.341  18.497  0.00  0.00    +0.000 S 
ATOM     12  O   UNL     1       3.710   2.138  17.852  0.00  0.00    +0.000 OA
ATOM     13  O   UNL     1       5.064   3.285  19.655  0.00  0.00    +0.000 OA
BRANCH  11  14
ATOM     14  N   UNL     1       2.845   4.290  18.908  0.00  0.00    +0.000 NA
ATOM     15  C   UNL     1       2.936   5.202  20.060  0.00  0.00    +0.000 C 
ATOM     16  C   UNL     1       1.992   4.608  21.087  0.00  0.00    +0.000 C 
ATOM     17  C   UNL     1       0.885   3.977  20.261  0.00  0.00    +0.000 C 
ATOM     18  C   UNL     1       1.500   3.678  18.896  0.00  0.00    +0.000 C 
ENDBRANCH  11  14
ENDBRANCH   9  11
ENDBRANCH   3   5
BRANCH   2  19
ATOM     19  C   UNL     1       8.243   9.199  18.036  0.00  0.00    +0.000 C 
BRANCH  19  20
ATOM     20  C   UNL     1       9.235   9.403  19.172  0.00  0.00    +0.000 C 
BRANCH  20  21
ATOM     21  C   UNL     1       9.382  10.851  19.519  0.00  0.00    +0.000 A 
ATOM     22  C   UNL     1       8.921  11.463  20.669  0.00  0.00    +0.000 A 
ATOM     23  N   UNL     1       9.226  12.796  20.599  0.00  0.00    +0.000 N 
ATOM     24  C   UNL     1       9.877  13.075  19.419  0.00  0.00    +0.000 A 
ATOM     25  C   UNL     1      10.361  14.293  18.926  0.00  0.00    +0.000 A 
ATOM     26  C   UNL     1      10.991  14.284  17.678  0.00  0.00    +0.000 A 
ATOM     27  C   UNL     1      11.126  13.102  16.955  0.00  0.00    +0.000 A 
ATOM     28  C   UNL     1      10.633  11.894  17.463  0.00  0.00    +0.000 A 
ATOM     29  C   UNL     1       9.996  11.873  18.721  0.00  0.00    +0.000 A 
ATOM     30  H   UNL     1       8.999  13.485  21.301  0.00  0.00    +0.000 HD
ENDBRANCH  20  21
ENDBRANCH  19  20
ENDBRANCH   2  19
TORSDOF 6
ENDMDL
MODEL 3
REMARK VINA RESULT:      -9.1      5.236      7.379
REMARK  Name = 
REMARK  6 active torsions:
REMARK  status: ('A' for Active; 'I' for Inactive)
REMARK    1  A    between atoms: C_2  and  C_3
REMARK    2  A    between atoms: C_3  and  C_4
REMARK    3  A    between atoms: C_4  and  C_5
REMARK    4  A    between atoms: N_14  and  C_15
REMARK    5  A    between atoms: C_19  and  S_20
REMARK    6  A    between atoms: S_20  and  N_23
REMARK                            x       y       z     vdW  Elec       q    Type
REMARK                         _______ _______ _______ _____ _____    ______ ____
ROOT
ATOM      1  O   UNL     1       2.165   7.782  19.536  0.00  0.00    +0.000 OA
ATOM      2  C   UNL     1       2.455   8.133  18.395  0.00  0.00    +0.000 C 
ATOM      3  N   UNL     1       3.292   7.452  17.519  0.00  0.00    +0.000 N 
ATOM      4  H   UNL     1       3.589   7.945  16.683  0.00  0.00    +0.000 HD
ENDROOT
BRANCH   3   5
ATOM      5  C   UNL     1       3.950   6.227  17.803  0.00  0.00    +0.000 A 
ATOM      6  C   UNL     1       5.325   6.155  18.050  0.00  0.00    +0.000 A 
ATOM      7  C   UNL     1       5.980   4.927  18.167  0.00  0.00    +0.000 A 
ATOM      8  C   UNL     1       5.252   3.751  18.111  0.00  0.00    +0.000 A 
ATOM      9  C   UNL     1       3.859   3.815  18.020  0.00  0.00    +0.000 A 
ATOM     10  C   UNL     1       3.203   5.045  17.825  0.00  0.00    +0.000 A 
BRANCH   9  11
ATOM     11  S   UNL     1       2.936   2.291  18.116  0.00  0.00    +0.000 S 
ATOM     12  O   UNL     1       1.903   2.350  17.104  0.00  0.00    +0.000 OA
ATOM     13  O   UNL     1       3.893   1.200  18.160  0.00  0.00    +0.000 OA
BRANCH  11  14
ATOM     14  N   UNL     1       2.188   2.386  19.636  0.00  0.00    +0.000 NA
ATOM     15  C   UNL     1       0.840   2.969  19.738  0.00  0.00    +0.000 C 
ATOM     16  C   UNL     1       1.045   4.263  20.500  0.00  0.00    +0.000 C 
ATOM     17  C   UNL     1       2.195   3.966  21.446  0.00  0.00    +0.000 C 
ATOM     18  C   UNL     1       2.981   2.825  20.804  0.00  0.00    +0.000 C 
ENDBRANCH  11  14
ENDBRANCH   9  11
ENDBRANCH   3   5
BRANCH   2  19
ATOM     19  C   UNL     1       1.917   9.445  17.870  0.00  0.00    +0.000 C 
BRANCH  19  20
ATOM     20  C   UNL     1       0.401   9.535  17.977  0.00  0.00    +0.000 C 
BRANCH  20  21
ATOM     21  C   UNL     1      -0.017  10.531  19.013  0.00  0.00    +0.000 A 
ATOM     22  C   UNL     1      -0.226  11.881  18.806  0.00  0.00    +0.000 A 
ATOM     23  N   UNL     1      -0.570  12.451  20.002  0.00  0.00    +0.000 N 
ATOM     24  C   UNL     1      -0.587  11.501  20.996  0.00  0.00    +0.000 A 
ATOM     25  C   UNL     1      -0.871  11.633  22.361  0.00  0.00    +0.000 A 
ATOM     26  C   UNL     1      -0.812  10.481  23.151  0.00  0.00    +0.000 A 
ATOM     27  C   UNL     1      -0.479   9.249  22.595  0.00  0.00    +0.000 A 
ATOM     28  C   UNL     1      -0.195   9.137  21.228  0.00  0.00    +0.000 A 
ATOM     29  C   UNL     1      -0.249  10.283  20.407  0.00  0.00    +0.000 A 
ATOM     30  H   UNL     1      -0.771  13.430  20.146  0.00  0.00    +0.000 HD
ENDBRANCH  20  21
ENDBRANCH  19  20
ENDBRANCH   2  19
TORSDOF 6
ENDMDL
MODEL 4
REMARK VINA RESULT:      -9.0      1.691      1.930
REMARK  Name = 
REMARK  6 active torsions:
REMARK  status: ('A' for Active; 'I' for Inactive)
REMARK    1  A    between atoms: C_2  and  C_3
REMARK    2  A    between atoms: C_3  and  C_4
REMARK    3  A    between atoms: C_4  and  C_5
REMARK    4  A    between atoms: N_14  and  C_15
REMARK    5  A    between atoms: C_19  and  S_20
REMARK    6  A    between atoms: S_20  and  N_23
REMARK                            x       y       z     vdW  Elec       q    Type
REMARK                         _______ _______ _______ _____ _____    ______ ____
ROOT
ATOM      1  O   UNL     1       8.401   7.408  18.777  0.00  0.00    +0.000 OA
ATOM      2  C   UNL     1       7.912   8.143  17.922  0.00  0.00    +0.000 C 
ATOM      3  N   UNL     1       6.926   7.789  17.008  0.00  0.00    +0.000 N 
ATOM      4  H   UNL     1       6.749   8.433  16.244  0.00  0.00    +0.000 HD
ENDROOT
BRANCH   3   5
ATOM      5  C   UNL     1       6.316   6.511  16.917  0.00  0.00    +0.000 A 
ATOM      6  C   UNL     1       6.960   5.414  16.336  0.00  0.00    +0.000 A 
ATOM      7  C   UNL     1       6.287   4.211  16.110  0.00  0.00    +0.000 A 
ATOM      8  C   UNL     1       4.976   4.066  16.533  0.00  0.00    +0.000 A 
ATOM      9  C   UNL     1       4.374   5.101  17.254  0.00  0.00    +0.000 A 
ATOM     10  C   UNL     1       5.021   6.341  17.416  0.00  0.00    +0.000 A 
BRANCH   9  11
ATOM     11  S   UNL     1       2.746   4.823  17.929  0.00  0.00    +0.000 S 
ATOM     12  O   UNL     1       2.101   6.115  18.039  0.00  0.00    +0.000 OA
ATOM     13  O   UNL     1       2.141   3.735  17.181  0.00  0.00    +0.000 OA
BRANCH  11  14
ATOM     14  N   UNL     1       3.067   4.260  19.496  0.00  0.00    +0.000 NA
ATOM     15  C   UNL     1       3.278   2.820  19.713  0.00  0.00    +0.000 C 
ATOM     16  C   UNL     1       2.073   2.379  20.520  0.00  0.00    +0.000 C 
ATOM     17  C   UNL     1       1.729   3.585  21.375  0.00  0.00    +0.000 C 
ATOM     18  C   UNL     1       2.284   4.797  20.630  0.00  0.00    +0.000 C 
ENDBRANCH  11  14
ENDBRANCH   9  11
ENDBRANCH   3   5
BRANCH   2  19
ATOM     19  C   UNL     1       8.435   9.554  17.779  0.00  0.00    +0.000 C 
BRANCH  19  20
ATOM     20  C   UNL     1       9.119  10.051  19.044  0.00  0.00    +0.000 C 
BRANCH  20  21
ATOM     21  C   UNL     1       9.985  11.240  18.768  0.00  0.00    +0.000 A 
ATOM     22  C   UNL     1      11.367  11.260  18.780  0.00  0.00    +0.000 A 
ATOM     23  N   UNL     1      11.780  12.536  18.506  0.00  0.00    +0.000 N 
ATOM     24  C   UNL     1      10.695  13.360  18.318  0.00  0.00    +0.000 A 
ATOM     25  C   UNL     1      10.645  14.729  18.030  0.00  0.00    +0.000 A 
ATOM     26  C   UNL     1       9.384  15.317  17.889  0.00  0.00    +0.000 A 
ATOM     27  C   UNL     1       8.223  14.563  18.033  0.00  0.00    +0.000 A 
ATOM     28  C   UNL     1       8.293  13.194  18.325  0.00  0.00    +0.000 A 
ATOM     29  C   UNL     1       9.552  12.575  18.470  0.00  0.00    +0.000 A 
ATOM     30  H   UNL     1      12.741  12.841  18.460  0.00  0.00    +0.000 HD
ENDBRANCH  20  21
ENDBRANCH  19  20
ENDBRANCH   2  19
TORSDOF 6
ENDMDL
MODEL 5
REMARK VINA RESULT:      -8.9      1.469      1.764
REMARK  Name = 
REMARK  6 active torsions:
REMARK  status: ('A' for Active; 'I' for Inactive)
REMARK    1  A    between atoms: C_2  and  C_3
REMARK    2  A    between atoms: C_3  and  C_4
REMARK    3  A    between atoms: C_4  and  C_5
REMARK    4  A    between atoms: N_14  and  C_15
REMARK    5  A    between atoms: C_19  and  S_20
REMARK    6  A    between atoms: S_20  and  N_23
REMARK                            x       y       z     vdW  Elec       q    Type
REMARK                         _______ _______ _______ _____ _____    ______ ____
ROOT
ATOM      1  O   UNL     1       6.909   8.409  17.047  0.00  0.00    +0.000 OA
ATOM      2  C   UNL     1       7.673   7.808  17.799  0.00  0.00    +0.000 C 
ATOM      3  N   UNL     1       7.676   6.439  18.035  0.00  0.00    +0.000 N 
ATOM      4  H   UNL     1       8.233   6.103  18.814  0.00  0.00    +0.000 HD
ENDROOT
BRANCH   3   5
ATOM      5  C   UNL     1       6.794   5.503  17.435  0.00  0.00    +0.000 A 
ATOM      6  C   UNL     1       6.701   5.344  16.048  0.00  0.00    +0.000 A 
ATOM      7  C   UNL     1       5.716   4.538  15.472  0.00  0.00    +0.000 A 
ATOM      8  C   UNL     1       4.854   3.820  16.284  0.00  0.00    +0.000 A 
ATOM      9  C   UNL     1       5.037   3.850  17.669  0.00  0.00    +0.000 A 
ATOM     10  C   UNL     1       5.977   4.719  18.255  0.00  0.00    +0.000 A 
BRANCH   9  11
ATOM     11  S   UNL     1       4.019   2.788  18.678  0.00  0.00    +0.000 S 
ATOM     12  O   UNL     1       3.813   1.561  17.939  0.00  0.00    +0.000 OA
ATOM     13  O   UNL     1       4.583   2.783  20.016  0.00  0.00    +0.000 OA
BRANCH  11  14
ATOM     14  N   UNL     1       2.540   3.617  18.742  0.00  0.00    +0.000 NA
ATOM     15  C   UNL     1       2.541   5.070  18.978  0.00  0.00    +0.000 C 
ATOM     16  C   UNL     1       1.928   5.231  20.355  0.00  0.00    +0.000 C 
ATOM     17  C   UNL     1       0.925   4.096  20.456  0.00  0.00    +0.000 C 
ATOM     18  C   UNL     1       1.410   3.021  19.486  0.00  0.00    +0.000 C 
ENDBRANCH  11  14
ENDBRANCH   9  11
ENDBRANCH   3   5
BRANCH   2  19
ATOM     19  C   UNL     1       8.682   8.595  18.603  0.00  0.00    +0.000 C 
BRANCH  19  20
ATOM     20  C   UNL     1       8.866  10.012  18.078  0.00  0.00    +0.000 C 
BRANCH  20  21
ATOM     21  C   UNL     1       9.467  10.907  19.115  0.00  0.00    +0.000 A 
ATOM     22  C   UNL     1       9.401  10.725  20.484  0.00  0.00    +0.000 A 
ATOM     23  N   UNL     1      10.048  11.770  21.087  0.00  0.00    +0.000 N 
ATOM     24  C   UNL     1      10.536  12.640  20.141  0.00  0.00    +0.000 A 
ATOM     25  C   UNL     1      11.247  13.836  20.302  0.00  0.00    +0.000 A 
ATOM     26  C   UNL     1      11.624  14.528  19.146  0.00  0.00    +0.000 A 
ATOM     27  C   UNL     1      11.298  14.040  17.884  0.00  0.00    +0.000 A 
ATOM     28  C   UNL     1      10.584  12.843  17.743  0.00  0.00    +0.000 A 
ATOM     29  C   UNL     1      10.194  12.124  18.892  0.00  0.00    +0.000 A 
ATOM     30  H   UNL     1      10.146  11.898  22.084  0.00  0.00    +0.000 HD
ENDBRANCH  20  21
ENDBRANCH  19  20
ENDBRANCH   2  19
TORSDOF 6
ENDMDL
MODEL 6
REMARK VINA RESULT:      -8.9      1.504      1.741
REMARK  Name = 
REMARK  6 active torsions:
REMARK  status: ('A' for Active; 'I' for Inactive)
REMARK    1  A    between atoms: C_2  and  C_3
REMARK    2  A    between atoms: C_3  and  C_4
REMARK    3  A    between atoms: C_4  and  C_5
REMARK    4  A    between atoms: N_14  and  C_15
REMARK    5  A    between atoms: C_19  and  S_20
REMARK    6  A    between atoms: S_20  and  N_23
REMARK                            x       y       z     vdW  Elec       q    Type
REMARK                         _______ _______ _______ _____ _____    ______ ____
ROOT
ATOM      1  O   UNL     1       8.241   6.848  18.673  0.00  0.00    +0.000 OA
ATOM      2  C   UNL     1       7.713   7.663  17.921  0.00  0.00    +0.000 C 
ATOM      3  N   UNL     1       6.815   7.371  16.902  0.00  0.00    +0.000 N 
ATOM      4  H   UNL     1       6.602   8.113  16.244  0.00  0.00    +0.000 HD
ENDROOT
BRANCH   3   5
ATOM      5  C   UNL     1       6.355   6.071  16.565  0.00  0.00    +0.000 A 
ATOM      6  C   UNL     1       6.977   5.287  15.588  0.00  0.00    +0.000 A 
ATOM      7  C   UNL     1       6.417   4.082  15.156  0.00  0.00    +0.000 A 
ATOM      8  C   UNL     1       5.261   3.609  15.753  0.00  0.00    +0.000 A 
ATOM      9  C   UNL     1       4.717   4.305  16.835  0.00  0.00    +0.000 A 
ATOM     10  C   UNL     1       5.233   5.557  17.222  0.00  0.00    +0.000 A 
BRANCH   9  11
ATOM     11  S   UNL     1       3.325   3.587  17.689  0.00  0.00    +0.000 S 
ATOM     12  O   UNL     1       2.129   4.001  16.985  0.00  0.00    +0.000 OA
ATOM     13  O   UNL     1       3.625   2.184  17.913  0.00  0.00    +0.000 OA
BRANCH  11  14
ATOM     14  N   UNL     1       3.347   4.369  19.194  0.00  0.00    +0.000 NA
ATOM     15  C   UNL     1       3.304   3.561  20.424  0.00  0.00    +0.000 C 
ATOM     16  C   UNL     1       1.951   3.871  21.032  0.00  0.00    +0.000 C 
ATOM     17  C   UNL     1       1.687   5.316  20.650  0.00  0.00    +0.000 C 
ATOM     18  C   UNL     1       2.515   5.575  19.393  0.00  0.00    +0.000 C 
ENDBRANCH  11  14
ENDBRANCH   9  11
ENDBRANCH   3   5
BRANCH   2  19
ATOM     19  C   UNL     1       8.082   9.124  18.045  0.00  0.00    +0.000 C 
BRANCH  19  20
ATOM     20  C   UNL     1       9.237   9.351  19.010  0.00  0.00    +0.000 C 
BRANCH  20  21
ATOM     21  C   UNL     1       9.364  10.796  19.381  0.00  0.00    +0.000 A 
ATOM     22  C   UNL     1       8.838  11.396  20.509  0.00  0.00    +0.000 A 
ATOM     23  N   UNL     1       9.149  12.728  20.471  0.00  0.00    +0.000 N 
ATOM     24  C   UNL     1       9.867  13.019  19.335  0.00  0.00    +0.000 A 
ATOM     25  C   UNL     1      10.381  14.242  18.884  0.00  0.00    +0.000 A 
ATOM     26  C   UNL     1      11.083  14.245  17.675  0.00  0.00    +0.000 A 
ATOM     27  C   UNL     1      11.259  13.071  16.948  0.00  0.00    +0.000 A 
ATOM     28  C   UNL     1      10.736  11.858  17.413  0.00  0.00    +0.000 A 
ATOM     29  C   UNL     1      10.025  11.825  18.632  0.00  0.00    +0.000 A 
ATOM     30  H   UNL     1       8.881  13.410  21.166  0.00  0.00    +0.000 HD
ENDBRANCH  20  21
ENDBRANCH  19  20
ENDBRANCH   2  19
TORSDOF 6
ENDMDL
MODEL 7
REMARK VINA RESULT:      -8.8      5.829      8.782
REMARK  Name = 
REMARK  6 active torsions:
REMARK  status: ('A' for Active; 'I' for Inactive)
REMARK    1  A    between atoms: C_2  and  C_3
REMARK    2  A    between atoms: C_3  and  C_4
REMARK    3  A    between atoms: C_4  and  C_5
REMARK    4  A    between atoms: N_14  and  C_15
REMARK    5  A    between atoms: C_19  and  S_20
REMARK    6  A    between atoms: S_20  and  N_23
REMARK                            x       y       z     vdW  Elec       q    Type
REMARK                         _______ _______ _______ _____ _____    ______ ____
ROOT
ATOM      1  O   UNL     1       1.668   8.587  17.537  0.00  0.00    +0.000 OA
ATOM      2  C   UNL     1       1.770   8.378  18.744  0.00  0.00    +0.000 C 
ATOM      3  N   UNL     1       2.337   7.253  19.332  0.00  0.00    +0.000 N 
ATOM      4  H   UNL     1       2.189   7.126  20.327  0.00  0.00    +0.000 HD
ENDROOT
BRANCH   3   5
ATOM      5  C   UNL     1       2.900   6.158  18.627  0.00  0.00    +0.000 A 
ATOM      6  C   UNL     1       2.557   4.831  18.906  0.00  0.00    +0.000 A 
ATOM      7  C   UNL     1       3.238   3.763  18.317  0.00  0.00    +0.000 A 
ATOM      8  C   UNL     1       4.226   4.012  17.380  0.00  0.00    +0.000 A 
ATOM      9  C   UNL     1       4.470   5.327  16.978  0.00  0.00    +0.000 A 
ATOM     10  C   UNL     1       3.842   6.409  17.624  0.00  0.00    +0.000 A 
BRANCH   9  11
ATOM     11  S   UNL     1       5.632   5.604  15.651  0.00  0.00    +0.000 S 
ATOM     12  O   UNL     1       5.682   4.390  14.865  0.00  0.00    +0.000 OA
ATOM     13  O   UNL     1       5.312   6.885  15.048  0.00  0.00    +0.000 OA
BRANCH  11  14
ATOM     14  N   UNL     1       7.113   5.767  16.461  0.00  0.00    +0.000 NA
ATOM     15  C   UNL     1       7.583   4.672  17.325  0.00  0.00    +0.000 C 
ATOM     16  C   UNL     1       7.515   5.242  18.728  0.00  0.00    +0.000 C 
ATOM     17  C   UNL     1       7.819   6.718  18.552  0.00  0.00    +0.000 C 
ATOM     18  C   UNL     1       7.442   7.054  17.111  0.00  0.00    +0.000 C 
ENDBRANCH  11  14
ENDBRANCH   9  11
ENDBRANCH   3   5
BRANCH   2  19
ATOM     19  C   UNL     1       1.193   9.381  19.715  0.00  0.00    +0.000 C 
BRANCH  19  20
ATOM     20  C   UNL     1       1.106  10.780  19.122  0.00  0.00    +0.000 C 
BRANCH  20  21
ATOM     21  C   UNL     1      -0.288  11.321  19.196  0.00  0.00    +0.000 A 
ATOM     22  C   UNL     1      -0.741  12.284  20.077  0.00  0.00    +0.000 A 
ATOM     23  N   UNL     1      -2.075  12.485  19.845  0.00  0.00    +0.000 N 
ATOM     24  C   UNL     1      -2.511  11.668  18.828  0.00  0.00    +0.000 A 
ATOM     25  C   UNL     1      -3.788  11.531  18.270  0.00  0.00    +0.000 A 
ATOM     26  C   UNL     1      -3.947  10.609  17.230  0.00  0.00    +0.000 A 
ATOM     27  C   UNL     1      -2.870   9.855  16.773  0.00  0.00    +0.000 A 
ATOM     28  C   UNL     1      -1.600  10.004  17.346  0.00  0.00    +0.000 A 
ATOM     29  C   UNL     1      -1.411  10.928  18.394  0.00  0.00    +0.000 A 
ATOM     30  H   UNL     1      -2.666  13.128  20.351  0.00  0.00    +0.000 HD
ENDBRANCH  20  21
ENDBRANCH  19  20
ENDBRANCH   2  19
TORSDOF 6
ENDMDL
MODEL 8
REMARK VINA RESULT:      -8.7      5.635      8.317
REMARK  Name = 
REMARK  6 active torsions:
REMARK  status: ('A' for Active; 'I' for Inactive)
REMARK    1  A    between atoms: C_2  and  C_3
REMARK    2  A    between atoms: C_3  and  C_4
REMARK    3  A    between atoms: C_4  and  C_5
REMARK    4  A    between atoms: N_14  and  C_15
REMARK    5  A    between atoms: C_19  and  S_20
REMARK    6  A    between atoms: S_20  and  N_23
REMARK                            x       y       z     vdW  Elec       q    Type
REMARK                         _______ _______ _______ _____ _____    ______ ____
ROOT
ATOM      1  O   UNL     1       2.021   7.564  19.833  0.00  0.00    +0.000 OA
ATOM      2  C   UNL     1       2.317   8.036  18.738  0.00  0.00    +0.000 C 
ATOM      3  N   UNL     1       3.190   7.472  17.816  0.00  0.00    +0.000 N 
ATOM      4  H   UNL     1       3.484   8.055  17.039  0.00  0.00    +0.000 HD
ENDROOT
BRANCH   3   5
ATOM      5  C   UNL     1       3.884   6.247  17.990  0.00  0.00    +0.000 A 
ATOM      6  C   UNL     1       5.271   6.189  18.157  0.00  0.00    +0.000 A 
ATOM      7  C   UNL     1       5.954   4.970  18.164  0.00  0.00    +0.000 A 
ATOM      8  C   UNL     1       5.243   3.784  18.079  0.00  0.00    +0.000 A 
ATOM      9  C   UNL     1       3.846   3.824  18.069  0.00  0.00    +0.000 A 
ATOM     10  C   UNL     1       3.160   5.051  17.984  0.00  0.00    +0.000 A 
BRANCH   9  11
ATOM     11  S   UNL     1       2.956   2.279  18.125  0.00  0.00    +0.000 S 
ATOM     12  O   UNL     1       1.919   2.344  17.117  0.00  0.00    +0.000 OA
ATOM     13  O   UNL     1       3.937   1.208  18.136  0.00  0.00    +0.000 OA
BRANCH  11  14
ATOM     14  N   UNL     1       2.211   2.316  19.649  0.00  0.00    +0.000 NA
ATOM     15  C   UNL     1       0.842   2.843  19.765  0.00  0.00    +0.000 C 
ATOM     16  C   UNL     1       0.998   4.130  20.550  0.00  0.00    +0.000 C 
ATOM     17  C   UNL     1       2.162   3.862  21.487  0.00  0.00    +0.000 C 
ATOM     18  C   UNL     1       2.991   2.766  20.822  0.00  0.00    +0.000 C 
ENDBRANCH  11  14
ENDBRANCH   9  11
ENDBRANCH   3   5
BRANCH   2  19
ATOM     19  C   UNL     1       1.744   9.376  18.336  0.00  0.00    +0.000 C 
BRANCH  19  20
ATOM     20  C   UNL     1       0.476   9.240  17.506  0.00  0.00    +0.000 C 
BRANCH  20  21
ATOM     21  C   UNL     1      -0.630  10.087  18.053  0.00  0.00    +0.000 A 
ATOM     22  C   UNL     1      -0.646  10.705  19.289  0.00  0.00    +0.000 A 
ATOM     23  N   UNL     1      -1.840  11.361  19.425  0.00  0.00    +0.000 N 
ATOM     24  C   UNL     1      -2.614  11.182  18.303  0.00  0.00    +0.000 A 
ATOM     25  C   UNL     1      -3.899  11.657  18.012  0.00  0.00    +0.000 A 
ATOM     26  C   UNL     1      -4.453  11.316  16.775  0.00  0.00    +0.000 A 
ATOM     27  C   UNL     1      -3.748  10.529  15.869  0.00  0.00    +0.000 A 
ATOM     28  C   UNL     1      -2.465  10.059  16.178  0.00  0.00    +0.000 A 
ATOM     29  C   UNL     1      -1.881  10.391  17.419  0.00  0.00    +0.000 A 
ATOM     30  H   UNL     1      -2.125  11.891  20.236  0.00  0.00    +0.000 HD
ENDBRANCH  20  21
ENDBRANCH  19  20
ENDBRANCH   2  19
TORSDOF 6
ENDMDL
MODEL 9
REMARK VINA RESULT:      -8.5      5.704      8.429
REMARK  Name = 
REMARK  6 active torsions:
REMARK  status: ('A' for Active; 'I' for Inactive)
REMARK    1  A    between atoms: C_2  and  C_3
REMARK    2  A    between atoms: C_3  and  C_4
REMARK    3  A    between atoms: C_4  and  C_5
REMARK    4  A    between atoms: N_14  and  C_15
REMARK    5  A    between atoms: C_19  and  S_20
REMARK    6  A    between atoms: S_20  and  N_23
REMARK                            x       y       z     vdW  Elec       q    Type
REMARK                         _______ _______ _______ _____ _____    ______ ____
ROOT
ATOM      1  O   UNL     1       2.067   8.016  18.507  0.00  0.00    +0.000 OA
ATOM      2  C   UNL     1       2.145   7.445  19.592  0.00  0.00    +0.000 C 
ATOM      3  N   UNL     1       2.625   6.158  19.804  0.00  0.00    +0.000 N 
ATOM      4  H   UNL     1       2.461   5.746  20.716  0.00  0.00    +0.000 HD
ENDROOT
BRANCH   3   5
ATOM      5  C   UNL     1       3.113   5.290  18.793  0.00  0.00    +0.000 A 
ATOM      6  C   UNL     1       2.739   3.944  18.717  0.00  0.00    +0.000 A 
ATOM      7  C   UNL     1       3.351   3.068  17.817  0.00  0.00    +0.000 A 
ATOM      8  C   UNL     1       4.296   3.548  16.926  0.00  0.00    +0.000 A 
ATOM      9  C   UNL     1       4.563   4.919  16.887  0.00  0.00    +0.000 A 
ATOM     10  C   UNL     1       4.007   5.791  17.842  0.00  0.00    +0.000 A 
BRANCH   9  11
ATOM     11  S   UNL     1       5.661   5.530  15.620  0.00  0.00    +0.000 S 
ATOM     12  O   UNL     1       5.847   4.462  14.660  0.00  0.00    +0.000 OA
ATOM     13  O   UNL     1       5.179   6.838  15.215  0.00  0.00    +0.000 OA
BRANCH  11  14
ATOM     14  N   UNL     1       7.125   5.751  16.449  0.00  0.00    +0.000 NA
ATOM     15  C   UNL     1       7.629   4.672  17.315  0.00  0.00    +0.000 C 
ATOM     16  C   UNL     1       7.519   5.233  18.719  0.00  0.00    +0.000 C 
ATOM     17  C   UNL     1       7.765   6.722  18.552  0.00  0.00    +0.000 C 
ATOM     18  C   UNL     1       7.392   7.048  17.107  0.00  0.00    +0.000 C 
ENDBRANCH  11  14
ENDBRANCH   9  11
ENDBRANCH   3   5
BRANCH   2  19
ATOM     19  C   UNL     1       1.635   8.146  20.830  0.00  0.00    +0.000 C 
BRANCH  19  20
ATOM     20  C   UNL     1       1.006   9.496  20.516  0.00  0.00    +0.000 C 
BRANCH  20  21
ATOM     21  C   UNL     1       0.111   9.955  21.624  0.00  0.00    +0.000 A 
ATOM     22  C   UNL     1      -0.044   9.339  22.852  0.00  0.00    +0.000 A 
ATOM     23  N   UNL     1      -0.968  10.047  23.573  0.00  0.00    +0.000 N 
ATOM     24  C   UNL     1      -1.429  11.115  22.840  0.00  0.00    +0.000 A 
ATOM     25  C   UNL     1      -2.377  12.091  23.173  0.00  0.00    +0.000 A 
ATOM     26  C   UNL     1      -2.656  13.076  22.221  0.00  0.00    +0.000 A 
ATOM     27  C   UNL     1      -2.012  13.080  20.987  0.00  0.00    +0.000 A 
ATOM     28  C   UNL     1      -1.069  12.094  20.670  0.00  0.00    +0.000 A 
ATOM     29  C   UNL     1      -0.766  11.089  21.614  0.00  0.00    +0.000 A 
ATOM     30  H   UNL     1      -1.282   9.816  24.504  0.00  0.00    +0.000 HD
ENDBRANCH  20  21
ENDBRANCH  19  20
ENDBRANCH   2  19
TORSDOF 6
ENDMDL
