MODEL 1
REMARK VINA RESULT:      -8.7      0.000      0.000
REMARK  Name = 
REMARK  4 active torsions:
REMARK  status: ('A' for Active; 'I' for Inactive)
REMARK    1  A    between atoms: C_2  and  C_13
REMARK    2  A    between atoms: N_3  and  C_4
REMARK    3  A    between atoms: N_15  and  C_16
REMARK    4  A    between atoms: C_23  and  C_24
REMARK                            x       y       z     vdW  Elec       q    Type
REMARK                         _______ _______ _______ _____ _____    ______ ____
ROOT
ATOM      1  C   UNL     1       4.077   5.818  17.372  0.00  0.00    +0.000 A 
ATOM      2  C   UNL     1       4.921   6.035  16.300  0.00  0.00    +0.000 A 
ATOM      3  N   UNL     1       5.063   4.834  15.641  0.00  0.00    +0.000 N 
ATOM      4  N   UNL     1       4.384   3.846  16.265  0.00  0.00    +0.000 NA
ATOM      5  C   UNL     1       3.811   4.411  17.339  0.00  0.00    +0.000 A 
ENDROOT
BRANCH   3   6
ATOM      6  C   UNL     1       5.811   4.574  14.457  0.00  0.00    +0.000 A 
ATOM      7  C   UNL     1       5.333   3.690  13.479  0.00  0.00    +0.000 A 
ATOM      8  C   UNL     1       6.070   3.471  12.312  0.00  0.00    +0.000 A 
ATOM      9  C   UNL     1       7.287   4.120  12.119  0.00  0.00    +0.000 A 
ATOM     10  C   UNL     1       7.776   4.988  13.093  0.00  0.00    +0.000 A 
ATOM     11  C   UNL     1       7.041   5.218  14.259  0.00  0.00    +0.000 A 
ENDBRANCH   3   6
BRANCH   5  12
ATOM     12  C   UNL     1       3.053   3.585  18.284  0.00  0.00    +0.000 A 
ATOM     13  C   UNL     1       1.752   3.146  18.017  0.00  0.00    +0.000 A 
ATOM     14  C   UNL     1       1.068   2.367  18.949  0.00  0.00    +0.000 A 
ATOM     15  C   UNL     1       1.700   2.064  20.142  0.00  0.00    +0.000 A 
ATOM     16  N   UNL     1       2.945   2.483  20.455  0.00  0.00    +0.000 NA
ATOM     17  C   UNL     1       3.588   3.231  19.520  0.00  0.00    +0.000 A 
ENDBRANCH   5  12
BRANCH   1  19
ATOM     18  O   UNL     1       3.855   6.788  19.469  0.00  0.00    +0.000 OA
ATOM     19  C   UNL     1       3.525   6.808  18.288  0.00  0.00    +0.000 C 
ATOM     20  N   UNL     1       2.613   7.693  17.741  0.00  0.00    +0.000 N 
ATOM     21  H   UNL     1       2.294   7.527  16.798  0.00  0.00    +0.000 HD
BRANCH  20  22
ATOM     22  C   UNL     1       1.965   8.734  18.453  0.00  0.00    +0.000 A 
ATOM     23  C   UNL     1       1.896  10.053  17.961  0.00  0.00    +0.000 A 
ATOM     24  C   UNL     1       1.351  11.089  18.718  0.00  0.00    +0.000 A 
ATOM     25  C   UNL     1       0.855  10.787  19.969  0.00  0.00    +0.000 A 
ATOM     26  C   UNL     1       0.869   9.476  20.455  0.00  0.00    +0.000 A 
ATOM     27  C   UNL     1       1.404   8.438  19.703  0.00  0.00    +0.000 A 
ATOM     28  C   UNL     1       0.341   9.438  21.857  0.00  0.00    +0.000 C 
ATOM     29  C   UNL     1      -0.399  10.783  21.939  0.00  0.00    +0.000 C 
ATOM     30  C   UNL     1       0.327  11.743  20.990  0.00  0.00    +0.000 C 
ENDBRANCH  20  22
ENDBRANCH   1  19
TORSDOF 4
ENDMDL
MODEL 2
REMARK VINA RESULT:      -8.6      1.402      1.839
REMARK  Name = 
REMARK  4 active torsions:
REMARK  status: ('A' for Active; 'I' for Inactive)
REMARK    1  A    between atoms: C_2  and  C_13
REMARK    2  A    between atoms: N_3  and  C_4
REMARK    3  A    between atoms: N_15  and  C_16
REMARK    4  A    between atoms: C_23  and  C_24
REMARK                            x       y       z     vdW  Elec       q    Type
REMARK                         _______ _______ _______ _____ _____    ______ ____
ROOT
ATOM      1  C   UNL     1       3.523   6.348  17.640  0.00  0.00    +0.000 A 
ATOM      2  C   UNL     1       4.401   6.496  16.584  0.00  0.00    +0.000 A 
ATOM      3  N   UNL     1       4.743   5.233  16.155  0.00  0.00    +0.000 N 
ATOM      4  N   UNL     1       4.160   4.280  16.914  0.00  0.00    +0.000 NA
ATOM      5  C   UNL     1       3.448   4.933  17.846  0.00  0.00    +0.000 A 
ENDROOT
BRANCH   3   6
ATOM      6  C   UNL     1       5.596   4.883  15.069  0.00  0.00    +0.000 A 
ATOM      7  C   UNL     1       5.175   3.983  14.080  0.00  0.00    +0.000 A 
ATOM      8  C   UNL     1       6.018   3.676  13.008  0.00  0.00    +0.000 A 
ATOM      9  C   UNL     1       7.283   4.252  12.922  0.00  0.00    +0.000 A 
ATOM     10  C   UNL     1       7.714   5.135  13.909  0.00  0.00    +0.000 A 
ATOM     11  C   UNL     1       6.874   5.454  14.980  0.00  0.00    +0.000 A 
ENDBRANCH   3   6
BRANCH   5  12
ATOM     12  C   UNL     1       2.743   4.181  18.889  0.00  0.00    +0.000 A 
ATOM     13  C   UNL     1       1.366   3.938  18.837  0.00  0.00    +0.000 A 
ATOM     14  C   UNL     1       0.740   3.223  19.856  0.00  0.00    +0.000 A 
ATOM     15  C   UNL     1       1.508   2.786  20.920  0.00  0.00    +0.000 A 
ATOM     16  N   UNL     1       2.834   3.014  21.027  0.00  0.00    +0.000 NA
ATOM     17  C   UNL     1       3.417   3.704  20.011  0.00  0.00    +0.000 A 
ENDBRANCH   5  12
BRANCH   1  19
ATOM     18  O   UNL     1       2.557   7.267  19.539  0.00  0.00    +0.000 OA
ATOM     19  C   UNL     1       2.787   7.392  18.341  0.00  0.00    +0.000 C 
ATOM     20  N   UNL     1       2.358   8.452  17.564  0.00  0.00    +0.000 N 
ATOM     21  H   UNL     1       2.464   8.384  16.562  0.00  0.00    +0.000 HD
BRANCH  20  22
ATOM     22  C   UNL     1       1.634   9.572  18.047  0.00  0.00    +0.000 A 
ATOM     23  C   UNL     1       0.258   9.509  18.342  0.00  0.00    +0.000 A 
ATOM     24  C   UNL     1      -0.464  10.643  18.714  0.00  0.00    +0.000 A 
ATOM     25  C   UNL     1       0.213  11.841  18.807  0.00  0.00    +0.000 A 
ATOM     26  C   UNL     1       1.589  11.915  18.567  0.00  0.00    +0.000 A 
ATOM     27  C   UNL     1       2.315  10.788  18.203  0.00  0.00    +0.000 A 
ATOM     28  C   UNL     1       2.055  13.336  18.664  0.00  0.00    +0.000 C 
ATOM     29  C   UNL     1       0.895  13.984  19.437  0.00  0.00    +0.000 C 
ATOM     30  C   UNL     1      -0.368  13.192  19.081  0.00  0.00    +0.000 C 
ENDBRANCH  20  22
ENDBRANCH   1  19
TORSDOF 4
ENDMDL
MODEL 3
REMARK VINA RESULT:      -8.6      0.792      1.414
REMARK  Name = 
REMARK  4 active torsions:
REMARK  status: ('A' for Active; 'I' for Inactive)
REMARK    1  A    between atoms: C_2  and  C_13
REMARK    2  A    between atoms: N_3  and  C_4
REMARK    3  A    between atoms: N_15  and  C_16
REMARK    4  A    between atoms: C_23  and  C_24
REMARK                            x       y       z     vdW  Elec       q    Type
REMARK                         _______ _______ _______ _____ _____    ______ ____
ROOT
ATOM      1  C   UNL     1       4.387   5.916  16.945  0.00  0.00    +0.000 A 
ATOM      2  C   UNL     1       5.170   6.011  15.811  0.00  0.00    +0.000 A 
ATOM      3  N   UNL     1       5.217   4.760  15.239  0.00  0.00    +0.000 N 
ATOM      4  N   UNL     1       4.536   3.855  15.975  0.00  0.00    +0.000 NA
ATOM      5  C   UNL     1       4.058   4.525  17.035  0.00  0.00    +0.000 A 
ENDROOT
BRANCH   3   6
ATOM      6  C   UNL     1       5.877   4.378  14.036  0.00  0.00    +0.000 A 
ATOM      7  C   UNL     1       5.316   3.423  13.175  0.00  0.00    +0.000 A 
ATOM      8  C   UNL     1       5.967   3.083  11.986  0.00  0.00    +0.000 A 
ATOM      9  C   UNL     1       7.180   3.681  11.654  0.00  0.00    +0.000 A 
ATOM     10  C   UNL     1       7.752   4.618  12.511  0.00  0.00    +0.000 A 
ATOM     11  C   UNL     1       7.103   4.970  13.698  0.00  0.00    +0.000 A 
ENDBRANCH   3   6
BRANCH   5  12
ATOM     12  C   UNL     1       3.325   3.808  18.084  0.00  0.00    +0.000 A 
ATOM     13  C   UNL     1       1.991   3.417  17.930  0.00  0.00    +0.000 A 
ATOM     14  C   UNL     1       1.334   2.743  18.958  0.00  0.00    +0.000 A 
ATOM     15  C   UNL     1       2.026   2.496  20.130  0.00  0.00    +0.000 A 
ATOM     16  N   UNL     1       3.306   2.873  20.335  0.00  0.00    +0.000 NA
ATOM     17  C   UNL     1       3.922   3.519  19.308  0.00  0.00    +0.000 A 
ENDBRANCH   5  12
BRANCH   1  19
ATOM     18  O   UNL     1       4.734   7.861  18.163  0.00  0.00    +0.000 OA
ATOM     19  C   UNL     1       3.938   6.996  17.814  0.00  0.00    +0.000 C 
ATOM     20  N   UNL     1       2.617   6.933  18.220  0.00  0.00    +0.000 N 
ATOM     21  H   UNL     1       2.091   6.099  18.004  0.00  0.00    +0.000 HD
BRANCH  20  22
ATOM     22  C   UNL     1       1.980   7.883  19.058  0.00  0.00    +0.000 A 
ATOM     23  C   UNL     1       1.796   7.667  20.438  0.00  0.00    +0.000 A 
ATOM     24  C   UNL     1       1.073   8.560  21.229  0.00  0.00    +0.000 A 
ATOM     25  C   UNL     1       0.552   9.685  20.626  0.00  0.00    +0.000 A 
ATOM     26  C   UNL     1       0.765   9.943  19.268  0.00  0.00    +0.000 A 
ATOM     27  C   UNL     1       1.490   9.061  18.476  0.00  0.00    +0.000 A 
ATOM     28  C   UNL     1       0.034  11.184  18.856  0.00  0.00    +0.000 C 
ATOM     29  C   UNL     1      -0.229  11.848  20.217  0.00  0.00    +0.000 C 
ATOM     30  C   UNL     1      -0.338  10.716  21.245  0.00  0.00    +0.000 C 
ENDBRANCH  20  22
ENDBRANCH   1  19
TORSDOF 4
ENDMDL
MODEL 4
REMARK VINA RESULT:      -8.5      1.771      2.190
REMARK  Name = 
REMARK  4 active torsions:
REMARK  status: ('A' for Active; 'I' for Inactive)
REMARK    1  A    between atoms: C_2  and  C_13
REMARK    2  A    between atoms: N_3  and  C_4
REMARK    3  A    between atoms: N_15  and  C_16
REMARK    4  A    between atoms: C_23  and  C_24
REMARK                            x       y       z     vdW  Elec       q    Type
REMARK                         _______ _______ _______ _____ _____    ______ ____
ROOT
ATOM      1  C   UNL     1       3.225   6.561  17.960  0.00  0.00    +0.000 A 
ATOM      2  C   UNL     1       4.151   6.723  16.948  0.00  0.00    +0.000 A 
ATOM      3  N   UNL     1       4.583   5.469  16.581  0.00  0.00    +0.000 N 
ATOM      4  N   UNL     1       4.010   4.509  17.340  0.00  0.00    +0.000 NA
ATOM      5  C   UNL     1       3.213   5.150  18.209  0.00  0.00    +0.000 A 
ENDROOT
BRANCH   3   6
ATOM      6  C   UNL     1       5.512   5.133  15.555  0.00  0.00    +0.000 A 
ATOM      7  C   UNL     1       6.835   5.594  15.598  0.00  0.00    +0.000 A 
ATOM      8  C   UNL     1       7.738   5.229  14.595  0.00  0.00    +0.000 A 
ATOM      9  C   UNL     1       7.326   4.416  13.542  0.00  0.00    +0.000 A 
ATOM     10  C   UNL     1       6.008   3.967  13.484  0.00  0.00    +0.000 A 
ATOM     11  C   UNL     1       5.102   4.320  14.487  0.00  0.00    +0.000 A 
ENDBRANCH   3   6
BRANCH   5  12
ATOM     12  C   UNL     1       2.493   4.393  19.238  0.00  0.00    +0.000 A 
ATOM     13  C   UNL     1       1.308   3.702  18.966  0.00  0.00    +0.000 A 
ATOM     14  C   UNL     1       0.655   3.001  19.979  0.00  0.00    +0.000 A 
ATOM     15  C   UNL     1       1.197   3.029  21.251  0.00  0.00    +0.000 A 
ATOM     16  N   UNL     1       2.325   3.699  21.568  0.00  0.00    +0.000 NA
ATOM     17  C   UNL     1       2.943   4.363  20.555  0.00  0.00    +0.000 A 
ENDBRANCH   5  12
BRANCH   1  19
ATOM     18  O   UNL     1       2.238   7.572  19.800  0.00  0.00    +0.000 OA
ATOM     19  C   UNL     1       2.396   7.583  18.585  0.00  0.00    +0.000 C 
ATOM     20  N   UNL     1       1.804   8.488  17.723  0.00  0.00    +0.000 N 
ATOM     21  H   UNL     1       1.872   8.317  16.730  0.00  0.00    +0.000 HD
BRANCH  20  22
ATOM     22  C   UNL     1       0.968   9.562  18.122  0.00  0.00    +0.000 A 
ATOM     23  C   UNL     1       1.457  10.667  18.846  0.00  0.00    +0.000 A 
ATOM     24  C   UNL     1       0.607  11.663  19.325  0.00  0.00    +0.000 A 
ATOM     25  C   UNL     1      -0.740  11.552  19.052  0.00  0.00    +0.000 A 
ATOM     26  C   UNL     1      -1.239  10.489  18.293  0.00  0.00    +0.000 A 
ATOM     27  C   UNL     1      -0.396   9.497  17.807  0.00  0.00    +0.000 A 
ATOM     28  C   UNL     1      -2.733  10.569  18.209  0.00  0.00    +0.000 C 
ATOM     29  C   UNL     1      -2.982  12.033  18.605  0.00  0.00    +0.000 C 
ATOM     30  C   UNL     1      -1.842  12.433  19.549  0.00  0.00    +0.000 C 
ENDBRANCH  20  22
ENDBRANCH   1  19
TORSDOF 4
ENDMDL
MODEL 5
REMARK VINA RESULT:      -8.5      1.818      2.175
REMARK  Name = 
REMARK  4 active torsions:
REMARK  status: ('A' for Active; 'I' for Inactive)
REMARK    1  A    between atoms: C_2  and  C_13
REMARK    2  A    between atoms: N_3  and  C_4
REMARK    3  A    between atoms: N_15  and  C_16
REMARK    4  A    between atoms: C_23  and  C_24
REMARK                            x       y       z     vdW  Elec       q    Type
REMARK                         _______ _______ _______ _____ _____    ______ ____
ROOT
ATOM      1  C   UNL     1       3.229   6.564  17.956  0.00  0.00    +0.000 A 
ATOM      2  C   UNL     1       4.154   6.713  16.940  0.00  0.00    +0.000 A 
ATOM      3  N   UNL     1       4.584   5.454  16.589  0.00  0.00    +0.000 N 
ATOM      4  N   UNL     1       4.012   4.504  17.361  0.00  0.00    +0.000 NA
ATOM      5  C   UNL     1       3.217   5.157  18.223  0.00  0.00    +0.000 A 
ENDROOT
BRANCH   3   6
ATOM      6  C   UNL     1       5.511   5.104  15.566  0.00  0.00    +0.000 A 
ATOM      7  C   UNL     1       5.132   4.281  14.496  0.00  0.00    +0.000 A 
ATOM      8  C   UNL     1       6.050   3.974  13.488  0.00  0.00    +0.000 A 
ATOM      9  C   UNL     1       7.349   4.474  13.546  0.00  0.00    +0.000 A 
ATOM     10  C   UNL     1       7.739   5.279  14.614  0.00  0.00    +0.000 A 
ATOM     11  C   UNL     1       6.824   5.598  15.621  0.00  0.00    +0.000 A 
ENDBRANCH   3   6
BRANCH   5  12
ATOM     12  C   UNL     1       2.498   4.413  19.263  0.00  0.00    +0.000 A 
ATOM     13  C   UNL     1       2.922   4.392  20.596  0.00  0.00    +0.000 A 
ATOM     14  C   UNL     1       2.209   3.666  21.548  0.00  0.00    +0.000 A 
ATOM     15  C   UNL     1       1.096   2.956  21.135  0.00  0.00    +0.000 A 
ATOM     16  N   UNL     1       0.661   2.926  19.858  0.00  0.00    +0.000 NA
ATOM     17  C   UNL     1       1.372   3.654  18.955  0.00  0.00    +0.000 A 
ENDBRANCH   5  12
BRANCH   1  19
ATOM     18  O   UNL     1       2.226   7.585  19.782  0.00  0.00    +0.000 OA
ATOM     19  C   UNL     1       2.402   7.595  18.569  0.00  0.00    +0.000 C 
ATOM     20  N   UNL     1       1.831   8.506  17.699  0.00  0.00    +0.000 N 
ATOM     21  H   UNL     1       1.912   8.334  16.707  0.00  0.00    +0.000 HD
BRANCH  20  22
ATOM     22  C   UNL     1       1.001   9.588  18.086  0.00  0.00    +0.000 A 
ATOM     23  C   UNL     1       1.502  10.714  18.769  0.00  0.00    +0.000 A 
ATOM     24  C   UNL     1       0.658  11.721  19.238  0.00  0.00    +0.000 A 
ATOM     25  C   UNL     1      -0.694  11.598  18.998  0.00  0.00    +0.000 A 
ATOM     26  C   UNL     1      -1.206  10.513  18.279  0.00  0.00    +0.000 A 
ATOM     27  C   UNL     1      -0.370   9.510  17.803  0.00  0.00    +0.000 A 
ATOM     28  C   UNL     1      -2.701  10.586  18.226  0.00  0.00    +0.000 C 
ATOM     29  C   UNL     1      -2.946  12.060  18.586  0.00  0.00    +0.000 C 
ATOM     30  C   UNL     1      -1.788  12.489  19.494  0.00  0.00    +0.000 C 
ENDBRANCH  20  22
ENDBRANCH   1  19
TORSDOF 4
ENDMDL
MODEL 6
REMARK VINA RESULT:      -8.4      1.613      2.407
REMARK  Name = 
REMARK  4 active torsions:
REMARK  status: ('A' for Active; 'I' for Inactive)
REMARK    1  A    between atoms: C_2  and  C_13
REMARK    2  A    between atoms: N_3  and  C_4
REMARK    3  A    between atoms: N_15  and  C_16
REMARK    4  A    between atoms: C_23  and  C_24
REMARK                            x       y       z     vdW  Elec       q    Type
REMARK                         _______ _______ _______ _____ _____    ______ ____
ROOT
ATOM      1  C   UNL     1       3.350   6.595  17.847  0.00  0.00    +0.000 A 
ATOM      2  C   UNL     1       4.266   6.716  16.821  0.00  0.00    +0.000 A 
ATOM      3  N   UNL     1       4.619   5.442  16.434  0.00  0.00    +0.000 N 
ATOM      4  N   UNL     1       4.005   4.509  17.194  0.00  0.00    +0.000 NA
ATOM      5  C   UNL     1       3.262   5.185  18.083  0.00  0.00    +0.000 A 
ENDROOT
BRANCH   3   6
ATOM      6  C   UNL     1       5.509   5.065  15.388  0.00  0.00    +0.000 A 
ATOM      7  C   UNL     1       6.832   5.530  15.361  0.00  0.00    +0.000 A 
ATOM      8  C   UNL     1       7.697   5.125  14.341  0.00  0.00    +0.000 A 
ATOM      9  C   UNL     1       7.248   4.268  13.339  0.00  0.00    +0.000 A 
ATOM     10  C   UNL     1       5.930   3.814  13.350  0.00  0.00    +0.000 A 
ATOM     11  C   UNL     1       5.062   4.208  14.372  0.00  0.00    +0.000 A 
ENDBRANCH   3   6
BRANCH   5  12
ATOM     12  C   UNL     1       2.518   4.459  19.118  0.00  0.00    +0.000 A 
ATOM     13  C   UNL     1       2.907   4.464  20.462  0.00  0.00    +0.000 A 
ATOM     14  C   UNL     1       2.171   3.754  21.409  0.00  0.00    +0.000 A 
ATOM     15  C   UNL     1       1.071   3.033  20.980  0.00  0.00    +0.000 A 
ATOM     16  N   UNL     1       0.669   2.978  19.693  0.00  0.00    +0.000 NA
ATOM     17  C   UNL     1       1.402   3.691  18.796  0.00  0.00    +0.000 A 
ENDBRANCH   5  12
BRANCH   1  19
ATOM     18  O   UNL     1       2.320   7.561  19.689  0.00  0.00    +0.000 OA
ATOM     19  C   UNL     1       2.591   7.656  18.497  0.00  0.00    +0.000 C 
ATOM     20  N   UNL     1       2.193   8.698  17.680  0.00  0.00    +0.000 N 
ATOM     21  H   UNL     1       2.333   8.606  16.685  0.00  0.00    +0.000 HD
BRANCH  20  22
ATOM     22  C   UNL     1       1.455   9.831  18.110  0.00  0.00    +0.000 A 
ATOM     23  C   UNL     1       0.065   9.783  18.336  0.00  0.00    +0.000 A 
ATOM     24  C   UNL     1      -0.665  10.928  18.655  0.00  0.00    +0.000 A 
ATOM     25  C   UNL     1       0.017  12.121  18.766  0.00  0.00    +0.000 A 
ATOM     26  C   UNL     1       1.404  12.181  18.594  0.00  0.00    +0.000 A 
ATOM     27  C   UNL     1       2.137  11.043  18.283  0.00  0.00    +0.000 A 
ATOM     28  C   UNL     1       1.877  13.599  18.696  0.00  0.00    +0.000 C 
ATOM     29  C   UNL     1       0.685  14.267  19.400  0.00  0.00    +0.000 C 
ATOM     30  C   UNL     1      -0.565  13.480  18.990  0.00  0.00    +0.000 C 
ENDBRANCH  20  22
ENDBRANCH   1  19
TORSDOF 4
ENDMDL
MODEL 7
REMARK VINA RESULT:      -8.4      0.961      1.911
REMARK  Name = 
REMARK  4 active torsions:
REMARK  status: ('A' for Active; 'I' for Inactive)
REMARK    1  A    between atoms: C_2  and  C_13
REMARK    2  A    between atoms: N_3  and  C_4
REMARK    3  A    between atoms: N_15  and  C_16
REMARK    4  A    between atoms: C_23  and  C_24
REMARK                            x       y       z     vdW  Elec       q    Type
REMARK                         _______ _______ _______ _____ _____    ______ ____
ROOT
ATOM      1  C   UNL     1       4.454   5.874  16.884  0.00  0.00    +0.000 A 
ATOM      2  C   UNL     1       5.208   5.985  15.732  0.00  0.00    +0.000 A 
ATOM      3  N   UNL     1       5.269   4.734  15.160  0.00  0.00    +0.000 N 
ATOM      4  N   UNL     1       4.625   3.816  15.913  0.00  0.00    +0.000 NA
ATOM      5  C   UNL     1       4.157   4.477  16.983  0.00  0.00    +0.000 A 
ENDROOT
BRANCH   3   6
ATOM      6  C   UNL     1       5.908   4.364  13.942  0.00  0.00    +0.000 A 
ATOM      7  C   UNL     1       7.121   4.951  13.553  0.00  0.00    +0.000 A 
ATOM      8  C   UNL     1       7.745   4.553  12.368  0.00  0.00    +0.000 A 
ATOM      9  C   UNL     1       7.161   3.579  11.561  0.00  0.00    +0.000 A 
ATOM     10  C   UNL     1       5.948   3.002  11.932  0.00  0.00    +0.000 A 
ATOM     11  C   UNL     1       5.322   3.390  13.120  0.00  0.00    +0.000 A 
ENDBRANCH   3   6
BRANCH   5  12
ATOM     12  C   UNL     1       3.465   3.746  18.050  0.00  0.00    +0.000 A 
ATOM     13  C   UNL     1       4.055   3.502  19.295  0.00  0.00    +0.000 A 
ATOM     14  C   UNL     1       3.360   2.798  20.276  0.00  0.00    +0.000 A 
ATOM     15  C   UNL     1       2.093   2.331  19.976  0.00  0.00    +0.000 A 
ATOM     16  N   UNL     1       1.490   2.521  18.783  0.00  0.00    +0.000 NA
ATOM     17  C   UNL     1       2.190   3.222  17.852  0.00  0.00    +0.000 A 
ENDBRANCH   5  12
BRANCH   1  19
ATOM     18  O   UNL     1       4.806   7.787  18.151  0.00  0.00    +0.000 OA
ATOM     19  C   UNL     1       4.003   6.946  17.762  0.00  0.00    +0.000 C 
ATOM     20  N   UNL     1       2.670   6.902  18.130  0.00  0.00    +0.000 N 
ATOM     21  H   UNL     1       2.133   6.084  17.882  0.00  0.00    +0.000 HD
BRANCH  20  22
ATOM     22  C   UNL     1       2.028   7.848  18.969  0.00  0.00    +0.000 A 
ATOM     23  C   UNL     1       1.856   7.635  20.351  0.00  0.00    +0.000 A 
ATOM     24  C   UNL     1       1.130   8.522  21.144  0.00  0.00    +0.000 A 
ATOM     25  C   UNL     1       0.593   9.640  20.541  0.00  0.00    +0.000 A 
ATOM     26  C   UNL     1       0.794   9.895  19.181  0.00  0.00    +0.000 A 
ATOM     27  C   UNL     1       1.522   9.019  18.387  0.00  0.00    +0.000 A 
ATOM     28  C   UNL     1       0.047  11.128  18.770  0.00  0.00    +0.000 C 
ATOM     29  C   UNL     1      -0.214  11.793  20.131  0.00  0.00    +0.000 C 
ATOM     30  C   UNL     1      -0.303  10.663  21.163  0.00  0.00    +0.000 C 
ENDBRANCH  20  22
ENDBRANCH   1  19
TORSDOF 4
ENDMDL
MODEL 8
REMARK VINA RESULT:      -8.4      1.710      8.257
REMARK  Name = 
REMARK  4 active torsions:
REMARK  status: ('A' for Active; 'I' for Inactive)
REMARK    1  A    between atoms: C_2  and  C_13
REMARK    2  A    between atoms: N_3  and  C_4
REMARK    3  A    between atoms: N_15  and  C_16
REMARK    4  A    between atoms: C_23  and  C_24
REMARK                            x       y       z     vdW  Elec       q    Type
REMARK                         _______ _______ _______ _____ _____    ______ ____
ROOT
ATOM      1  C   UNL     1       2.228   7.615  19.061  0.00  0.00    +0.000 A 
ATOM      2  C   UNL     1       1.717   8.844  19.432  0.00  0.00    +0.000 A 
ATOM      3  N   UNL     1       1.025   8.662  20.608  0.00  0.00    +0.000 N 
ATOM      4  N   UNL     1       1.031   7.365  20.988  0.00  0.00    +0.000 NA
ATOM      5  C   UNL     1       1.720   6.706  20.044  0.00  0.00    +0.000 A 
ENDROOT
BRANCH   3   6
ATOM      6  C   UNL     1       0.356   9.649  21.386  0.00  0.00    +0.000 A 
ATOM      7  C   UNL     1       0.292  10.984  20.962  0.00  0.00    +0.000 A 
ATOM      8  C   UNL     1      -0.394  11.931  21.728  0.00  0.00    +0.000 A 
ATOM      9  C   UNL     1      -1.008  11.558  22.921  0.00  0.00    +0.000 A 
ATOM     10  C   UNL     1      -0.936  10.237  23.357  0.00  0.00    +0.000 A 
ATOM     11  C   UNL     1      -0.259   9.282  22.593  0.00  0.00    +0.000 A 
ENDBRANCH   3   6
BRANCH   5  12
ATOM     12  C   UNL     1       1.851   5.247  20.117  0.00  0.00    +0.000 A 
ATOM     13  C   UNL     1       1.475   4.409  19.062  0.00  0.00    +0.000 A 
ATOM     14  C   UNL     1       1.612   3.027  19.180  0.00  0.00    +0.000 A 
ATOM     15  C   UNL     1       2.102   2.514  20.368  0.00  0.00    +0.000 A 
ATOM     16  N   UNL     1       2.456   3.280  21.422  0.00  0.00    +0.000 NA
ATOM     17  C   UNL     1       2.322   4.624  21.270  0.00  0.00    +0.000 A 
ENDBRANCH   5  12
BRANCH   1  19
ATOM     18  O   UNL     1       3.050   7.965  16.919  0.00  0.00    +0.000 OA
ATOM     19  C   UNL     1       3.135   7.321  17.959  0.00  0.00    +0.000 C 
ATOM     20  N   UNL     1       4.019   6.279  18.169  0.00  0.00    +0.000 N 
ATOM     21  H   UNL     1       3.904   5.714  18.997  0.00  0.00    +0.000 HD
BRANCH  20  22
ATOM     22  C   UNL     1       4.988   5.835  17.233  0.00  0.00    +0.000 A 
ATOM     23  C   UNL     1       6.360   6.118  17.378  0.00  0.00    +0.000 A 
ATOM     24  C   UNL     1       7.288   5.769  16.397  0.00  0.00    +0.000 A 
ATOM     25  C   UNL     1       6.828   5.113  15.274  0.00  0.00    +0.000 A 
ATOM     26  C   UNL     1       5.478   4.779  15.134  0.00  0.00    +0.000 A 
ATOM     27  C   UNL     1       4.550   5.118  16.111  0.00  0.00    +0.000 A 
ATOM     28  C   UNL     1       5.238   4.141  13.799  0.00  0.00    +0.000 C 
ATOM     29  C   UNL     1       6.664   3.732  13.398  0.00  0.00    +0.000 C 
ATOM     30  C   UNL     1       7.613   4.740  14.057  0.00  0.00    +0.000 C 
ENDBRANCH  20  22
ENDBRANCH   1  19
TORSDOF 4
ENDMDL
MODEL 9
REMARK VINA RESULT:      -8.3      0.763      1.062
REMARK  Name = 
REMARK  4 active torsions:
REMARK  status: ('A' for Active; 'I' for Inactive)
REMARK    1  A    between atoms: C_2  and  C_13
REMARK    2  A    between atoms: N_3  and  C_4
REMARK    3  A    between atoms: N_15  and  C_16
REMARK    4  A    between atoms: C_23  and  C_24
REMARK                            x       y       z     vdW  Elec       q    Type
REMARK                         _______ _______ _______ _____ _____    ______ ____
ROOT
ATOM      1  C   UNL     1       4.382   5.829  17.022  0.00  0.00    +0.000 A 
ATOM      2  C   UNL     1       5.170   5.977  15.898  0.00  0.00    +0.000 A 
ATOM      3  N   UNL     1       5.253   4.745  15.290  0.00  0.00    +0.000 N 
ATOM      4  N   UNL     1       4.590   3.802  15.995  0.00  0.00    +0.000 NA
ATOM      5  C   UNL     1       4.088   4.428  17.070  0.00  0.00    +0.000 A 
ENDROOT
BRANCH   3   6
ATOM      6  C   UNL     1       5.929   4.414  14.081  0.00  0.00    +0.000 A 
ATOM      7  C   UNL     1       5.410   3.454  13.200  0.00  0.00    +0.000 A 
ATOM      8  C   UNL     1       6.076   3.165  12.006  0.00  0.00    +0.000 A 
ATOM      9  C   UNL     1       7.264   3.820  11.688  0.00  0.00    +0.000 A 
ATOM     10  C   UNL     1       7.794   4.764  12.565  0.00  0.00    +0.000 A 
ATOM     11  C   UNL     1       7.130   5.064  13.757  0.00  0.00    +0.000 A 
ENDBRANCH   3   6
BRANCH   5  12
ATOM     12  C   UNL     1       3.368   3.663  18.093  0.00  0.00    +0.000 A 
ATOM     13  C   UNL     1       3.900   3.428  19.365  0.00  0.00    +0.000 A 
ATOM     14  C   UNL     1       3.180   2.689  20.302  0.00  0.00    +0.000 A 
ATOM     15  C   UNL     1       1.947   2.182  19.933  0.00  0.00    +0.000 A 
ATOM     16  N   UNL     1       1.401   2.363  18.711  0.00  0.00    +0.000 NA
ATOM     17  C   UNL     1       2.124   3.097  17.824  0.00  0.00    +0.000 A 
ENDBRANCH   5  12
BRANCH   1  19
ATOM     18  O   UNL     1       4.671   7.374  18.730  0.00  0.00    +0.000 OA
ATOM     19  C   UNL     1       3.901   6.872  17.919  0.00  0.00    +0.000 C 
ATOM     20  N   UNL     1       2.560   7.191  17.806  0.00  0.00    +0.000 N 
ATOM     21  H   UNL     1       1.979   6.613  17.217  0.00  0.00    +0.000 HD
BRANCH  20  22
ATOM     22  C   UNL     1       1.893   8.179  18.575  0.00  0.00    +0.000 A 
ATOM     23  C   UNL     1       1.471   9.405  18.024  0.00  0.00    +0.000 A 
ATOM     24  C   UNL     1       0.913  10.409  18.815  0.00  0.00    +0.000 A 
ATOM     25  C   UNL     1       0.762  10.165  20.163  0.00  0.00    +0.000 A 
ATOM     26  C   UNL     1       1.129   8.936  20.721  0.00  0.00    +0.000 A 
ATOM     27  C   UNL     1       1.679   7.929  19.938  0.00  0.00    +0.000 A 
ATOM     28  C   UNL     1       0.930   8.962  22.206  0.00  0.00    +0.000 C 
ATOM     29  C   UNL     1      -0.018  10.162  22.365  0.00  0.00    +0.000 C 
ATOM     30  C   UNL     1       0.293  11.123  21.211  0.00  0.00    +0.000 C 
ENDBRANCH  20  22
ENDBRANCH   1  19
TORSDOF 4
ENDMDL
