MODEL 1
REMARK VINA RESULT:      -8.6      0.000      0.000
REMARK  Name = 
REMARK  6 active torsions:
REMARK  status: ('A' for Active; 'I' for Inactive)
REMARK    1  A    between atoms: C_1  and  C_2
REMARK    2  A    between atoms: C_2  and  C_3
REMARK    3  A    between atoms: C_11  and  C_13
REMARK    4  A    between atoms: C_15  and  O_16
REMARK    5  A    between atoms: C_17  and  O_18
REMARK    6  A    between atoms: C_19  and  O_20
REMARK                            x       y       z     vdW  Elec       q    Type
REMARK                         _______ _______ _______ _____ _____    ______ ____
ROOT
ATOM      1  C   UNL     1       5.219   6.378  15.675  0.00  0.00    +0.000 C 
ATOM      2  C   UNL     1       6.519   5.548  15.684  0.00  0.00    +0.000 C 
ATOM      3  C   UNL     1       6.586   4.421  16.745  0.00  0.00    +0.000 C 
ATOM      4  N   UNL     1       6.397   4.951  18.093  0.00  0.00    +0.000 N 
ATOM      5  C   UNL     1       5.334   4.835  18.979  0.00  0.00    +0.000 C 
ATOM      6  O   UNL     1       5.390   5.404  20.076  0.00  0.00    +0.000 OA
ATOM      7  C   UNL     1       7.493   5.876  18.410  0.00  0.00    +0.000 C 
ATOM      8  C   UNL     1       7.628   6.959  17.318  0.00  0.00    +0.000 C 
ATOM      9  O   UNL     1       7.631   6.440  15.969  0.00  0.00    +0.000 OA
ENDROOT
BRANCH   2  10
ATOM     10  C   UNL     1       6.681   4.876  14.308  0.00  0.00    +0.000 A 
ATOM     11  C   UNL     1       5.827   3.862  13.876  0.00  0.00    +0.000 A 
ATOM     12  C   UNL     1       5.946   3.326  12.588  0.00  0.00    +0.000 A 
ATOM     13  C   UNL     1       6.919   3.799  11.709  0.00  0.00    +0.000 A 
ATOM     14  C   UNL     1       7.789   4.803  12.118  0.00  0.00    +0.000 A 
ATOM     15  C   UNL     1       7.674   5.333  13.406  0.00  0.00    +0.000 A 
ENDBRANCH   2  10
BRANCH   5  16
ATOM     16  C   UNL     1       4.070   4.046  18.654  0.00  0.00    +0.000 C 
ATOM     17  C   UNL     1       4.211   2.731  18.401  0.00  0.00    +0.000 C 
ATOM     18  C   UNL     1       3.090   1.799  18.077  0.00  0.00    +0.000 C 
ATOM     19  C   UNL     1       1.662   2.291  18.410  0.00  0.00    +0.000 C 
ATOM     20  C   UNL     1       1.470   3.808  18.348  0.00  0.00    +0.000 C 
ATOM     21  C   UNL     1       2.717   4.659  18.613  0.00  0.00    +0.000 C 
BRANCH  18  22
ATOM     22  O   UNL     1       3.346   0.591  18.795  0.00  0.00    +0.000 OA
ATOM     23  H   UNL     1       4.060   0.137  18.301  0.00  0.00    +0.000 HD
ENDBRANCH  18  22
BRANCH  19  24
ATOM     24  O   UNL     1       1.290   1.789  19.714  0.00  0.00    +0.000 OA
ATOM     25  H   UNL     1       0.325   1.681  19.749  0.00  0.00    +0.000 HD
ENDBRANCH  19  24
BRANCH  20  26
ATOM     26  O   UNL     1       0.866   4.212  17.114  0.00  0.00    +0.000 OA
ATOM     27  H   UNL     1       0.322   5.003  17.263  0.00  0.00    +0.000 HD
ENDBRANCH  20  26
ENDBRANCH   5  16
TORSDOF 5
ENDMDL
MODEL 2
REMARK VINA RESULT:      -7.9      0.791      1.744
REMARK  Name = 
REMARK  6 active torsions:
REMARK  status: ('A' for Active; 'I' for Inactive)
REMARK    1  A    between atoms: C_1  and  C_2
REMARK    2  A    between atoms: C_2  and  C_3
REMARK    3  A    between atoms: C_11  and  C_13
REMARK    4  A    between atoms: C_15  and  O_16
REMARK    5  A    between atoms: C_17  and  O_18
REMARK    6  A    between atoms: C_19  and  O_20
REMARK                            x       y       z     vdW  Elec       q    Type
REMARK                         _______ _______ _______ _____ _____    ______ ____
ROOT
ATOM      1  C   UNL     1       5.111   6.255  15.856  0.00  0.00    +0.000 C 
ATOM      2  C   UNL     1       6.467   5.527  15.750  0.00  0.00    +0.000 C 
ATOM      3  C   UNL     1       6.736   4.454  16.835  0.00  0.00    +0.000 C 
ATOM      4  N   UNL     1       6.650   5.025  18.177  0.00  0.00    +0.000 N 
ATOM      5  C   UNL     1       5.701   4.868  19.178  0.00  0.00    +0.000 C 
ATOM      6  O   UNL     1       5.829   5.486  20.242  0.00  0.00    +0.000 OA
ATOM      7  C   UNL     1       7.698   6.043  18.339  0.00  0.00    +0.000 C 
ATOM      8  C   UNL     1       7.629   7.085  17.203  0.00  0.00    +0.000 C 
ATOM      9  O   UNL     1       7.528   6.512  15.880  0.00  0.00    +0.000 OA
ENDROOT
BRANCH   2  10
ATOM     10  C   UNL     1       6.533   4.811  14.388  0.00  0.00    +0.000 A 
ATOM     11  C   UNL     1       5.563   3.893  13.988  0.00  0.00    +0.000 A 
ATOM     12  C   UNL     1       5.604   3.319  12.712  0.00  0.00    +0.000 A 
ATOM     13  C   UNL     1       6.614   3.658  11.813  0.00  0.00    +0.000 A 
ATOM     14  C   UNL     1       7.598   4.563  12.190  0.00  0.00    +0.000 A 
ATOM     15  C   UNL     1       7.562   5.130  13.467  0.00  0.00    +0.000 A 
ENDBRANCH   2  10
BRANCH   5  16
ATOM     16  C   UNL     1       4.476   3.973  19.021  0.00  0.00    +0.000 C 
ATOM     17  C   UNL     1       3.436   4.200  19.846  0.00  0.00    +0.000 C 
ATOM     18  C   UNL     1       2.153   3.437  19.831  0.00  0.00    +0.000 C 
ATOM     19  C   UNL     1       1.865   2.590  18.569  0.00  0.00    +0.000 C 
ATOM     20  C   UNL     1       3.107   2.060  17.848  0.00  0.00    +0.000 C 
ATOM     21  C   UNL     1       4.387   2.887  18.011  0.00  0.00    +0.000 C 
BRANCH  18  22
ATOM     22  O   UNL     1       1.107   4.396  19.998  0.00  0.00    +0.000 OA
ATOM     23  H   UNL     1       1.017   4.841  19.130  0.00  0.00    +0.000 HD
ENDBRANCH  18  22
BRANCH  19  24
ATOM     24  O   UNL     1       1.050   3.370  17.664  0.00  0.00    +0.000 OA
ATOM     25  H   UNL     1       0.773   2.807  16.921  0.00  0.00    +0.000 HD
ENDBRANCH  19  24
BRANCH  20  26
ATOM     26  O   UNL     1       3.370   0.695  18.189  0.00  0.00    +0.000 OA
ATOM     27  H   UNL     1       4.310   0.499  18.039  0.00  0.00    +0.000 HD
ENDBRANCH  20  26
ENDBRANCH   5  16
TORSDOF 5
ENDMDL
MODEL 3
REMARK VINA RESULT:      -7.7      1.015      1.033
REMARK  Name = 
REMARK  6 active torsions:
REMARK  status: ('A' for Active; 'I' for Inactive)
REMARK    1  A    between atoms: C_1  and  C_2
REMARK    2  A    between atoms: C_2  and  C_3
REMARK    3  A    between atoms: C_11  and  C_13
REMARK    4  A    between atoms: C_15  and  O_16
REMARK    5  A    between atoms: C_17  and  O_18
REMARK    6  A    between atoms: C_19  and  O_20
REMARK                            x       y       z     vdW  Elec       q    Type
REMARK                         _______ _______ _______ _____ _____    ______ ____
ROOT
ATOM      1  C   UNL     1       5.162   6.388  15.830  0.00  0.00    +0.000 C 
ATOM      2  C   UNL     1       6.418   5.495  15.761  0.00  0.00    +0.000 C 
ATOM      3  C   UNL     1       6.522   4.402  16.855  0.00  0.00    +0.000 C 
ATOM      4  N   UNL     1       6.474   4.986  18.193  0.00  0.00    +0.000 N 
ATOM      5  C   UNL     1       5.488   4.953  19.169  0.00  0.00    +0.000 C 
ATOM      6  O   UNL     1       5.664   5.555  20.235  0.00  0.00    +0.000 OA
ATOM      7  C   UNL     1       7.637   5.865  18.381  0.00  0.00    +0.000 C 
ATOM      8  C   UNL     1       7.728   6.902  17.242  0.00  0.00    +0.000 C 
ATOM      9  O   UNL     1       7.590   6.340  15.918  0.00  0.00    +0.000 OA
ENDROOT
BRANCH   2  10
ATOM     10  C   UNL     1       6.429   4.770  14.403  0.00  0.00    +0.000 A 
ATOM     11  C   UNL     1       5.408   3.902  14.020  0.00  0.00    +0.000 A 
ATOM     12  C   UNL     1       5.402   3.320  12.747  0.00  0.00    +0.000 A 
ATOM     13  C   UNL     1       6.417   3.602  11.833  0.00  0.00    +0.000 A 
ATOM     14  C   UNL     1       7.451   4.457  12.193  0.00  0.00    +0.000 A 
ATOM     15  C   UNL     1       7.460   5.031  13.466  0.00  0.00    +0.000 A 
ENDBRANCH   2  10
BRANCH   5  16
ATOM     16  C   UNL     1       4.165   4.218  18.981  0.00  0.00    +0.000 C 
ATOM     17  C   UNL     1       3.891   3.211  19.833  0.00  0.00    +0.000 C 
ATOM     18  C   UNL     1       2.645   2.389  19.811  0.00  0.00    +0.000 C 
ATOM     19  C   UNL     1       1.453   2.959  19.007  0.00  0.00    +0.000 C 
ATOM     20  C   UNL     1       1.838   3.841  17.817  0.00  0.00    +0.000 C 
ATOM     21  C   UNL     1       3.184   4.567  17.920  0.00  0.00    +0.000 C 
BRANCH  18  22
ATOM     22  O   UNL     1       2.249   2.215  21.173  0.00  0.00    +0.000 OA
ATOM     23  H   UNL     1       3.077   2.255  21.695  0.00  0.00    +0.000 HD
ENDBRANCH  18  22
BRANCH  19  24
ATOM     24  O   UNL     1       0.588   3.684  19.912  0.00  0.00    +0.000 OA
ATOM     25  H   UNL     1       0.517   3.191  20.746  0.00  0.00    +0.000 HD
ENDBRANCH  19  24
BRANCH  20  26
ATOM     26  O   UNL     1       1.777   3.115  16.584  0.00  0.00    +0.000 OA
ATOM     27  H   UNL     1       1.507   3.715  15.868  0.00  0.00    +0.000 HD
ENDBRANCH  20  26
ENDBRANCH   5  16
TORSDOF 5
ENDMDL
MODEL 4
REMARK VINA RESULT:      -7.5      0.877      1.726
REMARK  Name = 
REMARK  6 active torsions:
REMARK  status: ('A' for Active; 'I' for Inactive)
REMARK    1  A    between atoms: C_1  and  C_2
REMARK    2  A    between atoms: C_2  and  C_3
REMARK    3  A    between atoms: C_11  and  C_13
REMARK    4  A    between atoms: C_15  and  O_16
REMARK    5  A    between atoms: C_17  and  O_18
REMARK    6  A    between atoms: C_19  and  O_20
REMARK                            x       y       z     vdW  Elec       q    Type
REMARK                         _______ _______ _______ _____ _____    ______ ____
ROOT
ATOM      1  C   UNL     1       5.011   6.231  15.841  0.00  0.00    +0.000 C 
ATOM      2  C   UNL     1       6.256   5.332  15.700  0.00  0.00    +0.000 C 
ATOM      3  C   UNL     1       6.424   4.247  16.794  0.00  0.00    +0.000 C 
ATOM      4  N   UNL     1       6.463   4.841  18.128  0.00  0.00    +0.000 N 
ATOM      5  C   UNL     1       5.539   4.821  19.164  0.00  0.00    +0.000 C 
ATOM      6  O   UNL     1       5.785   5.431  20.211  0.00  0.00    +0.000 OA
ATOM      7  C   UNL     1       7.638   5.716  18.235  0.00  0.00    +0.000 C 
ATOM      8  C   UNL     1       7.663   6.744  17.084  0.00  0.00    +0.000 C 
ATOM      9  O   UNL     1       7.440   6.172  15.776  0.00  0.00    +0.000 OA
ENDROOT
BRANCH   2  10
ATOM     10  C   UNL     1       6.178   4.596  14.350  0.00  0.00    +0.000 A 
ATOM     11  C   UNL     1       5.028   3.923  13.939  0.00  0.00    +0.000 A 
ATOM     12  C   UNL     1       4.958   3.333  12.672  0.00  0.00    +0.000 A 
ATOM     13  C   UNL     1       6.036   3.410  11.792  0.00  0.00    +0.000 A 
ATOM     14  C   UNL     1       7.197   4.067  12.180  0.00  0.00    +0.000 A 
ATOM     15  C   UNL     1       7.270   4.649  13.447  0.00  0.00    +0.000 A 
ENDBRANCH   2  10
BRANCH   5  16
ATOM     16  C   UNL     1       4.204   4.091  19.066  0.00  0.00    +0.000 C 
ATOM     17  C   UNL     1       3.307   4.561  18.178  0.00  0.00    +0.000 C 
ATOM     18  C   UNL     1       1.957   3.971  17.935  0.00  0.00    +0.000 C 
ATOM     19  C   UNL     1       1.723   2.537  18.463  0.00  0.00    +0.000 C 
ATOM     20  C   UNL     1       2.534   2.164  19.706  0.00  0.00    +0.000 C 
ATOM     21  C   UNL     1       3.864   2.902  19.892  0.00  0.00    +0.000 C 
BRANCH  18  22
ATOM     22  O   UNL     1       1.756   3.987  16.521  0.00  0.00    +0.000 OA
ATOM     23  H   UNL     1       1.582   3.056  16.270  0.00  0.00    +0.000 HD
ENDBRANCH  18  22
BRANCH  19  24
ATOM     24  O   UNL     1       1.982   1.600  17.392  0.00  0.00    +0.000 OA
ATOM     25  H   UNL     1       2.739   1.915  16.871  0.00  0.00    +0.000 HD
ENDBRANCH  19  24
BRANCH  20  26
ATOM     26  O   UNL     1       1.751   2.278  20.899  0.00  0.00    +0.000 OA
ATOM     27  H   UNL     1       1.618   1.396  21.285  0.00  0.00    +0.000 HD
ENDBRANCH  20  26
ENDBRANCH   5  16
TORSDOF 5
ENDMDL
MODEL 5
REMARK VINA RESULT:      -7.0      2.948      6.688
REMARK  Name = 
REMARK  6 active torsions:
REMARK  status: ('A' for Active; 'I' for Inactive)
REMARK    1  A    between atoms: C_1  and  C_2
REMARK    2  A    between atoms: C_2  and  C_3
REMARK    3  A    between atoms: C_11  and  C_13
REMARK    4  A    between atoms: C_15  and  O_16
REMARK    5  A    between atoms: C_17  and  O_18
REMARK    6  A    between atoms: C_19  and  O_20
REMARK                            x       y       z     vdW  Elec       q    Type
REMARK                         _______ _______ _______ _____ _____    ______ ____
ROOT
ATOM      1  C   UNL     1       1.670   5.274  17.937  0.00  0.00    +0.000 C 
ATOM      2  C   UNL     1       1.878   5.908  19.328  0.00  0.00    +0.000 C 
ATOM      3  C   UNL     1       3.226   5.579  20.018  0.00  0.00    +0.000 C 
ATOM      4  N   UNL     1       3.409   4.137  20.163  0.00  0.00    +0.000 N 
ATOM      5  C   UNL     1       4.265   3.255  19.519  0.00  0.00    +0.000 C 
ATOM      6  O   UNL     1       4.220   2.050  19.794  0.00  0.00    +0.000 OA
ATOM      7  C   UNL     1       2.359   3.600  21.040  0.00  0.00    +0.000 C 
ATOM      8  C   UNL     1       0.960   4.013  20.535  0.00  0.00    +0.000 C 
ATOM      9  O   UNL     1       0.837   5.417  20.216  0.00  0.00    +0.000 OA
ENDROOT
BRANCH   2  10
ATOM     10  C   UNL     1       1.813   7.440  19.183  0.00  0.00    +0.000 A 
ATOM     11  C   UNL     1       2.155   8.085  17.996  0.00  0.00    +0.000 A 
ATOM     12  C   UNL     1       2.008   9.471  17.866  0.00  0.00    +0.000 A 
ATOM     13  C   UNL     1       1.511  10.234  18.921  0.00  0.00    +0.000 A 
ATOM     14  C   UNL     1       1.171   9.617  20.119  0.00  0.00    +0.000 A 
ATOM     15  C   UNL     1       1.325   8.234  20.251  0.00  0.00    +0.000 A 
ENDBRANCH   2  10
BRANCH   5  16
ATOM     16  C   UNL     1       5.261   3.701  18.453  0.00  0.00    +0.000 C 
ATOM     17  C   UNL     1       4.910   3.520  17.165  0.00  0.00    +0.000 C 
ATOM     18  C   UNL     1       5.747   3.906  15.991  0.00  0.00    +0.000 C 
ATOM     19  C   UNL     1       6.908   4.891  16.260  0.00  0.00    +0.000 C 
ATOM     20  C   UNL     1       7.509   4.813  17.666  0.00  0.00    +0.000 C 
ATOM     21  C   UNL     1       6.574   4.320  18.775  0.00  0.00    +0.000 C 
BRANCH  18  22
ATOM     22  O   UNL     1       4.859   4.482  15.031  0.00  0.00    +0.000 OA
ATOM     23  H   UNL     1       4.810   3.835  14.297  0.00  0.00    +0.000 HD
ENDBRANCH  18  22
BRANCH  19  24
ATOM     24  O   UNL     1       6.451   6.234  15.980  0.00  0.00    +0.000 OA
ATOM     25  H   UNL     1       5.490   6.277  16.116  0.00  0.00    +0.000 HD
ENDBRANCH  19  24
BRANCH  20  26
ATOM     26  O   UNL     1       8.718   4.045  17.679  0.00  0.00    +0.000 OA
ATOM     27  H   UNL     1       8.793   3.546  16.849  0.00  0.00    +0.000 HD
ENDBRANCH  20  26
ENDBRANCH   5  16
TORSDOF 5
ENDMDL
MODEL 6
REMARK VINA RESULT:      -6.8      3.017      6.977
REMARK  Name = 
REMARK  6 active torsions:
REMARK  status: ('A' for Active; 'I' for Inactive)
REMARK    1  A    between atoms: C_1  and  C_2
REMARK    2  A    between atoms: C_2  and  C_3
REMARK    3  A    between atoms: C_11  and  C_13
REMARK    4  A    between atoms: C_15  and  O_16
REMARK    5  A    between atoms: C_17  and  O_18
REMARK    6  A    between atoms: C_19  and  O_20
REMARK                            x       y       z     vdW  Elec       q    Type
REMARK                         _______ _______ _______ _____ _____    ______ ____
ROOT
ATOM      1  C   UNL     1       1.401   5.570  18.188  0.00  0.00    +0.000 C 
ATOM      2  C   UNL     1       1.734   5.888  19.659  0.00  0.00    +0.000 C 
ATOM      3  C   UNL     1       3.170   5.520  20.114  0.00  0.00    +0.000 C 
ATOM      4  N   UNL     1       3.445   4.101  19.900  0.00  0.00    +0.000 N 
ATOM      5  C   UNL     1       4.267   3.458  18.985  0.00  0.00    +0.000 C 
ATOM      6  O   UNL     1       4.320   2.223  18.975  0.00  0.00    +0.000 OA
ATOM      7  C   UNL     1       2.535   3.300  20.729  0.00  0.00    +0.000 C 
ATOM      8  C   UNL     1       1.066   3.703  20.478  0.00  0.00    +0.000 C 
ATOM      9  O   UNL     1       0.832   5.129  20.509  0.00  0.00    +0.000 OA
ENDROOT
BRANCH   2  10
ATOM     10  C   UNL     1       1.571   7.403  19.883  0.00  0.00    +0.000 A 
ATOM     11  C   UNL     1       1.725   8.324  18.847  0.00  0.00    +0.000 A 
ATOM     12  C   UNL     1       1.489   9.687  19.061  0.00  0.00    +0.000 A 
ATOM     13  C   UNL     1       1.090  10.151  20.313  0.00  0.00    +0.000 A 
ATOM     14  C   UNL     1       0.938   9.255  21.364  0.00  0.00    +0.000 A 
ATOM     15  C   UNL     1       1.180   7.896  21.153  0.00  0.00    +0.000 A 
ENDBRANCH   2  10
BRANCH   5  16
ATOM     16  C   UNL     1       5.107   4.211  17.958  0.00  0.00    +0.000 C 
ATOM     17  C   UNL     1       6.424   4.338  18.210  0.00  0.00    +0.000 C 
ATOM     18  C   UNL     1       7.401   5.028  17.317  0.00  0.00    +0.000 C 
ATOM     19  C   UNL     1       6.946   5.290  15.862  0.00  0.00    +0.000 C 
ATOM     20  C   UNL     1       5.438   5.482  15.681  0.00  0.00    +0.000 C 
ATOM     21  C   UNL     1       4.539   4.794  16.713  0.00  0.00    +0.000 C 
BRANCH  18  22
ATOM     22  O   UNL     1       8.578   4.219  17.299  0.00  0.00    +0.000 OA
ATOM     23  H   UNL     1       9.240   4.728  16.787  0.00  0.00    +0.000 HD
ENDBRANCH  18  22
BRANCH  19  24
ATOM     24  O   UNL     1       7.420   4.209  15.026  0.00  0.00    +0.000 OA
ATOM     25  H   UNL     1       7.716   3.476  15.592  0.00  0.00    +0.000 HD
ENDBRANCH  19  24
BRANCH  20  26
ATOM     26  O   UNL     1       5.092   6.869  15.591  0.00  0.00    +0.000 OA
ATOM     27  H   UNL     1       4.716   7.164  16.437  0.00  0.00    +0.000 HD
ENDBRANCH  20  26
ENDBRANCH   5  16
TORSDOF 5
ENDMDL
MODEL 7
REMARK VINA RESULT:      -6.7      2.830      5.078
REMARK  Name = 
REMARK  6 active torsions:
REMARK  status: ('A' for Active; 'I' for Inactive)
REMARK    1  A    between atoms: C_1  and  C_2
REMARK    2  A    between atoms: C_2  and  C_3
REMARK    3  A    between atoms: C_11  and  C_13
REMARK    4  A    between atoms: C_15  and  O_16
REMARK    5  A    between atoms: C_17  and  O_18
REMARK    6  A    between atoms: C_19  and  O_20
REMARK                            x       y       z     vdW  Elec       q    Type
REMARK                         _______ _______ _______ _____ _____    ______ ____
ROOT
ATOM      1  C   UNL     1       5.044   4.082  19.148  0.00  0.00    +0.000 C 
ATOM      2  C   UNL     1       4.428   3.614  17.814  0.00  0.00    +0.000 C 
ATOM      3  C   UNL     1       2.989   4.115  17.529  0.00  0.00    +0.000 C 
ATOM      4  N   UNL     1       2.071   3.722  18.596  0.00  0.00    +0.000 N 
ATOM      5  C   UNL     1       1.442   4.471  19.582  0.00  0.00    +0.000 C 
ATOM      6  O   UNL     1       0.716   3.905  20.407  0.00  0.00    +0.000 OA
ATOM      7  C   UNL     1       1.990   2.256  18.652  0.00  0.00    +0.000 C 
ATOM      8  C   UNL     1       3.398   1.634  18.768  0.00  0.00    +0.000 C 
ATOM      9  O   UNL     1       4.357   2.162  17.825  0.00  0.00    +0.000 OA
ENDROOT
BRANCH   2  10
ATOM     10  C   UNL     1       5.313   4.122  16.661  0.00  0.00    +0.000 A 
ATOM     11  C   UNL     1       6.588   4.642  16.881  0.00  0.00    +0.000 A 
ATOM     12  C   UNL     1       7.402   5.020  15.807  0.00  0.00    +0.000 A 
ATOM     13  C   UNL     1       6.956   4.878  14.494  0.00  0.00    +0.000 A 
ATOM     14  C   UNL     1       5.687   4.371  14.247  0.00  0.00    +0.000 A 
ATOM     15  C   UNL     1       4.871   4.001  15.319  0.00  0.00    +0.000 A 
ENDBRANCH   2  10
BRANCH   5  16
ATOM     16  C   UNL     1       1.622   5.980  19.713  0.00  0.00    +0.000 C 
ATOM     17  C   UNL     1       2.277   6.613  18.722  0.00  0.00    +0.000 C 
ATOM     18  C   UNL     1       2.537   8.082  18.672  0.00  0.00    +0.000 C 
ATOM     19  C   UNL     1       1.695   8.967  19.620  0.00  0.00    +0.000 C 
ATOM     20  C   UNL     1       1.255   8.287  20.919  0.00  0.00    +0.000 C 
ATOM     21  C   UNL     1       1.107   6.762  20.868  0.00  0.00    +0.000 C 
BRANCH  18  22
ATOM     22  O   UNL     1       2.303   8.490  17.323  0.00  0.00    +0.000 OA
ATOM     23  H   UNL     1       1.980   7.691  16.858  0.00  0.00    +0.000 HD
ENDBRANCH  18  22
BRANCH  19  24
ATOM     24  O   UNL     1       0.545   9.461  18.895  0.00  0.00    +0.000 OA
ATOM     25  H   UNL     1       0.505   9.024  18.028  0.00  0.00    +0.000 HD
ENDBRANCH  19  24
BRANCH  20  26
ATOM     26  O   UNL     1       2.100   8.651  22.016  0.00  0.00    +0.000 OA
ATOM     27  H   UNL     1       2.339   9.590  21.942  0.00  0.00    +0.000 HD
ENDBRANCH  20  26
ENDBRANCH   5  16
TORSDOF 5
ENDMDL
MODEL 8
REMARK VINA RESULT:      -6.7      2.880      7.151
REMARK  Name = 
REMARK  6 active torsions:
REMARK  status: ('A' for Active; 'I' for Inactive)
REMARK    1  A    between atoms: C_1  and  C_2
REMARK    2  A    between atoms: C_2  and  C_3
REMARK    3  A    between atoms: C_11  and  C_13
REMARK    4  A    between atoms: C_15  and  O_16
REMARK    5  A    between atoms: C_17  and  O_18
REMARK    6  A    between atoms: C_19  and  O_20
REMARK                            x       y       z     vdW  Elec       q    Type
REMARK                         _______ _______ _______ _____ _____    ______ ____
ROOT
ATOM      1  C   UNL     1       1.889   5.557  18.080  0.00  0.00    +0.000 C 
ATOM      2  C   UNL     1       1.833   5.711  19.613  0.00  0.00    +0.000 C 
ATOM      3  C   UNL     1       3.121   5.304  20.373  0.00  0.00    +0.000 C 
ATOM      4  N   UNL     1       3.490   3.920  20.086  0.00  0.00    +0.000 N 
ATOM      5  C   UNL     1       4.537   3.389  19.345  0.00  0.00    +0.000 C 
ATOM      6  O   UNL     1       4.633   2.163  19.217  0.00  0.00    +0.000 OA
ATOM      7  C   UNL     1       2.430   3.024  20.569  0.00  0.00    +0.000 C 
ATOM      8  C   UNL     1       1.058   3.443  20.000  0.00  0.00    +0.000 C 
ATOM      9  O   UNL     1       0.774   4.855  20.122  0.00  0.00    +0.000 OA
ENDROOT
BRANCH   2  10
ATOM     10  C   UNL     1       1.566   7.190  19.948  0.00  0.00    +0.000 A 
ATOM     11  C   UNL     1       1.692   8.198  18.993  0.00  0.00    +0.000 A 
ATOM     12  C   UNL     1       1.363   9.523  19.304  0.00  0.00    +0.000 A 
ATOM     13  C   UNL     1       0.899   9.860  20.574  0.00  0.00    +0.000 A 
ATOM     14  C   UNL     1       0.773   8.876  21.546  0.00  0.00    +0.000 A 
ATOM     15  C   UNL     1       1.108   7.555  21.238  0.00  0.00    +0.000 A 
ENDBRANCH   2  10
BRANCH   5  16
ATOM     16  C   UNL     1       5.580   4.257  18.648  0.00  0.00    +0.000 C 
ATOM     17  C   UNL     1       5.918   3.925  17.388  0.00  0.00    +0.000 C 
ATOM     18  C   UNL     1       6.907   4.663  16.548  0.00  0.00    +0.000 C 
ATOM     19  C   UNL     1       7.287   6.088  17.014  0.00  0.00    +0.000 C 
ATOM     20  C   UNL     1       7.211   6.315  18.526  0.00  0.00    +0.000 C 
ATOM     21  C   UNL     1       6.219   5.435  19.293  0.00  0.00    +0.000 C 
BRANCH  18  22
ATOM     22  O   UNL     1       6.350   4.736  15.234  0.00  0.00    +0.000 OA
ATOM     23  H   UNL     1       5.444   4.370  15.311  0.00  0.00    +0.000 HD
ENDBRANCH  18  22
BRANCH  19  24
ATOM     24  O   UNL     1       6.452   7.042  16.318  0.00  0.00    +0.000 OA
ATOM     25  H   UNL     1       5.529   6.917  16.594  0.00  0.00    +0.000 HD
ENDBRANCH  19  24
BRANCH  20  26
ATOM     26  O   UNL     1       8.503   6.227  19.136  0.00  0.00    +0.000 OA
ATOM     27  H   UNL     1       8.866   5.336  18.999  0.00  0.00    +0.000 HD
ENDBRANCH  20  26
ENDBRANCH   5  16
TORSDOF 5
ENDMDL
MODEL 9
REMARK VINA RESULT:      -6.6      2.877      6.647
REMARK  Name = 
REMARK  6 active torsions:
REMARK  status: ('A' for Active; 'I' for Inactive)
REMARK    1  A    between atoms: C_1  and  C_2
REMARK    2  A    between atoms: C_2  and  C_3
REMARK    3  A    between atoms: C_11  and  C_13
REMARK    4  A    between atoms: C_15  and  O_16
REMARK    5  A    between atoms: C_17  and  O_18
REMARK    6  A    between atoms: C_19  and  O_20
REMARK                            x       y       z     vdW  Elec       q    Type
REMARK                         _______ _______ _______ _____ _____    ______ ____
ROOT
ATOM      1  C   UNL     1       1.628   5.026  18.029  0.00  0.00    +0.000 C 
ATOM      2  C   UNL     1       1.851   5.673  19.410  0.00  0.00    +0.000 C 
ATOM      3  C   UNL     1       3.241   5.423  20.050  0.00  0.00    +0.000 C 
ATOM      4  N   UNL     1       3.510   3.994  20.189  0.00  0.00    +0.000 N 
ATOM      5  C   UNL     1       4.391   3.160  19.513  0.00  0.00    +0.000 C 
ATOM      6  O   UNL     1       4.424   1.956  19.790  0.00  0.00    +0.000 OA
ATOM      7  C   UNL     1       2.525   3.401  21.104  0.00  0.00    +0.000 C 
ATOM      8  C   UNL     1       1.088   3.732  20.651  0.00  0.00    +0.000 C 
ATOM      9  O   UNL     1       0.874   5.127  20.337  0.00  0.00    +0.000 OA
ENDROOT
BRANCH   2  10
ATOM     10  C   UNL     1       1.694   7.199  19.268  0.00  0.00    +0.000 A 
ATOM     11  C   UNL     1       1.287   8.003  20.331  0.00  0.00    +0.000 A 
ATOM     12  C   UNL     1       1.232   9.395  20.196  0.00  0.00    +0.000 A 
ATOM     13  C   UNL     1       1.590  10.007  18.996  0.00  0.00    +0.000 A 
ATOM     14  C   UNL     1       1.991   9.228  17.917  0.00  0.00    +0.000 A 
ATOM     15  C   UNL     1       2.039   7.838  18.050  0.00  0.00    +0.000 A 
ENDBRANCH   2  10
BRANCH   5  16
ATOM     16  C   UNL     1       5.319   3.660  18.411  0.00  0.00    +0.000 C 
ATOM     17  C   UNL     1       4.927   3.465  17.137  0.00  0.00    +0.000 C 
ATOM     18  C   UNL     1       5.696   3.895  15.932  0.00  0.00    +0.000 C 
ATOM     19  C   UNL     1       6.815   4.938  16.160  0.00  0.00    +0.000 C 
ATOM     20  C   UNL     1       7.475   4.888  17.541  0.00  0.00    +0.000 C 
ATOM     21  C   UNL     1       6.611   4.345  18.683  0.00  0.00    +0.000 C 
BRANCH  18  22
ATOM     22  O   UNL     1       4.743   4.427  15.011  0.00  0.00    +0.000 OA
ATOM     23  H   UNL     1       4.001   3.788  15.001  0.00  0.00    +0.000 HD
ENDBRANCH  18  22
BRANCH  19  24
ATOM     24  O   UNL     1       6.279   6.257  15.905  0.00  0.00    +0.000 OA
ATOM     25  H   UNL     1       5.346   6.176  15.645  0.00  0.00    +0.000 HD
ENDBRANCH  19  24
BRANCH  20  26
ATOM     26  O   UNL     1       8.720   4.183  17.503  0.00  0.00    +0.000 OA
ATOM     27  H   UNL     1       8.596   3.329  17.057  0.00  0.00    +0.000 HD
ENDBRANCH  20  26
ENDBRANCH   5  16
TORSDOF 5
ENDMDL
