MODEL 1
REMARK VINA RESULT:      -8.5      0.000      0.000
REMARK  Name = 
REMARK  5 active torsions:
REMARK  status: ('A' for Active; 'I' for Inactive)
REMARK    1  A    between atoms: C_1  and  C_2
REMARK    2  A    between atoms: C_5  and  C_6
REMARK    3  A    between atoms: C_10  and  C_11
REMARK    4  A    between atoms: N_13  and  C_14
REMARK    5  A    between atoms: N_17  and  C_18
REMARK                            x       y       z     vdW  Elec       q    Type
REMARK                         _______ _______ _______ _____ _____    ______ ____
ROOT
ATOM      1  C   UNL     1       2.028   8.650  18.111  0.00  0.00    +0.000 C 
ATOM      2  O   UNL     1       2.285   9.251  17.075  0.00  0.00    +0.000 OA
ATOM      3  N   UNL     1       1.096   9.091  19.032  0.00  0.00    +0.000 N 
ATOM      4  H   UNL     1       1.076   8.688  19.961  0.00  0.00    +0.000 HD
ENDROOT
BRANCH   1   9
ATOM      5  C   UNL     1       4.472   5.767  17.813  0.00  0.00    +0.000 A 
ATOM      6  C   UNL     1       4.192   5.060  18.993  0.00  0.00    +0.000 A 
ATOM      7  C   UNL     1       3.212   5.507  19.883  0.00  0.00    +0.000 A 
ATOM      8  C   UNL     1       2.499   6.674  19.612  0.00  0.00    +0.000 A 
ATOM      9  C   UNL     1       2.767   7.399  18.445  0.00  0.00    +0.000 A 
ATOM     10  C   UNL     1       3.738   6.932  17.542  0.00  0.00    +0.000 A 
BRANCH   5  15
ATOM     11  C   UNL     1       6.382   4.006  13.757  0.00  0.00    +0.000 C 
ATOM     12  C   UNL     1       6.377   4.520  15.136  0.00  0.00    +0.000 A 
ATOM     13  N   UNL     1       7.387   4.792  15.933  0.00  0.00    +0.000 NA
ATOM     14  N   UNL     1       6.836   5.289  17.095  0.00  0.00    +0.000 NA
ATOM     15  C   UNL     1       5.527   5.284  16.928  0.00  0.00    +0.000 A 
ATOM     16  O   UNL     1       5.160   4.799  15.699  0.00  0.00    +0.000 OA
ENDBRANCH   5  15
ENDBRANCH   1   9
BRANCH   3  17
ATOM     17  C   UNL     1       0.384  10.357  18.839  0.00  0.00    +0.000 C 
ATOM     18  C   UNL     1       1.216  11.551  19.301  0.00  0.00    +0.000 C 
ATOM     19  C   UNL     1       0.975  11.582  20.806  0.00  0.00    +0.000 C 
ATOM     20  N   UNL     1      -0.397  11.083  20.989  0.00  0.00    +0.000 N 
ATOM     21  C   UNL     1      -0.875  10.483  19.723  0.00  0.00    +0.000 C 
BRANCH  20  22
ATOM     22  C   UNL     1      -1.360  11.889  21.621  0.00  0.00    +0.000 A 
ATOM     23  C   UNL     1      -1.892  13.076  21.084  0.00  0.00    +0.000 A 
ATOM     24  F   UNL     1      -1.554  13.480  19.850  0.00  0.00    +0.000 F 
ATOM     25  C   UNL     1      -2.821  13.861  21.778  0.00  0.00    +0.000 A 
ATOM     26  C   UNL     1      -3.265  13.470  23.038  0.00  0.00    +0.000 A 
ATOM     27  C   UNL     1      -2.792  12.281  23.584  0.00  0.00    +0.000 A 
ATOM     28  C   UNL     1      -1.865  11.507  22.879  0.00  0.00    +0.000 A 
ATOM     29  F   UNL     1      -1.441  10.366  23.450  0.00  0.00    +0.000 F 
ENDBRANCH  20  22
ENDBRANCH   3  17
TORSDOF 4
ENDMDL
MODEL 2
REMARK VINA RESULT:      -8.3      0.278      1.578
REMARK  Name = 
REMARK  5 active torsions:
REMARK  status: ('A' for Active; 'I' for Inactive)
REMARK    1  A    between atoms: C_1  and  C_2
REMARK    2  A    between atoms: C_5  and  C_6
REMARK    3  A    between atoms: C_10  and  C_11
REMARK    4  A    between atoms: N_13  and  C_14
REMARK    5  A    between atoms: N_17  and  C_18
REMARK                            x       y       z     vdW  Elec       q    Type
REMARK                         _______ _______ _______ _____ _____    ______ ____
ROOT
ATOM      1  C   UNL     1       1.995   8.679  18.177  0.00  0.00    +0.000 C 
ATOM      2  O   UNL     1       2.233   9.221  17.104  0.00  0.00    +0.000 OA
ATOM      3  N   UNL     1       1.109   9.193  19.106  0.00  0.00    +0.000 N 
ATOM      4  H   UNL     1       1.110   8.836  20.054  0.00  0.00    +0.000 HD
ENDROOT
BRANCH   1   9
ATOM      5  C   UNL     1       4.417   5.768  17.991  0.00  0.00    +0.000 A 
ATOM      6  C   UNL     1       4.084   5.072  19.164  0.00  0.00    +0.000 A 
ATOM      7  C   UNL     1       3.075   5.535  20.013  0.00  0.00    +0.000 A 
ATOM      8  C   UNL     1       2.386   6.708  19.707  0.00  0.00    +0.000 A 
ATOM      9  C   UNL     1       2.707   7.422  18.547  0.00  0.00    +0.000 A 
ATOM     10  C   UNL     1       3.706   6.939  17.685  0.00  0.00    +0.000 A 
BRANCH   5  15
ATOM     11  C   UNL     1       6.526   4.236  13.941  0.00  0.00    +0.000 C 
ATOM     12  C   UNL     1       6.439   4.605  15.363  0.00  0.00    +0.000 A 
ATOM     13  N   UNL     1       7.390   4.685  16.269  0.00  0.00    +0.000 NA
ATOM     14  N   UNL     1       6.781   5.117  17.428  0.00  0.00    +0.000 NA
ATOM     15  C   UNL     1       5.500   5.269  17.151  0.00  0.00    +0.000 A 
ATOM     16  O   UNL     1       5.207   4.952  15.849  0.00  0.00    +0.000 OA
ENDBRANCH   5  15
ENDBRANCH   1   9
BRANCH   3  17
ATOM     17  C   UNL     1       0.430  10.470  18.875  0.00  0.00    +0.000 C 
ATOM     18  C   UNL     1       1.251  11.651  19.390  0.00  0.00    +0.000 C 
ATOM     19  C   UNL     1       0.921  11.682  20.877  0.00  0.00    +0.000 C 
ATOM     20  N   UNL     1      -0.467  11.204  20.977  0.00  0.00    +0.000 N 
ATOM     21  C   UNL     1      -0.878  10.614  19.683  0.00  0.00    +0.000 C 
BRANCH  20  22
ATOM     22  C   UNL     1      -1.453  12.024  21.553  0.00  0.00    +0.000 A 
ATOM     23  C   UNL     1      -2.073  11.785  22.793  0.00  0.00    +0.000 A 
ATOM     24  F   UNL     1      -1.684  10.761  23.567  0.00  0.00    +0.000 F 
ATOM     25  C   UNL     1      -3.080  12.616  23.299  0.00  0.00    +0.000 A 
ATOM     26  C   UNL     1      -3.492  13.735  22.579  0.00  0.00    +0.000 A 
ATOM     27  C   UNL     1      -2.873  14.025  21.367  0.00  0.00    +0.000 A 
ATOM     28  C   UNL     1      -1.869  13.187  20.875  0.00  0.00    +0.000 A 
ATOM     29  F   UNL     1      -1.302  13.513  19.701  0.00  0.00    +0.000 F 
ENDBRANCH  20  22
ENDBRANCH   3  17
TORSDOF 4
ENDMDL
MODEL 3
REMARK VINA RESULT:      -7.9      2.177      3.020
REMARK  Name = 
REMARK  5 active torsions:
REMARK  status: ('A' for Active; 'I' for Inactive)
REMARK    1  A    between atoms: C_1  and  C_2
REMARK    2  A    between atoms: C_5  and  C_6
REMARK    3  A    between atoms: C_10  and  C_11
REMARK    4  A    between atoms: N_13  and  C_14
REMARK    5  A    between atoms: N_17  and  C_18
REMARK                            x       y       z     vdW  Elec       q    Type
REMARK                         _______ _______ _______ _____ _____    ______ ____
ROOT
ATOM      1  C   UNL     1       2.335   8.641  18.146  0.00  0.00    +0.000 C 
ATOM      2  O   UNL     1       2.359   9.274  17.097  0.00  0.00    +0.000 OA
ATOM      3  N   UNL     1       1.681   9.080  19.282  0.00  0.00    +0.000 N 
ATOM      4  H   UNL     1       1.871   8.640  20.174  0.00  0.00    +0.000 HD
ENDROOT
BRANCH   1   9
ATOM      5  C   UNL     1       4.718   5.819  17.291  0.00  0.00    +0.000 A 
ATOM      6  C   UNL     1       4.484   4.942  18.361  0.00  0.00    +0.000 A 
ATOM      7  C   UNL     1       3.554   5.254  19.357  0.00  0.00    +0.000 A 
ATOM      8  C   UNL     1       2.847   6.454  19.302  0.00  0.00    +0.000 A 
ATOM      9  C   UNL     1       3.071   7.347  18.248  0.00  0.00    +0.000 A 
ATOM     10  C   UNL     1       3.990   7.017  17.237  0.00  0.00    +0.000 A 
BRANCH   5  15
ATOM     11  C   UNL     1       6.435   3.839  13.249  0.00  0.00    +0.000 C 
ATOM     12  C   UNL     1       6.482   4.609  14.502  0.00  0.00    +0.000 A 
ATOM     13  N   UNL     1       7.468   5.308  15.020  0.00  0.00    +0.000 NA
ATOM     14  N   UNL     1       6.975   5.868  16.180  0.00  0.00    +0.000 NA
ATOM     15  C   UNL     1       5.723   5.469  16.292  0.00  0.00    +0.000 A 
ATOM     16  O   UNL     1       5.340   4.655  15.256  0.00  0.00    +0.000 OA
ENDBRANCH   5  15
ENDBRANCH   1   9
BRANCH   3  17
ATOM     17  C   UNL     1       1.008  10.381  19.310  0.00  0.00    +0.000 C 
ATOM     18  C   UNL     1       0.161  10.554  20.569  0.00  0.00    +0.000 C 
ATOM     19  C   UNL     1      -1.134   9.831  20.218  0.00  0.00    +0.000 C 
ATOM     20  N   UNL     1      -1.301  10.014  18.768  0.00  0.00    +0.000 N 
ATOM     21  C   UNL     1      -0.043  10.542  18.192  0.00  0.00    +0.000 C 
BRANCH  20  22
ATOM     22  C   UNL     1      -2.451  10.648  18.267  0.00  0.00    +0.000 A 
ATOM     23  C   UNL     1      -3.182  11.641  18.945  0.00  0.00    +0.000 A 
ATOM     24  F   UNL     1      -2.758  12.116  20.125  0.00  0.00    +0.000 F 
ATOM     25  C   UNL     1      -4.346  12.209  18.413  0.00  0.00    +0.000 A 
ATOM     26  C   UNL     1      -4.811  11.809  17.162  0.00  0.00    +0.000 A 
ATOM     27  C   UNL     1      -4.092  10.859  16.445  0.00  0.00    +0.000 A 
ATOM     28  C   UNL     1      -2.932  10.301  16.988  0.00  0.00    +0.000 A 
ATOM     29  F   UNL     1      -2.272   9.389  16.254  0.00  0.00    +0.000 F 
ENDBRANCH  20  22
ENDBRANCH   3  17
TORSDOF 4
ENDMDL
MODEL 4
REMARK VINA RESULT:      -7.9      2.384      3.316
REMARK  Name = 
REMARK  5 active torsions:
REMARK  status: ('A' for Active; 'I' for Inactive)
REMARK    1  A    between atoms: C_1  and  C_2
REMARK    2  A    between atoms: C_5  and  C_6
REMARK    3  A    between atoms: C_10  and  C_11
REMARK    4  A    between atoms: N_13  and  C_14
REMARK    5  A    between atoms: N_17  and  C_18
REMARK                            x       y       z     vdW  Elec       q    Type
REMARK                         _______ _______ _______ _____ _____    ______ ____
ROOT
ATOM      1  C   UNL     1       1.863   6.019  20.291  0.00  0.00    +0.000 C 
ATOM      2  O   UNL     1       1.268   5.245  21.032  0.00  0.00    +0.000 OA
ATOM      3  N   UNL     1       1.847   7.391  20.460  0.00  0.00    +0.000 N 
ATOM      4  H   UNL     1       2.163   7.994  19.709  0.00  0.00    +0.000 HD
ENDROOT
BRANCH   1   9
ATOM      5  C   UNL     1       4.563   5.671  17.653  0.00  0.00    +0.000 A 
ATOM      6  C   UNL     1       4.085   4.567  16.930  0.00  0.00    +0.000 A 
ATOM      7  C   UNL     1       2.889   3.937  17.287  0.00  0.00    +0.000 A 
ATOM      8  C   UNL     1       2.155   4.396  18.379  0.00  0.00    +0.000 A 
ATOM      9  C   UNL     1       2.617   5.491  19.118  0.00  0.00    +0.000 A 
ATOM     10  C   UNL     1       3.807   6.136  18.741  0.00  0.00    +0.000 A 
BRANCH   5  15
ATOM     11  C   UNL     1       8.254   8.754  17.921  0.00  0.00    +0.000 C 
ATOM     12  C   UNL     1       7.470   7.627  17.390  0.00  0.00    +0.000 A 
ATOM     13  N   UNL     1       7.778   6.763  16.448  0.00  0.00    +0.000 NA
ATOM     14  N   UNL     1       6.716   5.886  16.369  0.00  0.00    +0.000 NA
ATOM     15  C   UNL     1       5.832   6.278  17.267  0.00  0.00    +0.000 A 
ATOM     16  O   UNL     1       6.245   7.392  17.955  0.00  0.00    +0.000 OA
ENDBRANCH   5  15
ENDBRANCH   1   9
BRANCH   3  17
ATOM     17  C   UNL     1       1.060   8.013  21.527  0.00  0.00    +0.000 C 
ATOM     18  C   UNL     1      -0.408   8.165  21.135  0.00  0.00    +0.000 C 
ATOM     19  C   UNL     1      -0.416   9.446  20.309  0.00  0.00    +0.000 C 
ATOM     20  N   UNL     1       0.642  10.288  20.889  0.00  0.00    +0.000 N 
ATOM     21  C   UNL     1       1.469   9.474  21.808  0.00  0.00    +0.000 C 
BRANCH  20  22
ATOM     22  C   UNL     1       0.327  11.559  21.401  0.00  0.00    +0.000 A 
ATOM     23  C   UNL     1      -0.646  11.810  22.386  0.00  0.00    +0.000 A 
ATOM     24  F   UNL     1      -1.301  10.799  22.974  0.00  0.00    +0.000 F 
ATOM     25  C   UNL     1      -0.945  13.104  22.829  0.00  0.00    +0.000 A 
ATOM     26  C   UNL     1      -0.260  14.199  22.309  0.00  0.00    +0.000 A 
ATOM     27  C   UNL     1       0.738  13.985  21.363  0.00  0.00    +0.000 A 
ATOM     28  C   UNL     1       1.026  12.688  20.930  0.00  0.00    +0.000 A 
ATOM     29  F   UNL     1       2.000  12.535  20.016  0.00  0.00    +0.000 F 
ENDBRANCH  20  22
ENDBRANCH   3  17
TORSDOF 4
ENDMDL
MODEL 5
REMARK VINA RESULT:      -7.9      2.553      3.654
REMARK  Name = 
REMARK  5 active torsions:
REMARK  status: ('A' for Active; 'I' for Inactive)
REMARK    1  A    between atoms: C_1  and  C_2
REMARK    2  A    between atoms: C_5  and  C_6
REMARK    3  A    between atoms: C_10  and  C_11
REMARK    4  A    between atoms: N_13  and  C_14
REMARK    5  A    between atoms: N_17  and  C_18
REMARK                            x       y       z     vdW  Elec       q    Type
REMARK                         _______ _______ _______ _____ _____    ______ ____
ROOT
ATOM      1  C   UNL     1       1.383   8.350  20.793  0.00  0.00    +0.000 C 
ATOM      2  O   UNL     1       1.459   8.536  22.002  0.00  0.00    +0.000 OA
ATOM      3  N   UNL     1       0.815   9.258  19.920  0.00  0.00    +0.000 N 
ATOM      4  H   UNL     1       0.578   8.972  18.978  0.00  0.00    +0.000 HD
ENDROOT
BRANCH   1   9
ATOM      5  C   UNL     1       3.231   5.965  18.498  0.00  0.00    +0.000 A 
ATOM      6  C   UNL     1       2.860   4.728  19.048  0.00  0.00    +0.000 A 
ATOM      7  C   UNL     1       2.009   4.659  20.155  0.00  0.00    +0.000 A 
ATOM      8  C   UNL     1       1.521   5.829  20.736  0.00  0.00    +0.000 A 
ATOM      9  C   UNL     1       1.884   7.073  20.208  0.00  0.00    +0.000 A 
ATOM     10  C   UNL     1       2.721   7.135  19.080  0.00  0.00    +0.000 A 
BRANCH   5  15
ATOM     11  C   UNL     1       5.901   4.147  14.924  0.00  0.00    +0.000 C 
ATOM     12  C   UNL     1       5.317   5.196  15.777  0.00  0.00    +0.000 A 
ATOM     13  N   UNL     1       5.390   6.504  15.665  0.00  0.00    +0.000 NA
ATOM     14  N   UNL     1       4.631   7.021  16.694  0.00  0.00    +0.000 NA
ATOM     15  C   UNL     1       4.149   5.992  17.363  0.00  0.00    +0.000 A 
ATOM     16  O   UNL     1       4.552   4.791  16.837  0.00  0.00    +0.000 OA
ENDBRANCH   5  15
ENDBRANCH   1   9
BRANCH   3  17
ATOM     17  C   UNL     1       0.211  10.501  20.410  0.00  0.00    +0.000 C 
ATOM     18  C   UNL     1      -0.991  10.919  19.566  0.00  0.00    +0.000 C 
ATOM     19  C   UNL     1      -0.352  11.633  18.380  0.00  0.00    +0.000 C 
ATOM     20  N   UNL     1       0.866  12.261  18.916  0.00  0.00    +0.000 N 
ATOM     21  C   UNL     1       1.143  11.723  20.267  0.00  0.00    +0.000 C 
BRANCH  20  22
ATOM     22  C   UNL     1       1.035  13.654  18.827  0.00  0.00    +0.000 A 
ATOM     23  C   UNL     1       0.050  14.606  19.150  0.00  0.00    +0.000 A 
ATOM     24  F   UNL     1      -1.131  14.223  19.659  0.00  0.00    +0.000 F 
ATOM     25  C   UNL     1       0.262  15.982  19.003  0.00  0.00    +0.000 A 
ATOM     26  C   UNL     1       1.487  16.456  18.541  0.00  0.00    +0.000 A 
ATOM     27  C   UNL     1       2.499  15.547  18.250  0.00  0.00    +0.000 A 
ATOM     28  C   UNL     1       2.273  14.176  18.402  0.00  0.00    +0.000 A 
ATOM     29  F   UNL     1       3.283  13.339  18.110  0.00  0.00    +0.000 F 
ENDBRANCH  20  22
ENDBRANCH   3  17
TORSDOF 4
ENDMDL
MODEL 6
REMARK VINA RESULT:      -7.7      2.363      2.998
REMARK  Name = 
REMARK  5 active torsions:
REMARK  status: ('A' for Active; 'I' for Inactive)
REMARK    1  A    between atoms: C_1  and  C_2
REMARK    2  A    between atoms: C_5  and  C_6
REMARK    3  A    between atoms: C_10  and  C_11
REMARK    4  A    between atoms: N_13  and  C_14
REMARK    5  A    between atoms: N_17  and  C_18
REMARK                            x       y       z     vdW  Elec       q    Type
REMARK                         _______ _______ _______ _____ _____    ______ ____
ROOT
ATOM      1  C   UNL     1       1.881   6.043  20.324  0.00  0.00    +0.000 C 
ATOM      2  O   UNL     1       1.315   5.269  21.086  0.00  0.00    +0.000 OA
ATOM      3  N   UNL     1       1.845   7.416  20.474  0.00  0.00    +0.000 N 
ATOM      4  H   UNL     1       2.136   8.014  19.711  0.00  0.00    +0.000 HD
ENDROOT
BRANCH   1   9
ATOM      5  C   UNL     1       4.560   5.679  17.666  0.00  0.00    +0.000 A 
ATOM      6  C   UNL     1       4.067   4.582  16.943  0.00  0.00    +0.000 A 
ATOM      7  C   UNL     1       2.868   3.961  17.306  0.00  0.00    +0.000 A 
ATOM      8  C   UNL     1       2.146   4.423  18.404  0.00  0.00    +0.000 A 
ATOM      9  C   UNL     1       2.623   5.511  19.144  0.00  0.00    +0.000 A 
ATOM     10  C   UNL     1       3.816   6.146  18.761  0.00  0.00    +0.000 A 
BRANCH   5  15
ATOM     11  C   UNL     1       8.264   8.750  17.899  0.00  0.00    +0.000 C 
ATOM     12  C   UNL     1       7.476   7.620  17.381  0.00  0.00    +0.000 A 
ATOM     13  N   UNL     1       7.780   6.742  16.450  0.00  0.00    +0.000 NA
ATOM     14  N   UNL     1       6.715   5.869  16.382  0.00  0.00    +0.000 NA
ATOM     15  C   UNL     1       5.833   6.276  17.274  0.00  0.00    +0.000 A 
ATOM     16  O   UNL     1       6.250   7.396  17.948  0.00  0.00    +0.000 OA
ENDBRANCH   5  15
ENDBRANCH   1   9
BRANCH   3  17
ATOM     17  C   UNL     1       1.067   8.038  21.549  0.00  0.00    +0.000 C 
ATOM     18  C   UNL     1      -0.411   8.159  21.182  0.00  0.00    +0.000 C 
ATOM     19  C   UNL     1      -0.458   9.428  20.339  0.00  0.00    +0.000 C 
ATOM     20  N   UNL     1       0.596  10.297  20.887  0.00  0.00    +0.000 N 
ATOM     21  C   UNL     1       1.455   9.511  21.801  0.00  0.00    +0.000 C 
BRANCH  20  22
ATOM     22  C   UNL     1       0.268  11.569  21.388  0.00  0.00    +0.000 A 
ATOM     23  C   UNL     1       0.826  12.779  20.935  0.00  0.00    +0.000 A 
ATOM     24  F   UNL     1       1.680  12.794  19.901  0.00  0.00    +0.000 F 
ATOM     25  C   UNL     1       0.490  14.016  21.500  0.00  0.00    +0.000 A 
ATOM     26  C   UNL     1      -0.438  14.083  22.536  0.00  0.00    +0.000 A 
ATOM     27  C   UNL     1      -1.041  12.911  22.982  0.00  0.00    +0.000 A 
ATOM     28  C   UNL     1      -0.697  11.684  22.408  0.00  0.00    +0.000 A 
ATOM     29  F   UNL     1      -1.309  10.582  22.874  0.00  0.00    +0.000 F 
ENDBRANCH  20  22
ENDBRANCH   3  17
TORSDOF 4
ENDMDL
MODEL 7
REMARK VINA RESULT:      -7.7      1.797      2.486
REMARK  Name = 
REMARK  5 active torsions:
REMARK  status: ('A' for Active; 'I' for Inactive)
REMARK    1  A    between atoms: C_1  and  C_2
REMARK    2  A    between atoms: C_5  and  C_6
REMARK    3  A    between atoms: C_10  and  C_11
REMARK    4  A    between atoms: N_13  and  C_14
REMARK    5  A    between atoms: N_17  and  C_18
REMARK                            x       y       z     vdW  Elec       q    Type
REMARK                         _______ _______ _______ _____ _____    ______ ____
ROOT
ATOM      1  C   UNL     1       2.484   7.480  18.917  0.00  0.00    +0.000 C 
ATOM      2  O   UNL     1       2.633   8.485  18.233  0.00  0.00    +0.000 OA
ATOM      3  N   UNL     1       2.086   7.515  20.241  0.00  0.00    +0.000 N 
ATOM      4  H   UNL     1       2.189   6.691  20.820  0.00  0.00    +0.000 HD
ENDROOT
BRANCH   1   9
ATOM      5  C   UNL     1       4.204   4.764  16.908  0.00  0.00    +0.000 A 
ATOM      6  C   UNL     1       3.386   3.661  17.201  0.00  0.00    +0.000 A 
ATOM      7  C   UNL     1       2.276   3.791  18.040  0.00  0.00    +0.000 A 
ATOM      8  C   UNL     1       1.969   5.026  18.608  0.00  0.00    +0.000 A 
ATOM      9  C   UNL     1       2.776   6.138  18.336  0.00  0.00    +0.000 A 
ATOM     10  C   UNL     1       3.876   6.006  17.472  0.00  0.00    +0.000 A 
BRANCH   5  15
ATOM     11  C   UNL     1       6.603   3.842  12.834  0.00  0.00    +0.000 C 
ATOM     12  C   UNL     1       6.435   4.184  14.256  0.00  0.00    +0.000 A 
ATOM     13  N   UNL     1       7.338   4.530  15.148  0.00  0.00    +0.000 NA
ATOM     14  N   UNL     1       6.648   4.786  16.314  0.00  0.00    +0.000 NA
ATOM     15  C   UNL     1       5.372   4.576  16.055  0.00  0.00    +0.000 A 
ATOM     16  O   UNL     1       5.161   4.181  14.758  0.00  0.00    +0.000 OA
ENDBRANCH   5  15
ENDBRANCH   1   9
BRANCH   3  17
ATOM     17  C   UNL     1       1.865   8.790  20.929  0.00  0.00    +0.000 C 
ATOM     18  C   UNL     1       0.950   8.629  22.141  0.00  0.00    +0.000 C 
ATOM     19  C   UNL     1      -0.446   8.655  21.529  0.00  0.00    +0.000 C 
ATOM     20  N   UNL     1      -0.341   9.546  20.363  0.00  0.00    +0.000 N 
ATOM     21  C   UNL     1       1.086   9.811  20.073  0.00  0.00    +0.000 C 
BRANCH  20  22
ATOM     22  C   UNL     1      -1.149  10.694  20.280  0.00  0.00    +0.000 A 
ATOM     23  C   UNL     1      -1.237  11.687  21.273  0.00  0.00    +0.000 A 
ATOM     24  F   UNL     1      -0.461  11.634  22.366  0.00  0.00    +0.000 F 
ATOM     25  C   UNL     1      -2.091  12.791  21.153  0.00  0.00    +0.000 A 
ATOM     26  C   UNL     1      -2.880  12.946  20.016  0.00  0.00    +0.000 A 
ATOM     27  C   UNL     1      -2.789  12.004  18.996  0.00  0.00    +0.000 A 
ATOM     28  C   UNL     1      -1.932  10.908  19.129  0.00  0.00    +0.000 A 
ATOM     29  F   UNL     1      -1.880  10.028  18.114  0.00  0.00    +0.000 F 
ENDBRANCH  20  22
ENDBRANCH   3  17
TORSDOF 4
ENDMDL
MODEL 8
REMARK VINA RESULT:      -7.6      2.548      3.455
REMARK  Name = 
REMARK  5 active torsions:
REMARK  status: ('A' for Active; 'I' for Inactive)
REMARK    1  A    between atoms: C_1  and  C_2
REMARK    2  A    between atoms: C_5  and  C_6
REMARK    3  A    between atoms: C_10  and  C_11
REMARK    4  A    between atoms: N_13  and  C_14
REMARK    5  A    between atoms: N_17  and  C_18
REMARK                            x       y       z     vdW  Elec       q    Type
REMARK                         _______ _______ _______ _____ _____    ______ ____
ROOT
ATOM      1  C   UNL     1       1.445   8.119  20.679  0.00  0.00    +0.000 C 
ATOM      2  O   UNL     1       1.480   8.308  21.889  0.00  0.00    +0.000 OA
ATOM      3  N   UNL     1       0.852   8.998  19.792  0.00  0.00    +0.000 N 
ATOM      4  H   UNL     1       0.655   8.701  18.844  0.00  0.00    +0.000 HD
ENDROOT
BRANCH   1   9
ATOM      5  C   UNL     1       3.403   5.830  18.377  0.00  0.00    +0.000 A 
ATOM      6  C   UNL     1       3.150   4.582  18.968  0.00  0.00    +0.000 A 
ATOM      7  C   UNL     1       2.342   4.475  20.104  0.00  0.00    +0.000 A 
ATOM      8  C   UNL     1       1.781   5.616  20.674  0.00  0.00    +0.000 A 
ATOM      9  C   UNL     1       2.027   6.872  20.106  0.00  0.00    +0.000 A 
ATOM     10  C   UNL     1       2.820   6.971  18.950  0.00  0.00    +0.000 A 
BRANCH   5  15
ATOM     11  C   UNL     1       5.888   4.159  14.604  0.00  0.00    +0.000 C 
ATOM     12  C   UNL     1       5.366   5.170  15.538  0.00  0.00    +0.000 A 
ATOM     13  N   UNL     1       5.473   6.480  15.501  0.00  0.00    +0.000 NA
ATOM     14  N   UNL     1       4.766   6.954  16.586  0.00  0.00    +0.000 NA
ATOM     15  C   UNL     1       4.279   5.901  17.212  0.00  0.00    +0.000 A 
ATOM     16  O   UNL     1       4.629   4.723  16.602  0.00  0.00    +0.000 OA
ENDBRANCH   5  15
ENDBRANCH   1   9
BRANCH   3  17
ATOM     17  C   UNL     1       0.172  10.206  20.266  0.00  0.00    +0.000 C 
ATOM     18  C   UNL     1      -0.986  10.602  19.351  0.00  0.00    +0.000 C 
ATOM     19  C   UNL     1      -0.296  11.366  18.227  0.00  0.00    +0.000 C 
ATOM     20  N   UNL     1       0.859  12.024  18.858  0.00  0.00    +0.000 N 
ATOM     21  C   UNL     1       1.065  11.463  20.212  0.00  0.00    +0.000 C 
BRANCH  20  22
ATOM     22  C   UNL     1       0.982  13.424  18.811  0.00  0.00    +0.000 A 
ATOM     23  C   UNL     1       2.152  14.116  18.445  0.00  0.00    +0.000 A 
ATOM     24  F   UNL     1       3.238  13.450  18.025  0.00  0.00    +0.000 F 
ATOM     25  C   UNL     1       2.228  15.514  18.455  0.00  0.00    +0.000 A 
ATOM     26  C   UNL     1       1.119  16.273  18.819  0.00  0.00    +0.000 A 
ATOM     27  C   UNL     1      -0.067  15.624  19.148  0.00  0.00    +0.000 A 
ATOM     28  C   UNL     1      -0.129  14.228  19.133  0.00  0.00    +0.000 A 
ATOM     29  F   UNL     1      -1.298  13.650  19.457  0.00  0.00    +0.000 F 
ENDBRANCH  20  22
ENDBRANCH   3  17
TORSDOF 4
ENDMDL
MODEL 9
REMARK VINA RESULT:      -7.6      1.584      2.246
REMARK  Name = 
REMARK  5 active torsions:
REMARK  status: ('A' for Active; 'I' for Inactive)
REMARK    1  A    between atoms: C_1  and  C_2
REMARK    2  A    between atoms: C_5  and  C_6
REMARK    3  A    between atoms: C_10  and  C_11
REMARK    4  A    between atoms: N_13  and  C_14
REMARK    5  A    between atoms: N_17  and  C_18
REMARK                            x       y       z     vdW  Elec       q    Type
REMARK                         _______ _______ _______ _____ _____    ______ ____
ROOT
ATOM      1  C   UNL     1       2.727   6.666  18.136  0.00  0.00    +0.000 C 
ATOM      2  O   UNL     1       1.730   5.955  18.175  0.00  0.00    +0.000 OA
ATOM      3  N   UNL     1       2.673   8.046  18.102  0.00  0.00    +0.000 N 
ATOM      4  H   UNL     1       3.498   8.577  17.851  0.00  0.00    +0.000 HD
ENDROOT
BRANCH   1   9
ATOM      5  C   UNL     1       5.939   5.237  16.718  0.00  0.00    +0.000 A 
ATOM      6  C   UNL     1       6.609   4.871  17.896  0.00  0.00    +0.000 A 
ATOM      7  C   UNL     1       6.024   5.078  19.149  0.00  0.00    +0.000 A 
ATOM      8  C   UNL     1       4.763   5.662  19.245  0.00  0.00    +0.000 A 
ATOM      9  C   UNL     1       4.080   6.041  18.083  0.00  0.00    +0.000 A 
ATOM     10  C   UNL     1       4.662   5.809  16.825  0.00  0.00    +0.000 A 
BRANCH   5  15
ATOM     11  C   UNL     1       6.491   3.523  12.250  0.00  0.00    +0.000 C 
ATOM     12  C   UNL     1       6.841   4.292  13.456  0.00  0.00    +0.000 A 
ATOM     13  N   UNL     1       7.840   5.123  13.659  0.00  0.00    +0.000 NA
ATOM     14  N   UNL     1       7.682   5.606  14.941  0.00  0.00    +0.000 NA
ATOM     15  C   UNL     1       6.600   5.034  15.433  0.00  0.00    +0.000 A 
ATOM     16  O   UNL     1       6.012   4.174  14.539  0.00  0.00    +0.000 OA
ENDBRANCH   5  15
ENDBRANCH   1   9
BRANCH   3  17
ATOM     17  C   UNL     1       1.389   8.751  18.058  0.00  0.00    +0.000 C 
ATOM     18  C   UNL     1       1.571  10.247  17.807  0.00  0.00    +0.000 C 
ATOM     19  C   UNL     1       1.887  10.796  19.194  0.00  0.00    +0.000 C 
ATOM     20  N   UNL     1       1.143   9.938  20.129  0.00  0.00    +0.000 N 
ATOM     21  C   UNL     1       0.648   8.742  19.411  0.00  0.00    +0.000 C 
BRANCH  20  22
ATOM     22  C   UNL     1       0.188  10.503  20.993  0.00  0.00    +0.000 A 
ATOM     23  C   UNL     1      -0.702  11.535  20.643  0.00  0.00    +0.000 A 
ATOM     24  F   UNL     1      -0.747  12.004  19.387  0.00  0.00    +0.000 F 
ATOM     25  C   UNL     1      -1.606  12.087  21.560  0.00  0.00    +0.000 A 
ATOM     26  C   UNL     1      -1.659  11.607  22.866  0.00  0.00    +0.000 A 
ATOM     27  C   UNL     1      -0.822  10.559  23.237  0.00  0.00    +0.000 A 
ATOM     28  C   UNL     1       0.074  10.018  22.311  0.00  0.00    +0.000 A 
ATOM     29  F   UNL     1       0.860   9.006  22.719  0.00  0.00    +0.000 F 
ENDBRANCH  20  22
ENDBRANCH   3  17
TORSDOF 4
ENDMDL
