MODEL 1
REMARK VINA RESULT:      -9.4      0.000      0.000
REMARK  Name = 
REMARK  5 active torsions:
REMARK  status: ('A' for Active; 'I' for Inactive)
REMARK    1  A    between atoms: C_1  and  C_2
REMARK    2  A    between atoms: C_7  and  C_8
REMARK    3  A    between atoms: C_8  and  N_9
REMARK    4  A    between atoms: C_13  and  C_14
REMARK    5  A    between atoms: C_13  and  C_15
REMARK                            x       y       z     vdW  Elec       q    Type
REMARK                         _______ _______ _______ _____ _____    ______ ____
ROOT
ATOM      1  N   UNL     1       3.639   2.917  18.265  0.00  0.00    +0.000 N 
ATOM      2  C   UNL     1       3.887   2.559  19.544  0.00  0.00    +0.000 C 
ATOM      3  O   UNL     1       4.879   2.027  20.004  0.00  0.00    +0.000 OA
ATOM      4  N   UNL     1       2.775   2.864  20.312  0.00  0.00    +0.000 N 
ATOM      5  C   UNL     1       1.842   3.665  19.565  0.00  0.00    +0.000 C 
ATOM      6  C   UNL     1       0.410   3.153  19.741  0.00  0.00    +0.000 C 
ATOM      7  C   UNL     1       2.377   3.424  18.140  0.00  0.00    +0.000 C 
ATOM      8  O   UNL     1       1.820   3.735  17.097  0.00  0.00    +0.000 OA
ATOM      9  H   UNL     1       2.800   2.765  21.312  0.00  0.00    +0.000 HD
ENDROOT
BRANCH   5  10
ATOM     10  C   UNL     1       1.945   5.159  19.871  0.00  0.00    +0.000 A 
ATOM     11  C   UNL     1       1.437   5.779  21.028  0.00  0.00    +0.000 A 
ATOM     12  C   UNL     1       1.357   7.178  21.104  0.00  0.00    +0.000 A 
ATOM     13  C   UNL     1       1.771   7.946  20.022  0.00  0.00    +0.000 A 
ATOM     14  C   UNL     1       2.458   7.337  18.980  0.00  0.00    +0.000 A 
ATOM     15  C   UNL     1       2.562   5.966  18.905  0.00  0.00    +0.000 A 
ATOM     16  O   UNL     1       2.917   8.047  17.905  0.00  0.00    +0.000 OA
ATOM     17  C   UNL     1       1.817   8.859  17.514  0.00  0.00    +0.000 C 
ATOM     18  C   UNL     1       1.458   9.827  18.641  0.00  0.00    +0.000 C 
ATOM     19  O   UNL     1       1.402   9.261  19.968  0.00  0.00    +0.000 OA
ENDBRANCH   5  10
BRANCH   1  20
ATOM     20  C   UNL     1       4.618   2.963  17.211  0.00  0.00    +0.000 C 
BRANCH  20  27
ATOM     21  C   UNL     1       8.146   9.496  17.648  0.00  0.00    +0.000 C 
ATOM     22  C   UNL     1       7.708   8.081  17.867  0.00  0.00    +0.000 A 
ATOM     23  C   UNL     1       8.397   7.265  18.868  0.00  0.00    +0.000 A 
ATOM     24  C   UNL     1       8.050   5.983  19.100  0.00  0.00    +0.000 A 
ATOM     25  C   UNL     1       6.993   5.389  18.357  0.00  0.00    +0.000 A 
ATOM     26  N   UNL     1       6.480   4.176  18.379  0.00  0.00    +0.000 NA
ATOM     27  C   UNL     1       5.474   4.176  17.434  0.00  0.00    +0.000 A 
ATOM     28  C   UNL     1       5.377   5.421  16.843  0.00  0.00    +0.000 A 
ATOM     29  N   UNL     1       6.352   6.192  17.422  0.00  0.00    +0.000 N 
ATOM     30  C   UNL     1       6.699   7.518  17.174  0.00  0.00    +0.000 A 
ENDBRANCH  20  27
ENDBRANCH   1  20
TORSDOF 3
ENDMDL
MODEL 2
REMARK VINA RESULT:      -8.2      0.633      1.184
REMARK  Name = 
REMARK  5 active torsions:
REMARK  status: ('A' for Active; 'I' for Inactive)
REMARK    1  A    between atoms: C_1  and  C_2
REMARK    2  A    between atoms: C_7  and  C_8
REMARK    3  A    between atoms: C_8  and  N_9
REMARK    4  A    between atoms: C_13  and  C_14
REMARK    5  A    between atoms: C_13  and  C_15
REMARK                            x       y       z     vdW  Elec       q    Type
REMARK                         _______ _______ _______ _____ _____    ______ ____
ROOT
ATOM      1  N   UNL     1       3.886   2.932  18.317  0.00  0.00    +0.000 N 
ATOM      2  C   UNL     1       4.079   2.560  19.602  0.00  0.00    +0.000 C 
ATOM      3  O   UNL     1       5.064   2.058  20.106  0.00  0.00    +0.000 OA
ATOM      4  N   UNL     1       2.916   2.809  20.313  0.00  0.00    +0.000 N 
ATOM      5  C   UNL     1       1.994   3.588  19.530  0.00  0.00    +0.000 C 
ATOM      6  C   UNL     1       0.576   3.019  19.618  0.00  0.00    +0.000 C 
ATOM      7  C   UNL     1       2.614   3.394  18.132  0.00  0.00    +0.000 C 
ATOM      8  O   UNL     1       2.103   3.701  17.065  0.00  0.00    +0.000 OA
ATOM      9  H   UNL     1       2.891   2.692  21.311  0.00  0.00    +0.000 HD
ENDROOT
BRANCH   5  10
ATOM     10  C   UNL     1       2.023   5.078  19.864  0.00  0.00    +0.000 A 
ATOM     11  C   UNL     1       1.479   5.651  21.031  0.00  0.00    +0.000 A 
ATOM     12  C   UNL     1       1.331   7.042  21.133  0.00  0.00    +0.000 A 
ATOM     13  C   UNL     1       1.712   7.850  20.068  0.00  0.00    +0.000 A 
ATOM     14  C   UNL     1       2.433   7.296  19.019  0.00  0.00    +0.000 A 
ATOM     15  C   UNL     1       2.604   5.933  18.918  0.00  0.00    +0.000 A 
ATOM     16  O   UNL     1       2.862   8.049  17.960  0.00  0.00    +0.000 OA
ATOM     17  C   UNL     1       1.725   8.813  17.579  0.00  0.00    +0.000 C 
ATOM     18  C   UNL     1       1.314   9.740  18.722  0.00  0.00    +0.000 C 
ATOM     19  O   UNL     1       1.280   9.147  20.038  0.00  0.00    +0.000 OA
ENDBRANCH   5  10
BRANCH   1  20
ATOM     20  C   UNL     1       4.918   3.035  17.318  0.00  0.00    +0.000 C 
BRANCH  20  27
ATOM     21  C   UNL     1       9.084   9.003  18.843  0.00  0.00    +0.000 C 
ATOM     22  C   UNL     1       8.051   8.076  18.282  0.00  0.00    +0.000 A 
ATOM     23  C   UNL     1       7.078   8.591  17.317  0.00  0.00    +0.000 A 
ATOM     24  C   UNL     1       6.121   7.803  16.786  0.00  0.00    +0.000 A 
ATOM     25  C   UNL     1       6.037   6.435  17.166  0.00  0.00    +0.000 A 
ATOM     26  N   UNL     1       5.204   5.477  16.813  0.00  0.00    +0.000 NA
ATOM     27  C   UNL     1       5.607   4.354  17.507  0.00  0.00    +0.000 A 
ATOM     28  C   UNL     1       6.714   4.647  18.283  0.00  0.00    +0.000 A 
ATOM     29  N   UNL     1       6.982   5.975  18.075  0.00  0.00    +0.000 N 
ATOM     30  C   UNL     1       7.976   6.777  18.629  0.00  0.00    +0.000 A 
ENDBRANCH  20  27
ENDBRANCH   1  20
TORSDOF 3
ENDMDL
MODEL 3
REMARK VINA RESULT:      -7.7      8.379     11.719
REMARK  Name = 
REMARK  5 active torsions:
REMARK  status: ('A' for Active; 'I' for Inactive)
REMARK    1  A    between atoms: C_1  and  C_2
REMARK    2  A    between atoms: C_7  and  C_8
REMARK    3  A    between atoms: C_8  and  N_9
REMARK    4  A    between atoms: C_13  and  C_14
REMARK    5  A    between atoms: C_13  and  C_15
REMARK                            x       y       z     vdW  Elec       q    Type
REMARK                         _______ _______ _______ _____ _____    ______ ____
ROOT
ATOM      1  N   UNL     1      -7.261  12.484  20.239  0.00  0.00    +0.000 N 
ATOM      2  C   UNL     1      -7.257  11.466  21.128  0.00  0.00    +0.000 C 
ATOM      3  O   UNL     1      -7.301  10.270  20.911  0.00  0.00    +0.000 OA
ATOM      4  N   UNL     1      -7.228  11.996  22.408  0.00  0.00    +0.000 N 
ATOM      5  C   UNL     1      -6.970  13.411  22.369  0.00  0.00    +0.000 C 
ATOM      6  C   UNL     1      -7.916  14.170  23.304  0.00  0.00    +0.000 C 
ATOM      7  C   UNL     1      -7.272  13.689  20.883  0.00  0.00    +0.000 C 
ATOM      8  O   UNL     1      -7.386  14.789  20.362  0.00  0.00    +0.000 OA
ATOM      9  H   UNL     1      -7.119  11.398  23.208  0.00  0.00    +0.000 HD
ENDROOT
BRANCH   5  10
ATOM     10  C   UNL     1      -5.510  13.769  22.637  0.00  0.00    +0.000 A 
ATOM     11  C   UNL     1      -4.909  14.998  22.302  0.00  0.00    +0.000 A 
ATOM     12  C   UNL     1      -3.514  15.142  22.358  0.00  0.00    +0.000 A 
ATOM     13  C   UNL     1      -2.729  14.059  22.735  0.00  0.00    +0.000 A 
ATOM     14  C   UNL     1      -3.341  12.928  23.260  0.00  0.00    +0.000 A 
ATOM     15  C   UNL     1      -4.709  12.783  23.230  0.00  0.00    +0.000 A 
ATOM     16  O   UNL     1      -2.617  11.844  23.678  0.00  0.00    +0.000 OA
ATOM     17  C   UNL     1      -1.694  11.601  22.624  0.00  0.00    +0.000 C 
ATOM     18  C   UNL     1      -0.759  12.800  22.466  0.00  0.00    +0.000 C 
ATOM     19  O   UNL     1      -1.386  14.100  22.486  0.00  0.00    +0.000 OA
ENDBRANCH   5  10
BRANCH   1  20
ATOM     20  C   UNL     1      -7.071  12.349  18.819  0.00  0.00    +0.000 C 
BRANCH  20  27
ATOM     21  C   UNL     1       0.203  10.818  18.579  0.00  0.00    +0.000 C 
ATOM     22  C   UNL     1      -1.273  10.836  18.321  0.00  0.00    +0.000 A 
ATOM     23  C   UNL     1      -1.827   9.970  17.279  0.00  0.00    +0.000 A 
ATOM     24  C   UNL     1      -3.146   9.952  16.999  0.00  0.00    +0.000 A 
ATOM     25  C   UNL     1      -4.036  10.795  17.720  0.00  0.00    +0.000 A 
ATOM     26  N   UNL     1      -5.338  10.975  17.632  0.00  0.00    +0.000 NA
ATOM     27  C   UNL     1      -5.652  11.921  18.587  0.00  0.00    +0.000 A 
ATOM     28  C   UNL     1      -4.512  12.306  19.268  0.00  0.00    +0.000 A 
ATOM     29  N   UNL     1      -3.480  11.597  18.710  0.00  0.00    +0.000 N 
ATOM     30  C   UNL     1      -2.121  11.623  19.010  0.00  0.00    +0.000 A 
ENDBRANCH  20  27
ENDBRANCH   1  20
TORSDOF 3
ENDMDL
MODEL 4
REMARK VINA RESULT:      -7.6      8.183     11.601
REMARK  Name = 
REMARK  5 active torsions:
REMARK  status: ('A' for Active; 'I' for Inactive)
REMARK    1  A    between atoms: C_1  and  C_2
REMARK    2  A    between atoms: C_7  and  C_8
REMARK    3  A    between atoms: C_8  and  N_9
REMARK    4  A    between atoms: C_13  and  C_14
REMARK    5  A    between atoms: C_13  and  C_15
REMARK                            x       y       z     vdW  Elec       q    Type
REMARK                         _______ _______ _______ _____ _____    ______ ____
ROOT
ATOM      1  N   UNL     1      -6.542  13.201  20.953  0.00  0.00    +0.000 N 
ATOM      2  C   UNL     1      -6.572  12.319  21.976  0.00  0.00    +0.000 C 
ATOM      3  O   UNL     1      -7.295  11.352  22.122  0.00  0.00    +0.000 OA
ATOM      4  N   UNL     1      -5.632  12.702  22.919  0.00  0.00    +0.000 N 
ATOM      5  C   UNL     1      -4.785  13.744  22.402  0.00  0.00    +0.000 C 
ATOM      6  C   UNL     1      -4.600  14.866  23.427  0.00  0.00    +0.000 C 
ATOM      7  C   UNL     1      -5.632  14.191  21.194  0.00  0.00    +0.000 C 
ATOM      8  O   UNL     1      -5.449  15.190  20.513  0.00  0.00    +0.000 OA
ATOM      9  H   UNL     1      -5.431  12.116  23.710  0.00  0.00    +0.000 HD
ENDROOT
BRANCH   5  10
ATOM     10  C   UNL     1      -3.442  13.232  21.883  0.00  0.00    +0.000 A 
ATOM     11  C   UNL     1      -3.068  13.190  20.526  0.00  0.00    +0.000 A 
ATOM     12  C   UNL     1      -1.926  12.478  20.129  0.00  0.00    +0.000 A 
ATOM     13  C   UNL     1      -1.175  11.803  21.084  0.00  0.00    +0.000 A 
ATOM     14  C   UNL     1      -1.432  12.023  22.430  0.00  0.00    +0.000 A 
ATOM     15  C   UNL     1      -2.538  12.739  22.833  0.00  0.00    +0.000 A 
ATOM     16  O   UNL     1      -0.704  11.412  23.414  0.00  0.00    +0.000 OA
ATOM     17  C   UNL     1      -0.647  10.046  23.023  0.00  0.00    +0.000 C 
ATOM     18  C   UNL     1       0.095   9.917  21.693  0.00  0.00    +0.000 C 
ATOM     19  O   UNL     1      -0.270  10.867  20.668  0.00  0.00    +0.000 OA
ENDBRANCH   5  10
BRANCH   1  20
ATOM     20  C   UNL     1      -7.208  13.031  19.689  0.00  0.00    +0.000 C 
BRANCH  20  27
ATOM     21  C   UNL     1      -2.822  10.170  14.408  0.00  0.00    +0.000 C 
ATOM     22  C   UNL     1      -3.509  10.457  15.707  0.00  0.00    +0.000 A 
ATOM     23  C   UNL     1      -3.170   9.659  16.886  0.00  0.00    +0.000 A 
ATOM     24  C   UNL     1      -3.764   9.868  18.079  0.00  0.00    +0.000 A 
ATOM     25  C   UNL     1      -4.753  10.881  18.212  0.00  0.00    +0.000 A 
ATOM     26  N   UNL     1      -5.479  11.268  19.240  0.00  0.00    +0.000 NA
ATOM     27  C   UNL     1      -6.273  12.296  18.774  0.00  0.00    +0.000 A 
ATOM     28  C   UNL     1      -6.005  12.536  17.439  0.00  0.00    +0.000 A 
ATOM     29  N   UNL     1      -5.045  11.628  17.076  0.00  0.00    +0.000 N 
ATOM     30  C   UNL     1      -4.437  11.424  15.840  0.00  0.00    +0.000 A 
ENDBRANCH  20  27
ENDBRANCH   1  20
TORSDOF 3
ENDMDL
MODEL 5
REMARK VINA RESULT:      -7.5      2.651      3.597
REMARK  Name = 
REMARK  5 active torsions:
REMARK  status: ('A' for Active; 'I' for Inactive)
REMARK    1  A    between atoms: C_1  and  C_2
REMARK    2  A    between atoms: C_7  and  C_8
REMARK    3  A    between atoms: C_8  and  N_9
REMARK    4  A    between atoms: C_13  and  C_14
REMARK    5  A    between atoms: C_13  and  C_15
REMARK                            x       y       z     vdW  Elec       q    Type
REMARK                         _______ _______ _______ _____ _____    ______ ____
ROOT
ATOM      1  N   UNL     1       4.900   4.601  18.261  0.00  0.00    +0.000 N 
ATOM      2  C   UNL     1       4.540   3.813  19.298  0.00  0.00    +0.000 C 
ATOM      3  O   UNL     1       5.248   3.135  20.016  0.00  0.00    +0.000 OA
ATOM      4  N   UNL     1       3.161   3.851  19.424  0.00  0.00    +0.000 N 
ATOM      5  C   UNL     1       2.599   4.881  18.590  0.00  0.00    +0.000 C 
ATOM      6  C   UNL     1       1.376   4.368  17.826  0.00  0.00    +0.000 C 
ATOM      7  C   UNL     1       3.800   5.144  17.660  0.00  0.00    +0.000 C 
ATOM      8  O   UNL     1       3.788   5.810  16.634  0.00  0.00    +0.000 OA
ATOM      9  H   UNL     1       2.705   3.409  20.202  0.00  0.00    +0.000 HD
ENDROOT
BRANCH   5  10
ATOM     10  C   UNL     1       2.287   6.171  19.347  0.00  0.00    +0.000 A 
ATOM     11  C   UNL     1       1.876   6.235  20.692  0.00  0.00    +0.000 A 
ATOM     12  C   UNL     1       1.375   7.433  21.223  0.00  0.00    +0.000 A 
ATOM     13  C   UNL     1       1.275   8.553  20.406  0.00  0.00    +0.000 A 
ATOM     14  C   UNL     1       1.873   8.536  19.153  0.00  0.00    +0.000 A 
ATOM     15  C   UNL     1       2.388   7.371  18.630  0.00  0.00    +0.000 A 
ATOM     16  O   UNL     1       1.835   9.620  18.320  0.00  0.00    +0.000 OA
ATOM     17  C   UNL     1       0.477  10.040  18.338  0.00  0.00    +0.000 C 
ATOM     18  C   UNL     1       0.086  10.476  19.750  0.00  0.00    +0.000 C 
ATOM     19  O   UNL     1       0.506   9.604  20.822  0.00  0.00    +0.000 OA
ENDBRANCH   5  10
BRANCH   1  20
ATOM     20  C   UNL     1       6.248   4.994  17.945  0.00  0.00    +0.000 C 
BRANCH  20  27
ATOM     21  C   UNL     1       6.669   2.705  10.881  0.00  0.00    +0.000 C 
ATOM     22  C   UNL     1       6.818   3.482  12.153  0.00  0.00    +0.000 A 
ATOM     23  C   UNL     1       7.603   4.718  12.147  0.00  0.00    +0.000 A 
ATOM     24  C   UNL     1       7.778   5.453  13.264  0.00  0.00    +0.000 A 
ATOM     25  C   UNL     1       7.196   5.029  14.490  0.00  0.00    +0.000 A 
ATOM     26  N   UNL     1       7.228   5.547  15.701  0.00  0.00    +0.000 NA
ATOM     27  C   UNL     1       6.483   4.697  16.493  0.00  0.00    +0.000 A 
ATOM     28  C   UNL     1       5.986   3.654  15.734  0.00  0.00    +0.000 A 
ATOM     29  N   UNL     1       6.448   3.858  14.460  0.00  0.00    +0.000 N 
ATOM     30  C   UNL     1       6.259   3.091  13.313  0.00  0.00    +0.000 A 
ENDBRANCH  20  27
ENDBRANCH   1  20
TORSDOF 3
ENDMDL
MODEL 6
REMARK VINA RESULT:      -7.3      7.521     11.173
REMARK  Name = 
REMARK  5 active torsions:
REMARK  status: ('A' for Active; 'I' for Inactive)
REMARK    1  A    between atoms: C_1  and  C_2
REMARK    2  A    between atoms: C_7  and  C_8
REMARK    3  A    between atoms: C_8  and  N_9
REMARK    4  A    between atoms: C_13  and  C_14
REMARK    5  A    between atoms: C_13  and  C_15
REMARK                            x       y       z     vdW  Elec       q    Type
REMARK                         _______ _______ _______ _____ _____    ______ ____
ROOT
ATOM      1  N   UNL     1      -5.756  13.536  20.946  0.00  0.00    +0.000 N 
ATOM      2  C   UNL     1      -5.972  12.684  21.973  0.00  0.00    +0.000 C 
ATOM      3  O   UNL     1      -6.588  11.636  21.972  0.00  0.00    +0.000 OA
ATOM      4  N   UNL     1      -5.390  13.211  23.115  0.00  0.00    +0.000 N 
ATOM      5  C   UNL     1      -4.559  14.340  22.790  0.00  0.00    +0.000 C 
ATOM      6  C   UNL     1      -4.805  15.503  23.755  0.00  0.00    +0.000 C 
ATOM      7  C   UNL     1      -5.075  14.642  21.369  0.00  0.00    +0.000 C 
ATOM      8  O   UNL     1      -4.825  15.637  20.705  0.00  0.00    +0.000 OA
ATOM      9  H   UNL     1      -5.354  12.677  23.965  0.00  0.00    +0.000 HD
ENDROOT
BRANCH   5  10
ATOM     10  C   UNL     1      -3.074  13.993  22.698  0.00  0.00    +0.000 A 
ATOM     11  C   UNL     1      -2.103  14.781  22.049  0.00  0.00    +0.000 A 
ATOM     12  C   UNL     1      -0.823  14.264  21.801  0.00  0.00    +0.000 A 
ATOM     13  C   UNL     1      -0.524  12.963  22.188  0.00  0.00    +0.000 A 
ATOM     14  C   UNL     1      -1.413  12.277  23.005  0.00  0.00    +0.000 A 
ATOM     15  C   UNL     1      -2.664  12.783  23.274  0.00  0.00    +0.000 A 
ATOM     16  O   UNL     1      -1.157  11.006  23.444  0.00  0.00    +0.000 OA
ATOM     17  C   UNL     1      -0.734  10.304  22.282  0.00  0.00    +0.000 C 
ATOM     18  C   UNL     1       0.557  10.920  21.743  0.00  0.00    +0.000 C 
ATOM     19  O   UNL     1       0.589  12.362  21.672  0.00  0.00    +0.000 OA
ENDBRANCH   5  10
BRANCH   1  20
ATOM     20  C   UNL     1      -6.013  13.248  19.559  0.00  0.00    +0.000 C 
BRANCH  20  27
ATOM     21  C   UNL     1       0.302   9.695  17.881  0.00  0.00    +0.000 C 
ATOM     22  C   UNL     1      -1.104  10.212  17.872  0.00  0.00    +0.000 A 
ATOM     23  C   UNL     1      -2.009   9.803  16.797  0.00  0.00    +0.000 A 
ATOM     24  C   UNL     1      -3.282  10.244  16.734  0.00  0.00    +0.000 A 
ATOM     25  C   UNL     1      -3.773  11.135  17.728  0.00  0.00    +0.000 A 
ATOM     26  N   UNL     1      -4.947  11.713  17.884  0.00  0.00    +0.000 NA
ATOM     27  C   UNL     1      -4.840  12.476  19.029  0.00  0.00    +0.000 A 
ATOM     28  C   UNL     1      -3.577  12.341  19.574  0.00  0.00    +0.000 A 
ATOM     29  N   UNL     1      -2.893  11.496  18.741  0.00  0.00    +0.000 N 
ATOM     30  C   UNL     1      -1.577  11.046  18.817  0.00  0.00    +0.000 A 
ENDBRANCH  20  27
ENDBRANCH   1  20
TORSDOF 3
ENDMDL
MODEL 7
REMARK VINA RESULT:      -7.3      3.741      6.948
REMARK  Name = 
REMARK  5 active torsions:
REMARK  status: ('A' for Active; 'I' for Inactive)
REMARK    1  A    between atoms: C_1  and  C_2
REMARK    2  A    between atoms: C_7  and  C_8
REMARK    3  A    between atoms: C_8  and  N_9
REMARK    4  A    between atoms: C_13  and  C_14
REMARK    5  A    between atoms: C_13  and  C_15
REMARK                            x       y       z     vdW  Elec       q    Type
REMARK                         _______ _______ _______ _____ _____    ______ ____
ROOT
ATOM      1  N   UNL     1       0.816   9.211  20.059  0.00  0.00    +0.000 N 
ATOM      2  C   UNL     1      -0.301   9.419  20.790  0.00  0.00    +0.000 C 
ATOM      3  O   UNL     1      -0.569   9.005  21.902  0.00  0.00    +0.000 OA
ATOM      4  N   UNL     1      -1.179  10.191  20.046  0.00  0.00    +0.000 N 
ATOM      5  C   UNL     1      -0.532  10.709  18.869  0.00  0.00    +0.000 C 
ATOM      6  C   UNL     1      -1.420  10.543  17.633  0.00  0.00    +0.000 C 
ATOM      7  C   UNL     1       0.704   9.790  18.827  0.00  0.00    +0.000 C 
ATOM      8  O   UNL     1       1.498   9.687  17.903  0.00  0.00    +0.000 OA
ATOM      9  H   UNL     1      -2.028  10.540  20.454  0.00  0.00    +0.000 HD
ENDROOT
BRANCH   5  10
ATOM     10  C   UNL     1      -0.053  12.151  19.026  0.00  0.00    +0.000 A 
ATOM     11  C   UNL     1      -0.846  13.292  18.793  0.00  0.00    +0.000 A 
ATOM     12  C   UNL     1      -0.254  14.562  18.719  0.00  0.00    +0.000 A 
ATOM     13  C   UNL     1       1.123  14.684  18.865  0.00  0.00    +0.000 A 
ATOM     14  C   UNL     1       1.859  13.590  19.299  0.00  0.00    +0.000 A 
ATOM     15  C   UNL     1       1.285  12.342  19.396  0.00  0.00    +0.000 A 
ATOM     16  O   UNL     1       3.212  13.660  19.491  0.00  0.00    +0.000 OA
ATOM     17  C   UNL     1       3.708  14.301  18.322  0.00  0.00    +0.000 C 
ATOM     18  C   UNL     1       3.139  15.716  18.224  0.00  0.00    +0.000 C 
ATOM     19  O   UNL     1       1.724  15.850  18.482  0.00  0.00    +0.000 OA
ENDBRANCH   5  10
BRANCH   1  20
ATOM     20  C   UNL     1       2.041   8.644  20.558  0.00  0.00    +0.000 C 
BRANCH  20  27
ATOM     21  C   UNL     1       2.953   1.747  17.930  0.00  0.00    +0.000 C 
ATOM     22  C   UNL     1       2.528   2.933  18.739  0.00  0.00    +0.000 A 
ATOM     23  C   UNL     1       1.624   2.737  19.873  0.00  0.00    +0.000 A 
ATOM     24  C   UNL     1       1.203   3.770  20.631  0.00  0.00    +0.000 A 
ATOM     25  C   UNL     1       1.633   5.092  20.332  0.00  0.00    +0.000 A 
ATOM     26  N   UNL     1       1.361   6.251  20.894  0.00  0.00    +0.000 NA
ATOM     27  C   UNL     1       2.065   7.194  20.172  0.00  0.00    +0.000 A 
ATOM     28  C   UNL     1       2.782   6.581  19.163  0.00  0.00    +0.000 A 
ATOM     29  N   UNL     1       2.500   5.242  19.256  0.00  0.00    +0.000 N 
ATOM     30  C   UNL     1       2.944   4.184  18.467  0.00  0.00    +0.000 A 
ENDBRANCH  20  27
ENDBRANCH   1  20
TORSDOF 3
ENDMDL
MODEL 8
REMARK VINA RESULT:      -7.3      8.679     11.993
REMARK  Name = 
REMARK  5 active torsions:
REMARK  status: ('A' for Active; 'I' for Inactive)
REMARK    1  A    between atoms: C_1  and  C_2
REMARK    2  A    between atoms: C_7  and  C_8
REMARK    3  A    between atoms: C_8  and  N_9
REMARK    4  A    between atoms: C_13  and  C_14
REMARK    5  A    between atoms: C_13  and  C_15
REMARK                            x       y       z     vdW  Elec       q    Type
REMARK                         _______ _______ _______ _____ _____    ______ ____
ROOT
ATOM      1  N   UNL     1      -6.866  12.852  20.514  0.00  0.00    +0.000 N 
ATOM      2  C   UNL     1      -6.933  11.793  21.350  0.00  0.00    +0.000 C 
ATOM      3  O   UNL     1      -7.120  10.623  21.078  0.00  0.00    +0.000 OA
ATOM      4  N   UNL     1      -6.785  12.246  22.651  0.00  0.00    +0.000 N 
ATOM      5  C   UNL     1      -6.374  13.625  22.668  0.00  0.00    +0.000 C 
ATOM      6  C   UNL     1      -7.185  14.431  23.686  0.00  0.00    +0.000 C 
ATOM      7  C   UNL     1      -6.712  14.014  21.215  0.00  0.00    +0.000 C 
ATOM      8  O   UNL     1      -6.728  15.146  20.754  0.00  0.00    +0.000 OA
ATOM      9  H   UNL     1      -6.706  11.598  23.414  0.00  0.00    +0.000 HD
ENDROOT
BRANCH   5  10
ATOM     10  C   UNL     1      -4.872  13.808  22.876  0.00  0.00    +0.000 A 
ATOM     11  C   UNL     1      -3.938  12.757  22.959  0.00  0.00    +0.000 A 
ATOM     12  C   UNL     1      -2.629  13.006  23.398  0.00  0.00    +0.000 A 
ATOM     13  C   UNL     1      -2.265  14.297  23.764  0.00  0.00    +0.000 A 
ATOM     14  C   UNL     1      -3.124  15.351  23.481  0.00  0.00    +0.000 A 
ATOM     15  C   UNL     1      -4.404  15.120  23.029  0.00  0.00    +0.000 A 
ATOM     16  O   UNL     1      -2.805  16.645  23.788  0.00  0.00    +0.000 OA
ATOM     17  C   UNL     1      -2.332  16.590  25.128  0.00  0.00    +0.000 C 
ATOM     18  C   UNL     1      -1.071  15.729  25.200  0.00  0.00    +0.000 C 
ATOM     19  O   UNL     1      -1.115  14.478  24.480  0.00  0.00    +0.000 OA
ENDBRANCH   5  10
BRANCH   1  20
ATOM     20  C   UNL     1      -6.759  12.773  19.080  0.00  0.00    +0.000 C 
BRANCH  20  27
ATOM     21  C   UNL     1       0.242  10.360  18.388  0.00  0.00    +0.000 C 
ATOM     22  C   UNL     1      -1.229  10.577  18.208  0.00  0.00    +0.000 A 
ATOM     23  C   UNL     1      -1.936   9.847  17.155  0.00  0.00    +0.000 A 
ATOM     24  C   UNL     1      -3.258  10.009  16.944  0.00  0.00    +0.000 A 
ATOM     25  C   UNL     1      -3.999  10.916  17.751  0.00  0.00    +0.000 A 
ATOM     26  N   UNL     1      -5.270  11.262  17.739  0.00  0.00    +0.000 NA
ATOM     27  C   UNL     1      -5.418  12.185  18.754  0.00  0.00    +0.000 A 
ATOM     28  C   UNL     1      -4.208  12.386  19.393  0.00  0.00    +0.000 A 
ATOM     29  N   UNL     1      -3.301  11.586  18.748  0.00  0.00    +0.000 N 
ATOM     30  C   UNL     1      -1.938  11.425  18.978  0.00  0.00    +0.000 A 
ENDBRANCH  20  27
ENDBRANCH   1  20
TORSDOF 3
ENDMDL
MODEL 9
REMARK VINA RESULT:      -7.2      9.060     12.334
REMARK  Name = 
REMARK  5 active torsions:
REMARK  status: ('A' for Active; 'I' for Inactive)
REMARK    1  A    between atoms: C_1  and  C_2
REMARK    2  A    between atoms: C_7  and  C_8
REMARK    3  A    between atoms: C_8  and  N_9
REMARK    4  A    between atoms: C_13  and  C_14
REMARK    5  A    between atoms: C_13  and  C_15
REMARK                            x       y       z     vdW  Elec       q    Type
REMARK                         _______ _______ _______ _____ _____    ______ ____
ROOT
ATOM      1  N   UNL     1      -4.329  13.889  23.473  0.00  0.00    +0.000 N 
ATOM      2  C   UNL     1      -4.703  15.126  23.076  0.00  0.00    +0.000 C 
ATOM      3  O   UNL     1      -3.999  16.076  22.793  0.00  0.00    +0.000 OA
ATOM      4  N   UNL     1      -6.087  15.187  23.066  0.00  0.00    +0.000 N 
ATOM      5  C   UNL     1      -6.658  13.878  23.239  0.00  0.00    +0.000 C 
ATOM      6  C   UNL     1      -7.799  13.903  24.259  0.00  0.00    +0.000 C 
ATOM      7  C   UNL     1      -5.422  13.124  23.766  0.00  0.00    +0.000 C 
ATOM      8  O   UNL     1      -5.411  12.002  24.252  0.00  0.00    +0.000 OA
ATOM      9  H   UNL     1      -6.561  15.995  22.702  0.00  0.00    +0.000 HD
ENDROOT
BRANCH   5  10
ATOM     10  C   UNL     1      -7.093  13.228  21.926  0.00  0.00    +0.000 A 
ATOM     11  C   UNL     1      -7.164  11.839  21.702  0.00  0.00    +0.000 A 
ATOM     12  C   UNL     1      -7.330  11.340  20.401  0.00  0.00    +0.000 A 
ATOM     13  C   UNL     1      -7.411  12.227  19.334  0.00  0.00    +0.000 A 
ATOM     14  C   UNL     1      -7.550  13.585  19.589  0.00  0.00    +0.000 A 
ATOM     15  C   UNL     1      -7.410  14.085  20.864  0.00  0.00    +0.000 A 
ATOM     16  O   UNL     1      -7.666  14.502  18.579  0.00  0.00    +0.000 OA
ATOM     17  C   UNL     1      -6.636  14.158  17.662  0.00  0.00    +0.000 C 
ATOM     18  C   UNL     1      -6.884  12.757  17.102  0.00  0.00    +0.000 C 
ATOM     19  O   UNL     1      -7.253  11.746  18.064  0.00  0.00    +0.000 OA
ENDBRANCH   5  10
BRANCH   1  20
ATOM     20  C   UNL     1      -2.990  13.364  23.406  0.00  0.00    +0.000 C 
BRANCH  20  27
ATOM     21  C   UNL     1      -3.000  10.959  16.368  0.00  0.00    +0.000 C 
ATOM     22  C   UNL     1      -2.604  11.292  17.774  0.00  0.00    +0.000 A 
ATOM     23  C   UNL     1      -1.267  10.930  18.245  0.00  0.00    +0.000 A 
ATOM     24  C   UNL     1      -0.860  11.198  19.502  0.00  0.00    +0.000 A 
ATOM     25  C   UNL     1      -1.744  11.843  20.411  0.00  0.00    +0.000 A 
ATOM     26  N   UNL     1      -1.601  12.196  21.672  0.00  0.00    +0.000 NA
ATOM     27  C   UNL     1      -2.796  12.784  22.036  0.00  0.00    +0.000 A 
ATOM     28  C   UNL     1      -3.668  12.792  20.963  0.00  0.00    +0.000 A 
ATOM     29  N   UNL     1      -3.003  12.183  19.930  0.00  0.00    +0.000 N 
ATOM     30  C   UNL     1      -3.433  11.914  18.634  0.00  0.00    +0.000 A 
ENDBRANCH  20  27
ENDBRANCH   1  20
TORSDOF 3
ENDMDL
