MODEL 1
REMARK VINA RESULT:      -8.2      0.000      0.000
REMARK  Name = 
REMARK  8 active torsions:
REMARK  status: ('A' for Active; 'I' for Inactive)
REMARK    1  A    between atoms: C_1  and  C_2
REMARK    2  A    between atoms: C_5  and  C_6
REMARK    3  A    between atoms: C_7  and  N_8
REMARK    4  A    between atoms: C_11  and  N_12
REMARK    5  A    between atoms: N_12  and  C_13
REMARK    6  A    between atoms: C_13  and  C_14
REMARK    7  A    between atoms: C_13  and  C_20
REMARK    8  A    between atoms: C_25  and  C_26
REMARK                            x       y       z     vdW  Elec       q    Type
REMARK                         _______ _______ _______ _____ _____    ______ ____
ROOT
ATOM      1  N   UNL     1       3.044   6.454  19.591  0.00  0.00    +0.000 N 
ATOM      2  H   UNL     1       3.975   6.463  20.008  0.00  0.00    +0.000 HD
ENDROOT
BRANCH   1   6
ATOM      3  N   UNL     1       0.832   9.187  19.636  0.00  0.00    +0.000 N 
ATOM      4  N   UNL     1       0.636   8.738  20.909  0.00  0.00    +0.000 NA
ATOM      5  C   UNL     1       1.408   7.661  21.017  0.00  0.00    +0.000 A 
ATOM      6  C   UNL     1       2.142   7.417  19.852  0.00  0.00    +0.000 A 
ATOM      7  C   UNL     1       1.809   8.432  18.984  0.00  0.00    +0.000 A 
ATOM      8  C   UNL     1       2.398   8.759  17.657  0.00  0.00    +0.000 C 
BRANCH   3  15
ATOM      9  C   UNL     1      -2.884  10.824  16.787  0.00  0.00    +0.000 C 
ATOM     10  C   UNL     1      -1.752  11.117  17.726  0.00  0.00    +0.000 A 
ATOM     11  C   UNL     1      -1.426  12.425  18.074  0.00  0.00    +0.000 A 
ATOM     12  C   UNL     1      -0.382  12.674  18.966  0.00  0.00    +0.000 A 
ATOM     13  C   UNL     1       0.383  11.629  19.513  0.00  0.00    +0.000 A 
ATOM     14  C   UNL     1       1.511  12.004  20.439  0.00  0.00    +0.000 C 
ATOM     15  C   UNL     1       0.076  10.300  19.145  0.00  0.00    +0.000 A 
ATOM     16  C   UNL     1      -1.009  10.064  18.279  0.00  0.00    +0.000 A 
ENDBRANCH   3  15
ENDBRANCH   1   6
BRANCH   1  17
ATOM     17  C   UNL     1       3.006   5.538  18.453  0.00  0.00    +0.000 C 
BRANCH  17  18
ATOM     18  C   UNL     1       4.427   5.182  18.015  0.00  0.00    +0.000 A 
ATOM     19  C   UNL     1       5.529   5.439  18.851  0.00  0.00    +0.000 A 
ATOM     20  C   UNL     1       6.829   5.161  18.425  0.00  0.00    +0.000 A 
ATOM     21  C   UNL     1       7.048   4.620  17.159  0.00  0.00    +0.000 A 
ATOM     22  C   UNL     1       5.966   4.350  16.322  0.00  0.00    +0.000 A 
ATOM     23  C   UNL     1       4.664   4.626  16.745  0.00  0.00    +0.000 A 
ENDBRANCH  17  18
BRANCH  17  24
ATOM     24  C   UNL     1       2.204   4.299  18.810  0.00  0.00    +0.000 A 
ATOM     25  N   UNL     1       1.365   3.658  18.012  0.00  0.00    +0.000 NA
ATOM     26  C   UNL     1       0.857   2.627  18.753  0.00  0.00    +0.000 A 
ATOM     27  C   UNL     1       1.376   2.644  20.024  0.00  0.00    +0.000 A 
ATOM     28  N   UNL     1       2.240   3.704  20.049  0.00  0.00    +0.000 N 
ATOM     29  H   UNL     1       2.778   4.024  20.842  0.00  0.00    +0.000 HD
ENDBRANCH  17  24
ENDBRANCH   1  17
TORSDOF 5
ENDMDL
MODEL 2
REMARK VINA RESULT:      -8.2      0.935      1.070
REMARK  Name = 
REMARK  8 active torsions:
REMARK  status: ('A' for Active; 'I' for Inactive)
REMARK    1  A    between atoms: C_1  and  C_2
REMARK    2  A    between atoms: C_5  and  C_6
REMARK    3  A    between atoms: C_7  and  N_8
REMARK    4  A    between atoms: C_11  and  N_12
REMARK    5  A    between atoms: N_12  and  C_13
REMARK    6  A    between atoms: C_13  and  C_14
REMARK    7  A    between atoms: C_13  and  C_20
REMARK    8  A    between atoms: C_25  and  C_26
REMARK                            x       y       z     vdW  Elec       q    Type
REMARK                         _______ _______ _______ _____ _____    ______ ____
ROOT
ATOM      1  N   UNL     1       2.965   6.572  19.895  0.00  0.00    +0.000 N 
ATOM      2  H   UNL     1       3.959   6.753  20.039  0.00  0.00    +0.000 HD
ENDROOT
BRANCH   1   6
ATOM      3  N   UNL     1       0.707   9.255  19.642  0.00  0.00    +0.000 N 
ATOM      4  N   UNL     1       0.484   8.916  20.943  0.00  0.00    +0.000 NA
ATOM      5  C   UNL     1       1.270   7.867  21.166  0.00  0.00    +0.000 A 
ATOM      6  C   UNL     1       2.040   7.536  20.046  0.00  0.00    +0.000 A 
ATOM      7  C   UNL     1       1.715   8.465  19.084  0.00  0.00    +0.000 A 
ATOM      8  C   UNL     1       2.335   8.685  17.749  0.00  0.00    +0.000 C 
BRANCH   3  15
ATOM      9  C   UNL     1      -3.098  10.564  16.740  0.00  0.00    +0.000 C 
ATOM     10  C   UNL     1      -1.926  10.959  17.589  0.00  0.00    +0.000 A 
ATOM     11  C   UNL     1      -1.569  12.296  17.747  0.00  0.00    +0.000 A 
ATOM     12  C   UNL     1      -0.488  12.643  18.558  0.00  0.00    +0.000 A 
ATOM     13  C   UNL     1       0.285  11.666  19.211  0.00  0.00    +0.000 A 
ATOM     14  C   UNL     1       1.453  12.142  20.035  0.00  0.00    +0.000 C 
ATOM     15  C   UNL     1      -0.053  10.306  19.034  0.00  0.00    +0.000 A 
ATOM     16  C   UNL     1      -1.175   9.976  18.249  0.00  0.00    +0.000 A 
ENDBRANCH   3  15
ENDBRANCH   1   6
BRANCH   1  17
ATOM     17  C   UNL     1       2.778   5.320  19.165  0.00  0.00    +0.000 C 
BRANCH  17  18
ATOM     18  C   UNL     1       4.022   5.002  18.334  0.00  0.00    +0.000 A 
ATOM     19  C   UNL     1       5.294   5.447  18.736  0.00  0.00    +0.000 A 
ATOM     20  C   UNL     1       6.419   5.200  17.948  0.00  0.00    +0.000 A 
ATOM     21  C   UNL     1       6.291   4.504  16.748  0.00  0.00    +0.000 A 
ATOM     22  C   UNL     1       5.039   4.047  16.339  0.00  0.00    +0.000 A 
ATOM     23  C   UNL     1       3.911   4.291  17.126  0.00  0.00    +0.000 A 
ENDBRANCH  17  18
BRANCH  17  24
ATOM     24  C   UNL     1       2.451   4.197  20.134  0.00  0.00    +0.000 A 
ATOM     25  N   UNL     1       3.290   3.267  20.560  0.00  0.00    +0.000 NA
ATOM     26  C   UNL     1       2.565   2.460  21.392  0.00  0.00    +0.000 A 
ATOM     27  C   UNL     1       1.262   2.888  21.465  0.00  0.00    +0.000 A 
ATOM     28  N   UNL     1       1.201   3.999  20.669  0.00  0.00    +0.000 N 
ATOM     29  H   UNL     1       0.379   4.554  20.473  0.00  0.00    +0.000 HD
ENDBRANCH  17  24
ENDBRANCH   1  17
TORSDOF 5
ENDMDL
MODEL 3
REMARK VINA RESULT:      -8.2      0.925      1.337
REMARK  Name = 
REMARK  8 active torsions:
REMARK  status: ('A' for Active; 'I' for Inactive)
REMARK    1  A    between atoms: C_1  and  C_2
REMARK    2  A    between atoms: C_5  and  C_6
REMARK    3  A    between atoms: C_7  and  N_8
REMARK    4  A    between atoms: C_11  and  N_12
REMARK    5  A    between atoms: N_12  and  C_13
REMARK    6  A    between atoms: C_13  and  C_14
REMARK    7  A    between atoms: C_13  and  C_20
REMARK    8  A    between atoms: C_25  and  C_26
REMARK                            x       y       z     vdW  Elec       q    Type
REMARK                         _______ _______ _______ _____ _____    ______ ____
ROOT
ATOM      1  N   UNL     1       2.916   6.624  19.905  0.00  0.00    +0.000 N 
ATOM      2  H   UNL     1       3.911   6.784  20.059  0.00  0.00    +0.000 HD
ENDROOT
BRANCH   1   6
ATOM      3  N   UNL     1       0.689   9.337  19.699  0.00  0.00    +0.000 N 
ATOM      4  N   UNL     1       0.485   8.997  21.004  0.00  0.00    +0.000 NA
ATOM      5  C   UNL     1       1.261   7.938  21.210  0.00  0.00    +0.000 A 
ATOM      6  C   UNL     1       2.006   7.600  20.076  0.00  0.00    +0.000 A 
ATOM      7  C   UNL     1       1.676   8.536  19.121  0.00  0.00    +0.000 A 
ATOM      8  C   UNL     1       2.274   8.752  17.776  0.00  0.00    +0.000 C 
BRANCH   3  15
ATOM      9  C   UNL     1      -3.183  10.707  16.917  0.00  0.00    +0.000 C 
ATOM     10  C   UNL     1      -1.974  11.083  17.722  0.00  0.00    +0.000 A 
ATOM     11  C   UNL     1      -1.584  12.413  17.855  0.00  0.00    +0.000 A 
ATOM     12  C   UNL     1      -0.468  12.742  18.625  0.00  0.00    +0.000 A 
ATOM     13  C   UNL     1       0.305  11.754  19.261  0.00  0.00    +0.000 A 
ATOM     14  C   UNL     1       1.511  12.210  20.041  0.00  0.00    +0.000 C 
ATOM     15  C   UNL     1      -0.069  10.400  19.109  0.00  0.00    +0.000 A 
ATOM     16  C   UNL     1      -1.223  10.089  18.365  0.00  0.00    +0.000 A 
ENDBRANCH   3  15
ENDBRANCH   1   6
BRANCH   1  17
ATOM     17  C   UNL     1       2.711   5.394  19.143  0.00  0.00    +0.000 C 
BRANCH  17  18
ATOM     18  C   UNL     1       3.956   5.074  18.313  0.00  0.00    +0.000 A 
ATOM     19  C   UNL     1       3.863   4.318  17.131  0.00  0.00    +0.000 A 
ATOM     20  C   UNL     1       5.008   3.983  16.406  0.00  0.00    +0.000 A 
ATOM     21  C   UNL     1       6.261   4.399  16.849  0.00  0.00    +0.000 A 
ATOM     22  C   UNL     1       6.370   5.157  18.014  0.00  0.00    +0.000 A 
ATOM     23  C   UNL     1       5.227   5.495  18.742  0.00  0.00    +0.000 A 
ENDBRANCH  17  18
BRANCH  17  24
ATOM     24  C   UNL     1       2.356   4.254  20.081  0.00  0.00    +0.000 A 
ATOM     25  N   UNL     1       1.167   4.031  20.619  0.00  0.00    +0.000 NA
ATOM     26  C   UNL     1       1.315   2.922  21.406  0.00  0.00    +0.000 A 
ATOM     27  C   UNL     1       2.610   2.468  21.363  0.00  0.00    +0.000 A 
ATOM     28  N   UNL     1       3.263   3.316  20.510  0.00  0.00    +0.000 N 
ATOM     29  H   UNL     1       4.244   3.288  20.268  0.00  0.00    +0.000 HD
ENDBRANCH  17  24
ENDBRANCH   1  17
TORSDOF 5
ENDMDL
MODEL 4
REMARK VINA RESULT:      -8.1      1.070      2.398
REMARK  Name = 
REMARK  8 active torsions:
REMARK  status: ('A' for Active; 'I' for Inactive)
REMARK    1  A    between atoms: C_1  and  C_2
REMARK    2  A    between atoms: C_5  and  C_6
REMARK    3  A    between atoms: C_7  and  N_8
REMARK    4  A    between atoms: C_11  and  N_12
REMARK    5  A    between atoms: N_12  and  C_13
REMARK    6  A    between atoms: C_13  and  C_14
REMARK    7  A    between atoms: C_13  and  C_20
REMARK    8  A    between atoms: C_25  and  C_26
REMARK                            x       y       z     vdW  Elec       q    Type
REMARK                         _______ _______ _______ _____ _____    ______ ____
ROOT
ATOM      1  N   UNL     1       2.754   6.608  19.571  0.00  0.00    +0.000 N 
ATOM      2  H   UNL     1       3.352   6.579  20.397  0.00  0.00    +0.000 HD
ENDROOT
BRANCH   1   6
ATOM      3  N   UNL     1       1.336   9.731  18.799  0.00  0.00    +0.000 N 
ATOM      4  N   UNL     1       1.922   9.464  17.597  0.00  0.00    +0.000 NA
ATOM      5  C   UNL     1       2.536   8.298  17.764  0.00  0.00    +0.000 A 
ATOM      6  C   UNL     1       2.329   7.770  19.043  0.00  0.00    +0.000 A 
ATOM      7  C   UNL     1       1.512   8.669  19.689  0.00  0.00    +0.000 A 
ATOM      8  C   UNL     1       0.852   8.547  21.016  0.00  0.00    +0.000 C 
BRANCH   3  15
ATOM      9  C   UNL     1       1.453  14.357  20.587  0.00  0.00    +0.000 C 
ATOM     10  C   UNL     1       0.700  13.258  19.897  0.00  0.00    +0.000 A 
ATOM     11  C   UNL     1      -0.626  13.429  19.507  0.00  0.00    +0.000 A 
ATOM     12  C   UNL     1      -1.301  12.401  18.849  0.00  0.00    +0.000 A 
ATOM     13  C   UNL     1      -0.684  11.164  18.586  0.00  0.00    +0.000 A 
ATOM     14  C   UNL     1      -1.510  10.107  17.902  0.00  0.00    +0.000 C 
ATOM     15  C   UNL     1       0.653  10.973  19.003  0.00  0.00    +0.000 A 
ATOM     16  C   UNL     1       1.334  12.037  19.626  0.00  0.00    +0.000 A 
ENDBRANCH   3  15
ENDBRANCH   1   6
BRANCH   1  17
ATOM     17  C   UNL     1       2.777   5.318  18.883  0.00  0.00    +0.000 C 
BRANCH  17  18
ATOM     18  C   UNL     1       4.173   5.046  18.318  0.00  0.00    +0.000 A 
ATOM     19  C   UNL     1       5.325   5.297  19.085  0.00  0.00    +0.000 A 
ATOM     20  C   UNL     1       6.598   5.097  18.546  0.00  0.00    +0.000 A 
ATOM     21  C   UNL     1       6.738   4.643  17.237  0.00  0.00    +0.000 A 
ATOM     22  C   UNL     1       5.605   4.380  16.467  0.00  0.00    +0.000 A 
ATOM     23  C   UNL     1       4.331   4.577  17.003  0.00  0.00    +0.000 A 
ENDBRANCH  17  18
BRANCH  17  24
ATOM     24  C   UNL     1       2.333   4.217  19.829  0.00  0.00    +0.000 A 
ATOM     25  N   UNL     1       1.894   3.019  19.477  0.00  0.00    +0.000 NA
ATOM     26  C   UNL     1       1.588   2.374  20.644  0.00  0.00    +0.000 A 
ATOM     27  C   UNL     1       1.825   3.190  21.723  0.00  0.00    +0.000 A 
ATOM     28  N   UNL     1       2.309   4.356  21.196  0.00  0.00    +0.000 N 
ATOM     29  H   UNL     1       2.564   5.188  21.710  0.00  0.00    +0.000 HD
ENDBRANCH  17  24
ENDBRANCH   1  17
TORSDOF 5
ENDMDL
MODEL 5
REMARK VINA RESULT:      -8.1      1.310      2.632
REMARK  Name = 
REMARK  8 active torsions:
REMARK  status: ('A' for Active; 'I' for Inactive)
REMARK    1  A    between atoms: C_1  and  C_2
REMARK    2  A    between atoms: C_5  and  C_6
REMARK    3  A    between atoms: C_7  and  N_8
REMARK    4  A    between atoms: C_11  and  N_12
REMARK    5  A    between atoms: N_12  and  C_13
REMARK    6  A    between atoms: C_13  and  C_14
REMARK    7  A    between atoms: C_13  and  C_20
REMARK    8  A    between atoms: C_25  and  C_26
REMARK                            x       y       z     vdW  Elec       q    Type
REMARK                         _______ _______ _______ _____ _____    ______ ____
ROOT
ATOM      1  N   UNL     1       2.848   6.585  19.168  0.00  0.00    +0.000 N 
ATOM      2  H   UNL     1       3.104   6.355  20.128  0.00  0.00    +0.000 HD
ENDROOT
BRANCH   1   6
ATOM      3  N   UNL     1       1.170   9.668  18.954  0.00  0.00    +0.000 N 
ATOM      4  N   UNL     1       1.683   9.620  17.691  0.00  0.00    +0.000 NA
ATOM      5  C   UNL     1       2.385   8.492  17.646  0.00  0.00    +0.000 A 
ATOM      6  C   UNL     1       2.308   7.774  18.844  0.00  0.00    +0.000 A 
ATOM      7  C   UNL     1       1.482   8.507  19.665  0.00  0.00    +0.000 A 
ATOM      8  C   UNL     1       0.931   8.148  21.000  0.00  0.00    +0.000 C 
BRANCH   3  15
ATOM      9  C   UNL     1       1.073  13.927  21.497  0.00  0.00    +0.000 C 
ATOM     10  C   UNL     1       0.364  12.913  20.648  0.00  0.00    +0.000 A 
ATOM     11  C   UNL     1      -0.982  13.062  20.323  0.00  0.00    +0.000 A 
ATOM     12  C   UNL     1      -1.617  12.117  19.515  0.00  0.00    +0.000 A 
ATOM     13  C   UNL     1      -0.936  10.985  19.033  0.00  0.00    +0.000 A 
ATOM     14  C   UNL     1      -1.721  10.006  18.198  0.00  0.00    +0.000 C 
ATOM     15  C   UNL     1       0.422  10.812  19.381  0.00  0.00    +0.000 A 
ATOM     16  C   UNL     1       1.059  11.797  20.159  0.00  0.00    +0.000 A 
ENDBRANCH   3  15
ENDBRANCH   1   6
BRANCH   1  17
ATOM     17  C   UNL     1       3.487   5.659  18.236  0.00  0.00    +0.000 C 
BRANCH  17  18
ATOM     18  C   UNL     1       5.005   5.850  18.259  0.00  0.00    +0.000 A 
ATOM     19  C   UNL     1       5.790   5.285  19.280  0.00  0.00    +0.000 A 
ATOM     20  C   UNL     1       7.168   5.506  19.326  0.00  0.00    +0.000 A 
ATOM     21  C   UNL     1       7.781   6.292  18.353  0.00  0.00    +0.000 A 
ATOM     22  C   UNL     1       7.018   6.851  17.328  0.00  0.00    +0.000 A 
ATOM     23  C   UNL     1       5.640   6.631  17.278  0.00  0.00    +0.000 A 
ENDBRANCH  17  18
BRANCH  17  24
ATOM     24  C   UNL     1       3.099   4.230  18.575  0.00  0.00    +0.000 A 
ATOM     25  N   UNL     1       2.428   3.839  19.647  0.00  0.00    +0.000 NA
ATOM     26  C   UNL     1       2.327   2.479  19.551  0.00  0.00    +0.000 A 
ATOM     27  C   UNL     1       2.956   2.027  18.416  0.00  0.00    +0.000 A 
ATOM     28  N   UNL     1       3.435   3.149  17.797  0.00  0.00    +0.000 N 
ATOM     29  H   UNL     1       3.976   3.180  16.944  0.00  0.00    +0.000 HD
ENDBRANCH  17  24
ENDBRANCH   1  17
TORSDOF 5
ENDMDL
MODEL 6
REMARK VINA RESULT:      -8.1      1.184      1.263
REMARK  Name = 
REMARK  8 active torsions:
REMARK  status: ('A' for Active; 'I' for Inactive)
REMARK    1  A    between atoms: C_1  and  C_2
REMARK    2  A    between atoms: C_5  and  C_6
REMARK    3  A    between atoms: C_7  and  N_8
REMARK    4  A    between atoms: C_11  and  N_12
REMARK    5  A    between atoms: N_12  and  C_13
REMARK    6  A    between atoms: C_13  and  C_14
REMARK    7  A    between atoms: C_13  and  C_20
REMARK    8  A    between atoms: C_25  and  C_26
REMARK                            x       y       z     vdW  Elec       q    Type
REMARK                         _______ _______ _______ _____ _____    ______ ____
ROOT
ATOM      1  N   UNL     1       2.695   6.865  19.715  0.00  0.00    +0.000 N 
ATOM      2  H   UNL     1       3.707   6.985  19.743  0.00  0.00    +0.000 HD
ENDROOT
BRANCH   1   6
ATOM      3  N   UNL     1       0.588   9.663  20.025  0.00  0.00    +0.000 N 
ATOM      4  N   UNL     1       0.502   9.194  21.302  0.00  0.00    +0.000 NA
ATOM      5  C   UNL     1       1.245   8.092  21.315  0.00  0.00    +0.000 A 
ATOM      6  C   UNL     1       1.854   7.850  20.080  0.00  0.00    +0.000 A 
ATOM      7  C   UNL     1       1.471   8.892  19.266  0.00  0.00    +0.000 A 
ATOM      8  C   UNL     1       1.939   9.228  17.894  0.00  0.00    +0.000 C 
BRANCH   3  15
ATOM      9  C   UNL     1      -3.490  11.457  17.842  0.00  0.00    +0.000 C 
ATOM     10  C   UNL     1      -2.184  11.702  18.539  0.00  0.00    +0.000 A 
ATOM     11  C   UNL     1      -1.716  12.996  18.756  0.00  0.00    +0.000 A 
ATOM     12  C   UNL     1      -0.509  13.201  19.424  0.00  0.00    +0.000 A 
ATOM     13  C   UNL     1       0.279  12.124  19.870  0.00  0.00    +0.000 A 
ATOM     14  C   UNL     1       1.583  12.452  20.549  0.00  0.00    +0.000 C 
ATOM     15  C   UNL     1      -0.176  10.808  19.629  0.00  0.00    +0.000 A 
ATOM     16  C   UNL     1      -1.418  10.619  18.993  0.00  0.00    +0.000 A 
ENDBRANCH   3  15
ENDBRANCH   1   6
BRANCH   1  17
ATOM     17  C   UNL     1       2.343   5.705  18.898  0.00  0.00    +0.000 C 
BRANCH  17  18
ATOM     18  C   UNL     1       3.457   5.410  17.893  0.00  0.00    +0.000 A 
ATOM     19  C   UNL     1       4.250   6.446  17.366  0.00  0.00    +0.000 A 
ATOM     20  C   UNL     1       5.230   6.179  16.409  0.00  0.00    +0.000 A 
ATOM     21  C   UNL     1       5.434   4.874  15.964  0.00  0.00    +0.000 A 
ATOM     22  C   UNL     1       4.663   3.835  16.483  0.00  0.00    +0.000 A 
ATOM     23  C   UNL     1       3.683   4.098  17.442  0.00  0.00    +0.000 A 
ENDBRANCH  17  18
BRANCH  17  24
ATOM     24  C   UNL     1       2.064   4.508  19.790  0.00  0.00    +0.000 A 
ATOM     25  N   UNL     1       1.137   3.585  19.586  0.00  0.00    +0.000 NA
ATOM     26  C   UNL     1       1.229   2.722  20.643  0.00  0.00    +0.000 A 
ATOM     27  C   UNL     1       2.212   3.126  21.513  0.00  0.00    +0.000 A 
ATOM     28  N   UNL     1       2.744   4.257  20.958  0.00  0.00    +0.000 N 
ATOM     29  H   UNL     1       3.476   4.833  21.350  0.00  0.00    +0.000 HD
ENDBRANCH  17  24
ENDBRANCH   1  17
TORSDOF 5
ENDMDL
MODEL 7
REMARK VINA RESULT:      -8.1      1.322      2.389
REMARK  Name = 
REMARK  8 active torsions:
REMARK  status: ('A' for Active; 'I' for Inactive)
REMARK    1  A    between atoms: C_1  and  C_2
REMARK    2  A    between atoms: C_5  and  C_6
REMARK    3  A    between atoms: C_7  and  N_8
REMARK    4  A    between atoms: C_11  and  N_12
REMARK    5  A    between atoms: N_12  and  C_13
REMARK    6  A    between atoms: C_13  and  C_14
REMARK    7  A    between atoms: C_13  and  C_20
REMARK    8  A    between atoms: C_25  and  C_26
REMARK                            x       y       z     vdW  Elec       q    Type
REMARK                         _______ _______ _______ _____ _____    ______ ____
ROOT
ATOM      1  N   UNL     1       2.619   6.760  19.898  0.00  0.00    +0.000 N 
ATOM      2  H   UNL     1       3.635   6.763  19.990  0.00  0.00    +0.000 HD
ENDROOT
BRANCH   1   6
ATOM      3  N   UNL     1       0.894   9.822  19.782  0.00  0.00    +0.000 N 
ATOM      4  N   UNL     1       0.601   9.464  21.065  0.00  0.00    +0.000 NA
ATOM      5  C   UNL     1       1.179   8.279  21.234  0.00  0.00    +0.000 A 
ATOM      6  C   UNL     1       1.885   7.869  20.098  0.00  0.00    +0.000 A 
ATOM      7  C   UNL     1       1.744   8.889  19.184  0.00  0.00    +0.000 A 
ATOM      8  C   UNL     1       2.406   9.058  17.862  0.00  0.00    +0.000 C 
BRANCH   3  15
ATOM      9  C   UNL     1       1.294  14.723  19.126  0.00  0.00    +0.000 C 
ATOM     10  C   UNL     1       0.530  13.449  18.913  0.00  0.00    +0.000 A 
ATOM     11  C   UNL     1      -0.688  13.446  18.238  0.00  0.00    +0.000 A 
ATOM     12  C   UNL     1      -1.373  12.247  18.033  0.00  0.00    +0.000 A 
ATOM     13  C   UNL     1      -0.877  11.024  18.520  0.00  0.00    +0.000 A 
ATOM     14  C   UNL     1      -1.709   9.792  18.277  0.00  0.00    +0.000 C 
ATOM     15  C   UNL     1       0.344  11.023  19.230  0.00  0.00    +0.000 A 
ATOM     16  C   UNL     1       1.044  12.235  19.388  0.00  0.00    +0.000 A 
ENDBRANCH   3  15
ENDBRANCH   1   6
BRANCH   1  17
ATOM     17  C   UNL     1       2.179   5.567  19.177  0.00  0.00    +0.000 C 
BRANCH  17  18
ATOM     18  C   UNL     1       3.179   5.218  18.073  0.00  0.00    +0.000 A 
ATOM     19  C   UNL     1       3.182   3.945  17.475  0.00  0.00    +0.000 A 
ATOM     20  C   UNL     1       4.130   3.614  16.506  0.00  0.00    +0.000 A 
ATOM     21  C   UNL     1       5.088   4.549  16.119  0.00  0.00    +0.000 A 
ATOM     22  C   UNL     1       5.094   5.818  16.695  0.00  0.00    +0.000 A 
ATOM     23  C   UNL     1       4.146   6.154  17.664  0.00  0.00    +0.000 A 
ENDBRANCH  17  18
BRANCH  17  24
ATOM     24  C   UNL     1       1.991   4.414  20.146  0.00  0.00    +0.000 A 
ATOM     25  N   UNL     1       2.921   3.902  20.936  0.00  0.00    +0.000 NA
ATOM     26  C   UNL     1       2.318   2.876  21.610  0.00  0.00    +0.000 A 
ATOM     27  C   UNL     1       1.007   2.746  21.218  0.00  0.00    +0.000 A 
ATOM     28  N   UNL     1       0.806   3.734  20.294  0.00  0.00    +0.000 N 
ATOM     29  H   UNL     1      -0.045   3.912  19.779  0.00  0.00    +0.000 HD
ENDBRANCH  17  24
ENDBRANCH   1  17
TORSDOF 5
ENDMDL
MODEL 8
REMARK VINA RESULT:      -8.0      1.205      1.551
REMARK  Name = 
REMARK  8 active torsions:
REMARK  status: ('A' for Active; 'I' for Inactive)
REMARK    1  A    between atoms: C_1  and  C_2
REMARK    2  A    between atoms: C_5  and  C_6
REMARK    3  A    between atoms: C_7  and  N_8
REMARK    4  A    between atoms: C_11  and  N_12
REMARK    5  A    between atoms: N_12  and  C_13
REMARK    6  A    between atoms: C_13  and  C_14
REMARK    7  A    between atoms: C_13  and  C_20
REMARK    8  A    between atoms: C_25  and  C_26
REMARK                            x       y       z     vdW  Elec       q    Type
REMARK                         _______ _______ _______ _____ _____    ______ ____
ROOT
ATOM      1  N   UNL     1       2.698   6.890  19.716  0.00  0.00    +0.000 N 
ATOM      2  H   UNL     1       3.710   7.017  19.696  0.00  0.00    +0.000 HD
ENDROOT
BRANCH   1   6
ATOM      3  N   UNL     1       0.596   9.688  20.057  0.00  0.00    +0.000 N 
ATOM      4  N   UNL     1       0.550   9.234  21.341  0.00  0.00    +0.000 NA
ATOM      5  C   UNL     1       1.295   8.133  21.345  0.00  0.00    +0.000 A 
ATOM      6  C   UNL     1       1.866   7.878  20.094  0.00  0.00    +0.000 A 
ATOM      7  C   UNL     1       1.458   8.910  19.281  0.00  0.00    +0.000 A 
ATOM      8  C   UNL     1       1.882   9.230  17.891  0.00  0.00    +0.000 C 
BRANCH   3  15
ATOM      9  C   UNL     1      -3.519  11.451  17.919  0.00  0.00    +0.000 C 
ATOM     10  C   UNL     1      -2.208  11.706  18.603  0.00  0.00    +0.000 A 
ATOM     11  C   UNL     1      -1.749  13.003  18.817  0.00  0.00    +0.000 A 
ATOM     12  C   UNL     1      -0.537  13.218  19.474  0.00  0.00    +0.000 A 
ATOM     13  C   UNL     1       0.265  12.147  19.909  0.00  0.00    +0.000 A 
ATOM     14  C   UNL     1       1.573  12.485  20.576  0.00  0.00    +0.000 C 
ATOM     15  C   UNL     1      -0.181  10.827  19.671  0.00  0.00    +0.000 A 
ATOM     16  C   UNL     1      -1.428  10.629  19.047  0.00  0.00    +0.000 A 
ENDBRANCH   3  15
ENDBRANCH   1   6
BRANCH   1  17
ATOM     17  C   UNL     1       2.319   5.709  18.943  0.00  0.00    +0.000 C 
BRANCH  17  18
ATOM     18  C   UNL     1       3.390   5.397  17.897  0.00  0.00    +0.000 A 
ATOM     19  C   UNL     1       3.616   4.077  17.463  0.00  0.00    +0.000 A 
ATOM     20  C   UNL     1       4.629   3.791  16.547  0.00  0.00    +0.000 A 
ATOM     21  C   UNL     1       5.431   4.816  16.050  0.00  0.00    +0.000 A 
ATOM     22  C   UNL     1       5.215   6.130  16.462  0.00  0.00    +0.000 A 
ATOM     23  C   UNL     1       4.201   6.421  17.377  0.00  0.00    +0.000 A 
ENDBRANCH  17  18
BRANCH  17  24
ATOM     24  C   UNL     1       2.088   4.531  19.874  0.00  0.00    +0.000 A 
ATOM     25  N   UNL     1       2.802   4.236  20.948  0.00  0.00    +0.000 NA
ATOM     26  C   UNL     1       2.255   3.092  21.460  0.00  0.00    +0.000 A 
ATOM     27  C   UNL     1       1.203   2.671  20.683  0.00  0.00    +0.000 A 
ATOM     28  N   UNL     1       1.097   3.598  19.683  0.00  0.00    +0.000 N 
ATOM     29  H   UNL     1       0.440   3.583  18.915  0.00  0.00    +0.000 HD
ENDBRANCH  17  24
ENDBRANCH   1  17
TORSDOF 5
ENDMDL
MODEL 9
REMARK VINA RESULT:      -8.0      0.966      1.958
REMARK  Name = 
REMARK  8 active torsions:
REMARK  status: ('A' for Active; 'I' for Inactive)
REMARK    1  A    between atoms: C_1  and  C_2
REMARK    2  A    between atoms: C_5  and  C_6
REMARK    3  A    between atoms: C_7  and  N_8
REMARK    4  A    between atoms: C_11  and  N_12
REMARK    5  A    between atoms: N_12  and  C_13
REMARK    6  A    between atoms: C_13  and  C_14
REMARK    7  A    between atoms: C_13  and  C_20
REMARK    8  A    between atoms: C_25  and  C_26
REMARK                            x       y       z     vdW  Elec       q    Type
REMARK                         _______ _______ _______ _____ _____    ______ ____
ROOT
ATOM      1  N   UNL     1       2.711   6.544  19.443  0.00  0.00    +0.000 N 
ATOM      2  H   UNL     1       3.637   6.381  19.836  0.00  0.00    +0.000 HD
ENDROOT
BRANCH   1   6
ATOM      3  N   UNL     1       1.019   9.622  19.613  0.00  0.00    +0.000 N 
ATOM      4  N   UNL     1       0.747   9.164  20.868  0.00  0.00    +0.000 NA
ATOM      5  C   UNL     1       1.315   7.964  20.928  0.00  0.00    +0.000 A 
ATOM      6  C   UNL     1       1.993   7.641  19.749  0.00  0.00    +0.000 A 
ATOM      7  C   UNL     1       1.846   8.733  18.923  0.00  0.00    +0.000 A 
ATOM      8  C   UNL     1       2.483   9.003  17.606  0.00  0.00    +0.000 C 
BRANCH   3  15
ATOM      9  C   UNL     1       1.502  14.548  19.278  0.00  0.00    +0.000 C 
ATOM     10  C   UNL     1       0.699  13.308  19.015  0.00  0.00    +0.000 A 
ATOM     11  C   UNL     1      -0.549  13.376  18.400  0.00  0.00    +0.000 A 
ATOM     12  C   UNL     1      -1.270  12.209  18.146  0.00  0.00    +0.000 A 
ATOM     13  C   UNL     1      -0.781  10.945  18.523  0.00  0.00    +0.000 A 
ATOM     14  C   UNL     1      -1.651   9.749  18.236  0.00  0.00    +0.000 C 
ATOM     15  C   UNL     1       0.472  10.870  19.172  0.00  0.00    +0.000 A 
ATOM     16  C   UNL     1       1.206  12.054  19.380  0.00  0.00    +0.000 A 
ENDBRANCH   3  15
ENDBRANCH   1   6
BRANCH   1  17
ATOM     17  C   UNL     1       2.491   5.679  18.286  0.00  0.00    +0.000 C 
BRANCH  17  18
ATOM     18  C   UNL     1       3.799   5.482  17.518  0.00  0.00    +0.000 A 
ATOM     19  C   UNL     1       4.737   6.525  17.406  0.00  0.00    +0.000 A 
ATOM     20  C   UNL     1       5.905   6.358  16.660  0.00  0.00    +0.000 A 
ATOM     21  C   UNL     1       6.154   5.148  16.016  0.00  0.00    +0.000 A 
ATOM     22  C   UNL     1       5.239   4.101  16.125  0.00  0.00    +0.000 A 
ATOM     23  C   UNL     1       4.071   4.264  16.871  0.00  0.00    +0.000 A 
ENDBRANCH  17  18
BRANCH  17  24
ATOM     24  C   UNL     1       1.900   4.354  18.732  0.00  0.00    +0.000 A 
ATOM     25  N   UNL     1       1.077   3.592  18.029  0.00  0.00    +0.000 NA
ATOM     26  C   UNL     1       0.787   2.519  18.826  0.00  0.00    +0.000 A 
ATOM     27  C   UNL     1       1.425   2.630  20.037  0.00  0.00    +0.000 A 
ATOM     28  N   UNL     1       2.138   3.795  19.965  0.00  0.00    +0.000 N 
ATOM     29  H   UNL     1       2.706   4.199  20.697  0.00  0.00    +0.000 HD
ENDBRANCH  17  24
ENDBRANCH   1  17
TORSDOF 5
ENDMDL
