MODEL 1
REMARK VINA RESULT:      -8.0      0.000      0.000
REMARK  Name = 
REMARK  6 active torsions:
REMARK  status: ('A' for Active; 'I' for Inactive)
REMARK    1  A    between atoms: C_1  and  C_2
REMARK    2  A    between atoms: C_2  and  C_3
REMARK    3  A    between atoms: C_3  and  C_4
REMARK    4  A    between atoms: C_4  and  C_5
REMARK    5  A    between atoms: C_9  and  N_10
REMARK    6  A    between atoms: C_18  and  C_19
REMARK                            x       y       z     vdW  Elec       q    Type
REMARK                         _______ _______ _______ _____ _____    ______ ____
ROOT
ATOM      1  N   UNL     1       0.216   9.424  20.673  0.00  0.00    +0.000 N 
ATOM      2  C   UNL     1      -1.015   9.334  19.862  0.00  0.00    +0.000 C 
ATOM      3  C   UNL     1      -1.103  10.716  19.285  0.00  0.00    +0.000 A 
ATOM      4  C   UNL     1      -0.442  11.579  20.169  0.00  0.00    +0.000 A 
ATOM      5  C   UNL     1      -0.215  12.911  19.893  0.00  0.00    +0.000 A 
ATOM      6  C   UNL     1      -0.662  13.371  18.664  0.00  0.00    +0.000 A 
ATOM      7  F   UNL     1      -0.402  14.633  18.305  0.00  0.00    +0.000 F 
ATOM      8  C   UNL     1      -1.308  12.524  17.748  0.00  0.00    +0.000 A 
ATOM      9  C   UNL     1      -1.541  11.166  18.044  0.00  0.00    +0.000 A 
ATOM     10  C   UNL     1       0.288  10.750  21.150  0.00  0.00    +0.000 C 
ATOM     11  O   UNL     1       0.967  11.204  22.053  0.00  0.00    +0.000 OA
ENDROOT
BRANCH   1  16
ATOM     12  C   UNL     1       2.380   6.840  19.219  0.00  0.00    +0.000 A 
ATOM     13  C   UNL     1       2.494   7.393  17.928  0.00  0.00    +0.000 A 
ATOM     14  C   UNL     1       2.196   8.731  17.669  0.00  0.00    +0.000 A 
ATOM     15  C   UNL     1       1.671   9.531  18.674  0.00  0.00    +0.000 A 
ATOM     16  C   UNL     1       1.368   8.962  19.915  0.00  0.00    +0.000 A 
ATOM     17  C   UNL     1       1.869   7.691  20.216  0.00  0.00    +0.000 A 
BRANCH  12  18
ATOM     18  C   UNL     1       2.772   5.314  19.532  0.00  0.00    +0.000 C 
ATOM     19  C   UNL     1       2.703   4.283  18.363  0.00  0.00    +0.000 C 
ATOM     20  O   UNL     1       4.138   4.331  18.183  0.00  0.00    +0.000 OA
ATOM     21  C   UNL     1       4.290   4.963  19.475  0.00  0.00    +0.000 C 
BRANCH  18  22
ATOM     22  C   UNL     1       2.121   4.869  20.853  0.00  0.00    +0.000 C 
BRANCH  22  24
ATOM     23  C   UNL     1       1.544   2.542  21.625  0.00  0.00    +0.000 C 
ATOM     24  C   UNL     1       1.187   3.669  20.671  0.00  0.00    +0.000 C 
ENDBRANCH  22  24
ENDBRANCH  18  22
ENDBRANCH  12  18
ENDBRANCH   1  16
BRANCH   9  25
ATOM     25  C   UNL     1      -2.129  10.268  16.985  0.00  0.00    +0.000 C 
ATOM     26  F   UNL     1      -3.268   9.634  17.363  0.00  0.00    +0.000 F 
ATOM     27  F   UNL     1      -2.444  10.955  15.854  0.00  0.00    +0.000 F 
ATOM     28  F   UNL     1      -1.260   9.289  16.600  0.00  0.00    +0.000 F 
ENDBRANCH   9  25
TORSDOF 5
ENDMDL
MODEL 2
REMARK VINA RESULT:      -7.8      1.503      2.272
REMARK  Name = 
REMARK  6 active torsions:
REMARK  status: ('A' for Active; 'I' for Inactive)
REMARK    1  A    between atoms: C_1  and  C_2
REMARK    2  A    between atoms: C_2  and  C_3
REMARK    3  A    between atoms: C_3  and  C_4
REMARK    4  A    between atoms: C_4  and  C_5
REMARK    5  A    between atoms: C_9  and  N_10
REMARK    6  A    between atoms: C_18  and  C_19
REMARK                            x       y       z     vdW  Elec       q    Type
REMARK                         _______ _______ _______ _____ _____    ______ ____
ROOT
ATOM      1  N   UNL     1       0.677   8.348  21.260  0.00  0.00    +0.000 N 
ATOM      2  C   UNL     1      -0.551   8.692  20.513  0.00  0.00    +0.000 C 
ATOM      3  C   UNL     1      -0.293  10.122  20.143  0.00  0.00    +0.000 A 
ATOM      4  C   UNL     1       0.582  10.649  21.101  0.00  0.00    +0.000 A 
ATOM      5  C   UNL     1       1.137  11.909  21.003  0.00  0.00    +0.000 A 
ATOM      6  C   UNL     1       0.801  12.644  19.877  0.00  0.00    +0.000 A 
ATOM      7  F   UNL     1       1.369  13.841  19.685  0.00  0.00    +0.000 F 
ATOM      8  C   UNL     1      -0.056  12.133  18.888  0.00  0.00    +0.000 A 
ATOM      9  C   UNL     1      -0.623  10.848  19.003  0.00  0.00    +0.000 A 
ATOM     10  C   UNL     1       1.093   9.526  21.914  0.00  0.00    +0.000 C 
ATOM     11  O   UNL     1       1.882   9.656  22.833  0.00  0.00    +0.000 OA
ENDROOT
BRANCH   1  16
ATOM     12  C   UNL     1       2.183   5.512  19.481  0.00  0.00    +0.000 A 
ATOM     13  C   UNL     1       2.310   6.127  18.219  0.00  0.00    +0.000 A 
ATOM     14  C   UNL     1       2.262   7.512  18.064  0.00  0.00    +0.000 A 
ATOM     15  C   UNL     1       1.977   8.322  19.155  0.00  0.00    +0.000 A 
ATOM     16  C   UNL     1       1.658   7.732  20.382  0.00  0.00    +0.000 A 
ATOM     17  C   UNL     1       1.921   6.370  20.565  0.00  0.00    +0.000 A 
BRANCH  12  18
ATOM     18  C   UNL     1       2.290   3.920  19.671  0.00  0.00    +0.000 C 
ATOM     19  C   UNL     1       2.400   3.361  21.123  0.00  0.00    +0.000 C 
ATOM     20  O   UNL     1       1.000   2.995  21.131  0.00  0.00    +0.000 OA
ATOM     21  C   UNL     1       0.945   3.133  19.693  0.00  0.00    +0.000 C 
BRANCH  18  22
ATOM     22  C   UNL     1       3.288   3.340  18.655  0.00  0.00    +0.000 C 
BRANCH  22  24
ATOM     23  C   UNL     1       5.542   4.449  18.831  0.00  0.00    +0.000 C 
ATOM     24  C   UNL     1       4.708   3.241  19.220  0.00  0.00    +0.000 C 
ENDBRANCH  22  24
ENDBRANCH  18  22
ENDBRANCH  12  18
ENDBRANCH   1  16
BRANCH   9  25
ATOM     25  C   UNL     1      -1.439  10.296  17.862  0.00  0.00    +0.000 C 
ATOM     26  F   UNL     1      -2.586   9.679  18.246  0.00  0.00    +0.000 F 
ATOM     27  F   UNL     1      -1.816  11.268  16.989  0.00  0.00    +0.000 F 
ATOM     28  F   UNL     1      -0.744   9.380  17.128  0.00  0.00    +0.000 F 
ENDBRANCH   9  25
TORSDOF 5
ENDMDL
MODEL 3
REMARK VINA RESULT:      -7.8      3.560      7.818
REMARK  Name = 
REMARK  6 active torsions:
REMARK  status: ('A' for Active; 'I' for Inactive)
REMARK    1  A    between atoms: C_1  and  C_2
REMARK    2  A    between atoms: C_2  and  C_3
REMARK    3  A    between atoms: C_3  and  C_4
REMARK    4  A    between atoms: C_4  and  C_5
REMARK    5  A    between atoms: C_9  and  N_10
REMARK    6  A    between atoms: C_18  and  C_19
REMARK                            x       y       z     vdW  Elec       q    Type
REMARK                         _______ _______ _______ _____ _____    ______ ____
ROOT
ATOM      1  N   UNL     1       2.612   6.427  17.705  0.00  0.00    +0.000 N 
ATOM      2  C   UNL     1       1.673   5.295  17.847  0.00  0.00    +0.000 C 
ATOM      3  C   UNL     1       2.526   4.276  18.540  0.00  0.00    +0.000 A 
ATOM      4  C   UNL     1       3.858   4.550  18.205  0.00  0.00    +0.000 A 
ATOM      5  C   UNL     1       4.929   3.887  18.768  0.00  0.00    +0.000 A 
ATOM      6  C   UNL     1       4.626   2.926  19.721  0.00  0.00    +0.000 A 
ATOM      7  F   UNL     1       5.624   2.304  20.361  0.00  0.00    +0.000 F 
ATOM      8  C   UNL     1       3.301   2.645  20.093  0.00  0.00    +0.000 A 
ATOM      9  C   UNL     1       2.216   3.323  19.505  0.00  0.00    +0.000 A 
ATOM     10  C   UNL     1       3.895   5.867  17.537  0.00  0.00    +0.000 C 
ATOM     11  O   UNL     1       4.914   6.393  17.126  0.00  0.00    +0.000 OA
ENDROOT
BRANCH   1  16
ATOM     12  C   UNL     1       1.121   9.319  19.406  0.00  0.00    +0.000 A 
ATOM     13  C   UNL     1       0.905   8.711  20.659  0.00  0.00    +0.000 A 
ATOM     14  C   UNL     1       1.566   7.542  21.035  0.00  0.00    +0.000 A 
ATOM     15  C   UNL     1       2.383   6.883  20.126  0.00  0.00    +0.000 A 
ATOM     16  C   UNL     1       2.468   7.357  18.813  0.00  0.00    +0.000 A 
ATOM     17  C   UNL     1       1.977   8.635  18.523  0.00  0.00    +0.000 A 
BRANCH  12  18
ATOM     18  C   UNL     1       0.403  10.694  18.988  0.00  0.00    +0.000 C 
ATOM     19  C   UNL     1      -0.085  11.642  20.127  0.00  0.00    +0.000 C 
ATOM     20  O   UNL     1       1.063  12.505  19.955  0.00  0.00    +0.000 OA
ATOM     21  C   UNL     1       1.341  11.898  18.672  0.00  0.00    +0.000 C 
BRANCH  18  22
ATOM     22  C   UNL     1      -0.608  10.432  17.858  0.00  0.00    +0.000 C 
BRANCH  22  24
ATOM     23  C   UNL     1      -2.987   9.789  17.337  0.00  0.00    +0.000 C 
ATOM     24  C   UNL     1      -2.055  10.417  18.360  0.00  0.00    +0.000 C 
ENDBRANCH  22  24
ENDBRANCH  18  22
ENDBRANCH  12  18
ENDBRANCH   1  16
BRANCH   9  25
ATOM     25  C   UNL     1       0.821   3.074  20.022  0.00  0.00    +0.000 C 
ATOM     26  F   UNL     1       0.017   2.406  19.155  0.00  0.00    +0.000 F 
ATOM     27  F   UNL     1       0.826   2.338  21.165  0.00  0.00    +0.000 F 
ATOM     28  F   UNL     1       0.170   4.234  20.324  0.00  0.00    +0.000 F 
ENDBRANCH   9  25
TORSDOF 5
ENDMDL
MODEL 4
REMARK VINA RESULT:      -7.8      3.784      7.765
REMARK  Name = 
REMARK  6 active torsions:
REMARK  status: ('A' for Active; 'I' for Inactive)
REMARK    1  A    between atoms: C_1  and  C_2
REMARK    2  A    between atoms: C_2  and  C_3
REMARK    3  A    between atoms: C_3  and  C_4
REMARK    4  A    between atoms: C_4  and  C_5
REMARK    5  A    between atoms: C_9  and  N_10
REMARK    6  A    between atoms: C_18  and  C_19
REMARK                            x       y       z     vdW  Elec       q    Type
REMARK                         _______ _______ _______ _____ _____    ______ ____
ROOT
ATOM      1  N   UNL     1       3.065   6.348  20.008  0.00  0.00    +0.000 N 
ATOM      2  C   UNL     1       4.368   5.992  19.408  0.00  0.00    +0.000 C 
ATOM      3  C   UNL     1       4.041   4.708  18.707  0.00  0.00    +0.000 A 
ATOM      4  C   UNL     1       2.959   4.128  19.382  0.00  0.00    +0.000 A 
ATOM      5  C   UNL     1       2.309   2.997  18.934  0.00  0.00    +0.000 A 
ATOM      6  C   UNL     1       2.769   2.453  17.745  0.00  0.00    +0.000 A 
ATOM      7  F   UNL     1       2.130   1.402  17.217  0.00  0.00    +0.000 F 
ATOM      8  C   UNL     1       3.838   3.024  17.034  0.00  0.00    +0.000 A 
ATOM      9  C   UNL     1       4.499   4.176  17.506  0.00  0.00    +0.000 A 
ATOM     10  C   UNL     1       2.423   5.133  20.324  0.00  0.00    +0.000 C 
ATOM     11  O   UNL     1       1.472   4.937  21.059  0.00  0.00    +0.000 OA
ENDROOT
BRANCH   1  16
ATOM     12  C   UNL     1       1.183   9.412  19.273  0.00  0.00    +0.000 A 
ATOM     13  C   UNL     1       1.856   9.768  18.087  0.00  0.00    +0.000 A 
ATOM     14  C   UNL     1       2.620   8.850  17.368  0.00  0.00    +0.000 A 
ATOM     15  C   UNL     1       2.822   7.571  17.871  0.00  0.00    +0.000 A 
ATOM     16  C   UNL     1       2.325   7.247  19.137  0.00  0.00    +0.000 A 
ATOM     17  C   UNL     1       1.392   8.100  19.736  0.00  0.00    +0.000 A 
BRANCH  12  18
ATOM     18  C   UNL     1       0.259  10.453  20.077  0.00  0.00    +0.000 C 
ATOM     19  C   UNL     1      -0.359   9.991  21.432  0.00  0.00    +0.000 C 
ATOM     20  O   UNL     1       0.642  10.717  22.183  0.00  0.00    +0.000 OA
ATOM     21  C   UNL     1       1.000  11.468  20.999  0.00  0.00    +0.000 C 
BRANCH  18  22
ATOM     22  C   UNL     1      -0.709  11.149  19.104  0.00  0.00    +0.000 C 
BRANCH  22  24
ATOM     23  C   UNL     1      -1.788  10.000  17.140  0.00  0.00    +0.000 C 
ATOM     24  C   UNL     1      -1.839  10.225  18.642  0.00  0.00    +0.000 C 
ENDBRANCH  22  24
ENDBRANCH  18  22
ENDBRANCH  12  18
ENDBRANCH   1  16
BRANCH   9  25
ATOM     25  C   UNL     1       5.559   4.822  16.651  0.00  0.00    +0.000 C 
ATOM     26  F   UNL     1       5.934   4.083  15.575  0.00  0.00    +0.000 F 
ATOM     27  F   UNL     1       5.150   6.020  16.153  0.00  0.00    +0.000 F 
ATOM     28  F   UNL     1       6.701   5.077  17.352  0.00  0.00    +0.000 F 
ENDBRANCH   9  25
TORSDOF 5
ENDMDL
MODEL 5
REMARK VINA RESULT:      -7.7      0.950      1.909
REMARK  Name = 
REMARK  6 active torsions:
REMARK  status: ('A' for Active; 'I' for Inactive)
REMARK    1  A    between atoms: C_1  and  C_2
REMARK    2  A    between atoms: C_2  and  C_3
REMARK    3  A    between atoms: C_3  and  C_4
REMARK    4  A    between atoms: C_4  and  C_5
REMARK    5  A    between atoms: C_9  and  N_10
REMARK    6  A    between atoms: C_18  and  C_19
REMARK                            x       y       z     vdW  Elec       q    Type
REMARK                         _______ _______ _______ _____ _____    ______ ____
ROOT
ATOM      1  N   UNL     1       0.158   9.355  20.717  0.00  0.00    +0.000 N 
ATOM      2  C   UNL     1      -1.059   9.283  19.881  0.00  0.00    +0.000 C 
ATOM      3  C   UNL     1      -1.110  10.662  19.296  0.00  0.00    +0.000 A 
ATOM      4  C   UNL     1      -0.450  11.518  20.187  0.00  0.00    +0.000 A 
ATOM      5  C   UNL     1      -0.194  12.845  19.908  0.00  0.00    +0.000 A 
ATOM      6  C   UNL     1      -0.608  13.305  18.668  0.00  0.00    +0.000 A 
ATOM      7  F   UNL     1      -0.317  14.560  18.306  0.00  0.00    +0.000 F 
ATOM      8  C   UNL     1      -1.252  12.464  17.744  0.00  0.00    +0.000 A 
ATOM      9  C   UNL     1      -1.515  11.113  18.044  0.00  0.00    +0.000 A 
ATOM     10  C   UNL     1       0.245  10.682  21.187  0.00  0.00    +0.000 C 
ATOM     11  O   UNL     1       0.914  11.129  22.101  0.00  0.00    +0.000 OA
ENDROOT
BRANCH   1  16
ATOM     12  C   UNL     1       2.314   6.722  19.340  0.00  0.00    +0.000 A 
ATOM     13  C   UNL     1       2.453   7.251  18.041  0.00  0.00    +0.000 A 
ATOM     14  C   UNL     1       2.174   8.588  17.754  0.00  0.00    +0.000 A 
ATOM     15  C   UNL     1       1.643   9.411  18.738  0.00  0.00    +0.000 A 
ATOM     16  C   UNL     1       1.315   8.868  19.984  0.00  0.00    +0.000 A 
ATOM     17  C   UNL     1       1.798   7.596  20.314  0.00  0.00    +0.000 A 
BRANCH  12  18
ATOM     18  C   UNL     1       2.684   5.198  19.686  0.00  0.00    +0.000 C 
ATOM     19  C   UNL     1       2.228   4.626  21.063  0.00  0.00    +0.000 C 
ATOM     20  O   UNL     1       1.115   3.932  20.452  0.00  0.00    +0.000 OA
ATOM     21  C   UNL     1       1.709   4.108  19.145  0.00  0.00    +0.000 C 
BRANCH  18  22
ATOM     22  C   UNL     1       4.146   4.915  19.296  0.00  0.00    +0.000 C 
BRANCH  22  24
ATOM     23  C   UNL     1       4.651   4.459  16.872  0.00  0.00    +0.000 C 
ATOM     24  C   UNL     1       4.265   3.846  18.207  0.00  0.00    +0.000 C 
ENDBRANCH  22  24
ENDBRANCH  18  22
ENDBRANCH  12  18
ENDBRANCH   1  16
BRANCH   9  25
ATOM     25  C   UNL     1      -2.099  10.219  16.978  0.00  0.00    +0.000 C 
ATOM     26  F   UNL     1      -2.428  10.865  15.830  0.00  0.00    +0.000 F 
ATOM     27  F   UNL     1      -1.236   9.233  16.614  0.00  0.00    +0.000 F 
ATOM     28  F   UNL     1      -3.234   9.591  17.398  0.00  0.00    +0.000 F 
ENDBRANCH   9  25
TORSDOF 5
ENDMDL
MODEL 6
REMARK VINA RESULT:      -7.7      1.128      1.526
REMARK  Name = 
REMARK  6 active torsions:
REMARK  status: ('A' for Active; 'I' for Inactive)
REMARK    1  A    between atoms: C_1  and  C_2
REMARK    2  A    between atoms: C_2  and  C_3
REMARK    3  A    between atoms: C_3  and  C_4
REMARK    4  A    between atoms: C_4  and  C_5
REMARK    5  A    between atoms: C_9  and  N_10
REMARK    6  A    between atoms: C_18  and  C_19
REMARK                            x       y       z     vdW  Elec       q    Type
REMARK                         _______ _______ _______ _____ _____    ______ ____
ROOT
ATOM      1  N   UNL     1       0.737   8.387  21.085  0.00  0.00    +0.000 N 
ATOM      2  C   UNL     1      -0.529   8.680  20.381  0.00  0.00    +0.000 C 
ATOM      3  C   UNL     1      -0.421  10.160  20.163  0.00  0.00    +0.000 A 
ATOM      4  C   UNL     1       0.409  10.671  21.170  0.00  0.00    +0.000 A 
ATOM      5  C   UNL     1       0.833  11.983  21.204  0.00  0.00    +0.000 A 
ATOM      6  C   UNL     1       0.409  12.794  20.162  0.00  0.00    +0.000 A 
ATOM      7  F   UNL     1       0.851  14.056  20.096  0.00  0.00    +0.000 F 
ATOM      8  C   UNL     1      -0.405  12.305  19.127  0.00  0.00    +0.000 A 
ATOM      9  C   UNL     1      -0.837  10.964  19.107  0.00  0.00    +0.000 A 
ATOM     10  C   UNL     1       1.041   9.527  21.859  0.00  0.00    +0.000 C 
ATOM     11  O   UNL     1       1.825   9.638  22.784  0.00  0.00    +0.000 OA
ENDROOT
BRANCH   1  16
ATOM     12  C   UNL     1       2.393   5.965  18.879  0.00  0.00    +0.000 A 
ATOM     13  C   UNL     1       2.533   6.800  17.753  0.00  0.00    +0.000 A 
ATOM     14  C   UNL     1       2.440   8.188  17.847  0.00  0.00    +0.000 A 
ATOM     15  C   UNL     1       2.096   8.780  19.055  0.00  0.00    +0.000 A 
ATOM     16  C   UNL     1       1.764   7.969  20.145  0.00  0.00    +0.000 A 
ATOM     17  C   UNL     1       2.070   6.605  20.090  0.00  0.00    +0.000 A 
BRANCH  12  18
ATOM     18  C   UNL     1       2.552   4.369  18.785  0.00  0.00    +0.000 C 
ATOM     19  C   UNL     1       3.078   3.761  17.448  0.00  0.00    +0.000 C 
ATOM     20  O   UNL     1       4.404   3.589  18.002  0.00  0.00    +0.000 OA
ATOM     21  C   UNL     1       3.882   3.771  19.338  0.00  0.00    +0.000 C 
BRANCH  18  22
ATOM     22  C   UNL     1       1.312   3.685  19.387  0.00  0.00    +0.000 C 
BRANCH  22  24
ATOM     23  C   UNL     1       1.470   2.690  21.695  0.00  0.00    +0.000 C 
ATOM     24  C   UNL     1       1.670   2.444  20.209  0.00  0.00    +0.000 C 
ENDBRANCH  22  24
ENDBRANCH  18  22
ENDBRANCH  12  18
ENDBRANCH   1  16
BRANCH   9  25
ATOM     25  C   UNL     1      -1.609  10.454  17.916  0.00  0.00    +0.000 C 
ATOM     26  F   UNL     1      -0.940   9.535  17.173  0.00  0.00    +0.000 F 
ATOM     27  F   UNL     1      -2.774   9.856  18.284  0.00  0.00    +0.000 F 
ATOM     28  F   UNL     1      -1.954  11.457  17.059  0.00  0.00    +0.000 F 
ENDBRANCH   9  25
TORSDOF 5
ENDMDL
MODEL 7
REMARK VINA RESULT:      -7.7      1.357      2.205
REMARK  Name = 
REMARK  6 active torsions:
REMARK  status: ('A' for Active; 'I' for Inactive)
REMARK    1  A    between atoms: C_1  and  C_2
REMARK    2  A    between atoms: C_2  and  C_3
REMARK    3  A    between atoms: C_3  and  C_4
REMARK    4  A    between atoms: C_4  and  C_5
REMARK    5  A    between atoms: C_9  and  N_10
REMARK    6  A    between atoms: C_18  and  C_19
REMARK                            x       y       z     vdW  Elec       q    Type
REMARK                         _______ _______ _______ _____ _____    ______ ____
ROOT
ATOM      1  N   UNL     1       0.713   8.384  21.094  0.00  0.00    +0.000 N 
ATOM      2  C   UNL     1      -0.546   8.689  20.381  0.00  0.00    +0.000 C 
ATOM      3  C   UNL     1      -0.410  10.161  20.136  0.00  0.00    +0.000 A 
ATOM      4  C   UNL     1       0.428  10.675  21.135  0.00  0.00    +0.000 A 
ATOM      5  C   UNL     1       0.876  11.979  21.146  0.00  0.00    +0.000 A 
ATOM      6  C   UNL     1       0.470  12.779  20.089  0.00  0.00    +0.000 A 
ATOM      7  F   UNL     1       0.936  14.031  20.000  0.00  0.00    +0.000 F 
ATOM      8  C   UNL     1      -0.351  12.286  19.061  0.00  0.00    +0.000 A 
ATOM      9  C   UNL     1      -0.809  10.954  19.065  0.00  0.00    +0.000 A 
ATOM     10  C   UNL     1       1.037   9.532  21.846  0.00  0.00    +0.000 C 
ATOM     11  O   UNL     1       1.820   9.646  22.772  0.00  0.00    +0.000 OA
ENDROOT
BRANCH   1  16
ATOM     12  C   UNL     1       2.372   5.869  18.996  0.00  0.00    +0.000 A 
ATOM     13  C   UNL     1       2.488   6.646  17.826  0.00  0.00    +0.000 A 
ATOM     14  C   UNL     1       2.379   8.036  17.848  0.00  0.00    +0.000 A 
ATOM     15  C   UNL     1       2.042   8.686  19.028  0.00  0.00    +0.000 A 
ATOM     16  C   UNL     1       1.733   7.930  20.163  0.00  0.00    +0.000 A 
ATOM     17  C   UNL     1       2.056   6.568  20.176  0.00  0.00    +0.000 A 
BRANCH  12  18
ATOM     18  C   UNL     1       2.549   4.273  18.983  0.00  0.00    +0.000 C 
ATOM     19  C   UNL     1       1.330   3.395  19.406  0.00  0.00    +0.000 C 
ATOM     20  O   UNL     1       1.014   3.099  18.025  0.00  0.00    +0.000 OA
ATOM     21  C   UNL     1       2.321   3.561  17.615  0.00  0.00    +0.000 C 
BRANCH  18  22
ATOM     22  C   UNL     1       3.898   3.893  19.619  0.00  0.00    +0.000 C 
BRANCH  22  24
ATOM     23  C   UNL     1       6.009   5.195  19.186  0.00  0.00    +0.000 C 
ATOM     24  C   UNL     1       5.076   4.114  18.667  0.00  0.00    +0.000 C 
ENDBRANCH  22  24
ENDBRANCH  18  22
ENDBRANCH  12  18
ENDBRANCH   1  16
BRANCH   9  25
ATOM     25  C   UNL     1      -1.588  10.436  17.882  0.00  0.00    +0.000 C 
ATOM     26  F   UNL     1      -1.950  11.396  16.991  0.00  0.00    +0.000 F 
ATOM     27  F   UNL     1      -0.880   9.518  17.170  0.00  0.00    +0.000 F 
ATOM     28  F   UNL     1      -2.741   9.814  18.258  0.00  0.00    +0.000 F 
ENDBRANCH   9  25
TORSDOF 5
ENDMDL
MODEL 8
REMARK VINA RESULT:      -7.7      3.620      7.809
REMARK  Name = 
REMARK  6 active torsions:
REMARK  status: ('A' for Active; 'I' for Inactive)
REMARK    1  A    between atoms: C_1  and  C_2
REMARK    2  A    between atoms: C_2  and  C_3
REMARK    3  A    between atoms: C_3  and  C_4
REMARK    4  A    between atoms: C_4  and  C_5
REMARK    5  A    between atoms: C_9  and  N_10
REMARK    6  A    between atoms: C_18  and  C_19
REMARK                            x       y       z     vdW  Elec       q    Type
REMARK                         _______ _______ _______ _____ _____    ______ ____
ROOT
ATOM      1  N   UNL     1       3.163   6.392  20.027  0.00  0.00    +0.000 N 
ATOM      2  C   UNL     1       4.385   6.136  19.237  0.00  0.00    +0.000 C 
ATOM      3  C   UNL     1       4.038   4.851  18.547  0.00  0.00    +0.000 A 
ATOM      4  C   UNL     1       3.099   4.187  19.347  0.00  0.00    +0.000 A 
ATOM      5  C   UNL     1       2.460   3.029  18.957  0.00  0.00    +0.000 A 
ATOM      6  C   UNL     1       2.779   2.544  17.697  0.00  0.00    +0.000 A 
ATOM      7  F   UNL     1       2.134   1.469  17.229  0.00  0.00    +0.000 F 
ATOM      8  C   UNL     1       3.699   3.200  16.863  0.00  0.00    +0.000 A 
ATOM      9  C   UNL     1       4.351   4.379  17.276  0.00  0.00    +0.000 A 
ATOM     10  C   UNL     1       2.644   5.132  20.388  0.00  0.00    +0.000 C 
ATOM     11  O   UNL     1       1.821   4.857  21.243  0.00  0.00    +0.000 OA
ENDROOT
BRANCH   1  16
ATOM     12  C   UNL     1       0.948   9.302  19.696  0.00  0.00    +0.000 A 
ATOM     13  C   UNL     1       1.451   9.784  18.471  0.00  0.00    +0.000 A 
ATOM     14  C   UNL     1       2.207   8.982  17.616  0.00  0.00    +0.000 A 
ATOM     15  C   UNL     1       2.576   7.703  18.011  0.00  0.00    +0.000 A 
ATOM     16  C   UNL     1       2.254   7.264  19.300  0.00  0.00    +0.000 A 
ATOM     17  C   UNL     1       1.322   7.992  20.048  0.00  0.00    +0.000 A 
BRANCH  12  18
ATOM     18  C   UNL     1       0.033  10.205  20.659  0.00  0.00    +0.000 C 
ATOM     19  C   UNL     1      -0.375   9.619  22.045  0.00  0.00    +0.000 C 
ATOM     20  O   UNL     1       0.635  10.405  22.720  0.00  0.00    +0.000 OA
ATOM     21  C   UNL     1       0.779  11.243  21.551  0.00  0.00    +0.000 C 
BRANCH  18  22
ATOM     22  C   UNL     1      -1.104  10.848  19.845  0.00  0.00    +0.000 C 
BRANCH  22  24
ATOM     23  C   UNL     1      -0.679  12.876  18.413  0.00  0.00    +0.000 C 
ATOM     24  C   UNL     1      -1.007  12.376  19.810  0.00  0.00    +0.000 C 
ENDBRANCH  22  24
ENDBRANCH  18  22
ENDBRANCH  12  18
ENDBRANCH   1  16
BRANCH   9  25
ATOM     25  C   UNL     1       5.239   5.113  16.302  0.00  0.00    +0.000 C 
ATOM     26  F   UNL     1       6.495   5.345  16.762  0.00  0.00    +0.000 F 
ATOM     27  F   UNL     1       5.390   4.428  15.137  0.00  0.00    +0.000 F 
ATOM     28  F   UNL     1       4.729   6.331  15.960  0.00  0.00    +0.000 F 
ENDBRANCH   9  25
TORSDOF 5
ENDMDL
MODEL 9
REMARK VINA RESULT:      -7.7      4.136      8.053
REMARK  Name = 
REMARK  6 active torsions:
REMARK  status: ('A' for Active; 'I' for Inactive)
REMARK    1  A    between atoms: C_1  and  C_2
REMARK    2  A    between atoms: C_2  and  C_3
REMARK    3  A    between atoms: C_3  and  C_4
REMARK    4  A    between atoms: C_4  and  C_5
REMARK    5  A    between atoms: C_9  and  N_10
REMARK    6  A    between atoms: C_18  and  C_19
REMARK                            x       y       z     vdW  Elec       q    Type
REMARK                         _______ _______ _______ _____ _____    ______ ____
ROOT
ATOM      1  N   UNL     1       3.563   5.334  19.350  0.00  0.00    +0.000 N 
ATOM      2  C   UNL     1       4.971   5.770  19.457  0.00  0.00    +0.000 C 
ATOM      3  C   UNL     1       5.553   5.235  18.183  0.00  0.00    +0.000 A 
ATOM      4  C   UNL     1       4.781   4.129  17.804  0.00  0.00    +0.000 A 
ATOM      5  C   UNL     1       4.953   3.465  16.607  0.00  0.00    +0.000 A 
ATOM      6  C   UNL     1       5.934   3.961  15.762  0.00  0.00    +0.000 A 
ATOM      7  F   UNL     1       6.095   3.409  14.553  0.00  0.00    +0.000 F 
ATOM      8  C   UNL     1       6.709   5.081  16.106  0.00  0.00    +0.000 A 
ATOM      9  C   UNL     1       6.529   5.747  17.334  0.00  0.00    +0.000 A 
ATOM     10  C   UNL     1       3.572   4.109  18.653  0.00  0.00    +0.000 C 
ATOM     11  O   UNL     1       2.695   3.268  18.567  0.00  0.00    +0.000 OA
ENDROOT
BRANCH   1  16
ATOM     12  C   UNL     1       1.652   8.467  19.474  0.00  0.00    +0.000 A 
ATOM     13  C   UNL     1       2.192   9.063  18.317  0.00  0.00    +0.000 A 
ATOM     14  C   UNL     1       2.856   8.318  17.343  0.00  0.00    +0.000 A 
ATOM     15  C   UNL     1       3.096   6.966  17.549  0.00  0.00    +0.000 A 
ATOM     16  C   UNL     1       2.741   6.385  18.771  0.00  0.00    +0.000 A 
ATOM     17  C   UNL     1       1.894   7.090  19.633  0.00  0.00    +0.000 A 
BRANCH  12  18
ATOM     18  C   UNL     1       0.840   9.313  20.572  0.00  0.00    +0.000 C 
ATOM     19  C   UNL     1      -0.266   8.580  21.392  0.00  0.00    +0.000 C 
ATOM     20  O   UNL     1       0.611   8.450  22.536  0.00  0.00    +0.000 OA
ATOM     21  C   UNL     1       1.504   9.441  21.977  0.00  0.00    +0.000 C 
BRANCH  18  22
ATOM     22  C   UNL     1       0.444  10.680  19.988  0.00  0.00    +0.000 C 
BRANCH  22  24
ATOM     23  C   UNL     1      -1.254  10.368  18.155  0.00  0.00    +0.000 C 
ATOM     24  C   UNL     1      -1.038  10.747  19.610  0.00  0.00    +0.000 C 
ENDBRANCH  22  24
ENDBRANCH  18  22
ENDBRANCH  12  18
ENDBRANCH   1  16
BRANCH   9  25
ATOM     25  C   UNL     1       7.299   7.015  17.608  0.00  0.00    +0.000 C 
ATOM     26  F   UNL     1       8.071   6.967  18.723  0.00  0.00    +0.000 F 
ATOM     27  F   UNL     1       8.141   7.328  16.587  0.00  0.00    +0.000 F 
ATOM     28  F   UNL     1       6.477   8.092  17.762  0.00  0.00    +0.000 F 
ENDBRANCH   9  25
TORSDOF 5
ENDMDL
