MODEL 1
REMARK VINA RESULT:      -8.1      0.000      0.000
REMARK  Name = 
REMARK  8 active torsions:
REMARK  status: ('A' for Active; 'I' for Inactive)
REMARK    1  A    between atoms: C_1  and  C_2
REMARK    2  A    between atoms: N_4  and  C_5
REMARK    3  A    between atoms: C_5  and  C_6
REMARK    4  A    between atoms: N_9  and  C_10
REMARK    5  A    between atoms: C_14  and  C_15
REMARK    6  A    between atoms: C_15  and  C_16
REMARK    7  A    between atoms: C_16  and  C_17
REMARK    8  A    between atoms: N_21  and  C_22
REMARK                            x       y       z     vdW  Elec       q    Type
REMARK                         _______ _______ _______ _____ _____    ______ ____
ROOT
ATOM      1  C   UNL     1       2.795   6.156  18.195  0.00  0.00    +0.000 A 
ATOM      2  C   UNL     1       1.969   5.043  18.319  0.00  0.00    +0.000 A 
ATOM      3  C   UNL     1       2.304   3.818  17.747  0.00  0.00    +0.000 A 
ATOM      4  C   UNL     1       3.477   3.705  17.016  0.00  0.00    +0.000 A 
ATOM      5  C   UNL     1       4.332   4.804  16.802  0.00  0.00    +0.000 A 
ATOM      6  C   UNL     1       4.000   5.988  17.480  0.00  0.00    +0.000 A 
ENDROOT
BRANCH   1  10
ATOM      7  C   UNL     1       1.453   8.972  20.056  0.00  0.00    +0.000 C 
ATOM      8  C   UNL     1       1.361   9.412  18.789  0.00  0.00    +0.000 C 
ATOM      9  C   UNL     1       1.897   8.410  17.818  0.00  0.00    +0.000 C 
ATOM     10  N   UNL     1       2.448   7.388  18.705  0.00  0.00    +0.000 N 
ATOM     11  C   UNL     1       2.109   7.630  20.105  0.00  0.00    +0.000 C 
BRANCH   7  12
ATOM     12  C   UNL     1       1.048   9.680  21.310  0.00  0.00    +0.000 C 
BRANCH  12  16
ATOM     13  C   UNL     1      -2.039  12.232  23.200  0.00  0.00    +0.000 C 
ATOM     14  C   UNL     1      -0.863  11.452  22.657  0.00  0.00    +0.000 C 
ATOM     15  C   UNL     1      -0.933  11.095  21.161  0.00  0.00    +0.000 C 
ATOM     16  N   UNL     1      -0.415   9.737  21.464  0.00  0.00    +0.000 NA
ATOM     17  C   UNL     1      -0.808   9.927  22.882  0.00  0.00    +0.000 C 
ENDBRANCH  12  16
ENDBRANCH   7  12
ENDBRANCH   1  10
BRANCH   5  18
ATOM     18  C   UNL     1       5.554   4.708  15.778  0.00  0.00    +0.000 C 
ATOM     19  C   UNL     1       5.094   4.656  14.290  0.00  0.00    +0.000 C 
ATOM     20  O   UNL     1       6.169   3.738  13.970  0.00  0.00    +0.000 OA
ATOM     21  C   UNL     1       6.221   3.358  15.383  0.00  0.00    +0.000 C 
BRANCH  18  22
ATOM     22  C   UNL     1       6.592   5.823  16.098  0.00  0.00    +0.000 C 
BRANCH  22  23
ATOM     23  C   UNL     1       7.218   5.769  17.471  0.00  0.00    +0.000 A 
ATOM     24  N   UNL     1       7.405   4.697  18.202  0.00  0.00    +0.000 NA
ATOM     25  N   UNL     1       8.013   5.066  19.382  0.00  0.00    +0.000 NA
ATOM     26  C   UNL     1       8.207   6.365  19.337  0.00  0.00    +0.000 A 
ATOM     27  N   UNL     1       7.746   6.847  18.144  0.00  0.00    +0.000 N 
ATOM     28  C   UNL     1       7.808   8.230  17.767  0.00  0.00    +0.000 C 
ENDBRANCH  22  23
ENDBRANCH  18  22
ENDBRANCH   5  18
TORSDOF 6
ENDMDL
MODEL 2
REMARK VINA RESULT:      -8.0      2.845      4.789
REMARK  Name = 
REMARK  8 active torsions:
REMARK  status: ('A' for Active; 'I' for Inactive)
REMARK    1  A    between atoms: C_1  and  C_2
REMARK    2  A    between atoms: N_4  and  C_5
REMARK    3  A    between atoms: C_5  and  C_6
REMARK    4  A    between atoms: N_9  and  C_10
REMARK    5  A    between atoms: C_14  and  C_15
REMARK    6  A    between atoms: C_15  and  C_16
REMARK    7  A    between atoms: C_16  and  C_17
REMARK    8  A    between atoms: N_21  and  C_22
REMARK                            x       y       z     vdW  Elec       q    Type
REMARK                         _______ _______ _______ _____ _____    ______ ____
ROOT
ATOM      1  C   UNL     1       1.152   8.894  19.856  0.00  0.00    +0.000 A 
ATOM      2  C   UNL     1       1.415   9.860  18.889  0.00  0.00    +0.000 A 
ATOM      3  C   UNL     1       2.148   9.565  17.743  0.00  0.00    +0.000 A 
ATOM      4  C   UNL     1       2.649   8.283  17.565  0.00  0.00    +0.000 A 
ATOM      5  C   UNL     1       2.469   7.271  18.529  0.00  0.00    +0.000 A 
ATOM      6  C   UNL     1       1.642   7.593  19.617  0.00  0.00    +0.000 A 
ENDROOT
BRANCH   1  10
ATOM      7  C   UNL     1      -0.625  10.408  22.640  0.00  0.00    +0.000 C 
ATOM      8  C   UNL     1       0.219   9.574  23.273  0.00  0.00    +0.000 C 
ATOM      9  C   UNL     1       1.054   8.798  22.308  0.00  0.00    +0.000 C 
ATOM     10  N   UNL     1       0.479   9.187  21.022  0.00  0.00    +0.000 N 
ATOM     11  C   UNL     1      -0.497  10.265  21.157  0.00  0.00    +0.000 C 
BRANCH   7  12
ATOM     12  C   UNL     1      -1.631  11.335  23.243  0.00  0.00    +0.000 C 
BRANCH  12  16
ATOM     13  C   UNL     1      -4.008  15.072  23.251  0.00  0.00    +0.000 C 
ATOM     14  C   UNL     1      -3.288  13.750  23.401  0.00  0.00    +0.000 C 
ATOM     15  C   UNL     1      -1.795  13.759  23.028  0.00  0.00    +0.000 C 
ATOM     16  N   UNL     1      -1.962  12.452  22.343  0.00  0.00    +0.000 NA
ATOM     17  C   UNL     1      -3.425  12.693  22.286  0.00  0.00    +0.000 C 
ENDBRANCH  12  16
ENDBRANCH   7  12
ENDBRANCH   1  10
BRANCH   5  18
ATOM     18  C   UNL     1       3.239   5.877  18.409  0.00  0.00    +0.000 C 
ATOM     19  C   UNL     1       4.501   5.803  19.319  0.00  0.00    +0.000 C 
ATOM     20  O   UNL     1       5.207   5.038  18.310  0.00  0.00    +0.000 OA
ATOM     21  C   UNL     1       4.296   5.587  17.304  0.00  0.00    +0.000 C 
BRANCH  18  22
ATOM     22  C   UNL     1       2.230   4.706  18.600  0.00  0.00    +0.000 C 
BRANCH  22  23
ATOM     23  C   UNL     1       2.335   3.948  19.901  0.00  0.00    +0.000 A 
ATOM     24  N   UNL     1       1.786   4.280  21.045  0.00  0.00    +0.000 NA
ATOM     25  N   UNL     1       2.109   3.327  21.985  0.00  0.00    +0.000 NA
ATOM     26  C   UNL     1       2.838   2.412  21.386  0.00  0.00    +0.000 A 
ATOM     27  N   UNL     1       2.985   2.747  20.069  0.00  0.00    +0.000 N 
ATOM     28  C   UNL     1       3.724   1.958  19.125  0.00  0.00    +0.000 C 
ENDBRANCH  22  23
ENDBRANCH  18  22
ENDBRANCH   5  18
TORSDOF 6
ENDMDL
MODEL 3
REMARK VINA RESULT:      -8.0      2.015      3.325
REMARK  Name = 
REMARK  8 active torsions:
REMARK  status: ('A' for Active; 'I' for Inactive)
REMARK    1  A    between atoms: C_1  and  C_2
REMARK    2  A    between atoms: N_4  and  C_5
REMARK    3  A    between atoms: C_5  and  C_6
REMARK    4  A    between atoms: N_9  and  C_10
REMARK    5  A    between atoms: C_14  and  C_15
REMARK    6  A    between atoms: C_15  and  C_16
REMARK    7  A    between atoms: C_16  and  C_17
REMARK    8  A    between atoms: N_21  and  C_22
REMARK                            x       y       z     vdW  Elec       q    Type
REMARK                         _______ _______ _______ _____ _____    ______ ____
ROOT
ATOM      1  C   UNL     1       1.991   7.848  19.206  0.00  0.00    +0.000 A 
ATOM      2  C   UNL     1       2.700   8.446  18.168  0.00  0.00    +0.000 A 
ATOM      3  C   UNL     1       3.478   7.699  17.289  0.00  0.00    +0.000 A 
ATOM      4  C   UNL     1       3.570   6.325  17.460  0.00  0.00    +0.000 A 
ATOM      5  C   UNL     1       2.925   5.660  18.521  0.00  0.00    +0.000 A 
ATOM      6  C   UNL     1       2.077   6.444  19.319  0.00  0.00    +0.000 A 
ENDROOT
BRANCH   1  10
ATOM      7  C   UNL     1       0.375  10.408  21.213  0.00  0.00    +0.000 C 
ATOM      8  C   UNL     1       0.768   9.530  22.153  0.00  0.00    +0.000 C 
ATOM      9  C   UNL     1       1.448   8.345  21.548  0.00  0.00    +0.000 C 
ATOM     10  N   UNL     1       1.266   8.583  20.118  0.00  0.00    +0.000 N 
ATOM     11  C   UNL     1       0.700   9.901  19.845  0.00  0.00    +0.000 C 
BRANCH   7  12
ATOM     12  C   UNL     1      -0.351  11.701  21.405  0.00  0.00    +0.000 C 
BRANCH  12  16
ATOM     13  C   UNL     1      -3.384  13.721  23.923  0.00  0.00    +0.000 C 
ATOM     14  C   UNL     1      -2.425  13.118  22.921  0.00  0.00    +0.000 C 
ATOM     15  C   UNL     1      -2.025  11.654  23.178  0.00  0.00    +0.000 C 
ATOM     16  N   UNL     1      -0.620  11.979  22.825  0.00  0.00    +0.000 NA
ATOM     17  C   UNL     1      -0.917  13.415  23.055  0.00  0.00    +0.000 C 
ENDBRANCH  12  16
ENDBRANCH   7  12
ENDBRANCH   1  10
BRANCH   5  18
ATOM     18  C   UNL     1       3.223   4.121  18.829  0.00  0.00    +0.000 C 
ATOM     19  C   UNL     1       2.009   3.195  18.518  0.00  0.00    +0.000 C 
ATOM     20  O   UNL     1       2.328   2.362  19.661  0.00  0.00    +0.000 OA
ATOM     21  C   UNL     1       3.051   3.494  20.243  0.00  0.00    +0.000 C 
BRANCH  18  22
ATOM     22  C   UNL     1       4.554   3.699  18.141  0.00  0.00    +0.000 C 
BRANCH  22  23
ATOM     23  C   UNL     1       5.792   4.438  18.587  0.00  0.00    +0.000 A 
ATOM     24  N   UNL     1       6.077   4.817  19.810  0.00  0.00    +0.000 NA
ATOM     25  N   UNL     1       7.300   5.450  19.804  0.00  0.00    +0.000 NA
ATOM     26  C   UNL     1       7.753   5.424  18.571  0.00  0.00    +0.000 A 
ATOM     27  N   UNL     1       6.851   4.775  17.775  0.00  0.00    +0.000 N 
ATOM     28  C   UNL     1       7.036   4.566  16.368  0.00  0.00    +0.000 C 
ENDBRANCH  22  23
ENDBRANCH  18  22
ENDBRANCH   5  18
TORSDOF 6
ENDMDL
MODEL 4
REMARK VINA RESULT:      -8.0      1.067      1.521
REMARK  Name = 
REMARK  8 active torsions:
REMARK  status: ('A' for Active; 'I' for Inactive)
REMARK    1  A    between atoms: C_1  and  C_2
REMARK    2  A    between atoms: N_4  and  C_5
REMARK    3  A    between atoms: C_5  and  C_6
REMARK    4  A    between atoms: N_9  and  C_10
REMARK    5  A    between atoms: C_14  and  C_15
REMARK    6  A    between atoms: C_15  and  C_16
REMARK    7  A    between atoms: C_16  and  C_17
REMARK    8  A    between atoms: N_21  and  C_22
REMARK                            x       y       z     vdW  Elec       q    Type
REMARK                         _______ _______ _______ _____ _____    ______ ____
ROOT
ATOM      1  C   UNL     1       2.894   6.146  18.351  0.00  0.00    +0.000 A 
ATOM      2  C   UNL     1       2.116   5.025  18.624  0.00  0.00    +0.000 A 
ATOM      3  C   UNL     1       2.502   3.751  18.216  0.00  0.00    +0.000 A 
ATOM      4  C   UNL     1       3.680   3.592  17.500  0.00  0.00    +0.000 A 
ATOM      5  C   UNL     1       4.488   4.689  17.140  0.00  0.00    +0.000 A 
ATOM      6  C   UNL     1       4.105   5.936  17.659  0.00  0.00    +0.000 A 
ENDROOT
BRANCH   1  10
ATOM      7  C   UNL     1       1.275   9.117  19.672  0.00  0.00    +0.000 C 
ATOM      8  C   UNL     1       1.534   9.486  18.405  0.00  0.00    +0.000 C 
ATOM      9  C   UNL     1       2.245   8.409  17.653  0.00  0.00    +0.000 C 
ATOM     10  N   UNL     1       2.495   7.418  18.697  0.00  0.00    +0.000 N 
ATOM     11  C   UNL     1       1.824   7.754  19.950  0.00  0.00    +0.000 C 
BRANCH   7  12
ATOM     12  C   UNL     1       0.601   9.912  20.745  0.00  0.00    +0.000 C 
BRANCH  12  16
ATOM     13  C   UNL     1      -0.772  13.815  22.325  0.00  0.00    +0.000 C 
ATOM     14  C   UNL     1      -0.323  12.418  21.957  0.00  0.00    +0.000 C 
ATOM     15  C   UNL     1       0.817  12.335  20.925  0.00  0.00    +0.000 C 
ATOM     16  N   UNL     1       0.119  11.211  20.250  0.00  0.00    +0.000 NA
ATOM     17  C   UNL     1      -1.140  11.618  20.922  0.00  0.00    +0.000 C 
ENDBRANCH  12  16
ENDBRANCH   7  12
ENDBRANCH   1  10
BRANCH   5  18
ATOM     18  C   UNL     1       5.714   4.511  16.131  0.00  0.00    +0.000 C 
ATOM     19  C   UNL     1       5.621   5.453  14.894  0.00  0.00    +0.000 C 
ATOM     20  O   UNL     1       6.182   4.422  14.043  0.00  0.00    +0.000 OA
ATOM     21  C   UNL     1       5.740   3.423  15.017  0.00  0.00    +0.000 C 
BRANCH  18  22
ATOM     22  C   UNL     1       7.054   4.601  16.917  0.00  0.00    +0.000 C 
BRANCH  22  23
ATOM     23  C   UNL     1       7.481   5.985  17.341  0.00  0.00    +0.000 A 
ATOM     24  N   UNL     1       7.542   7.051  16.578  0.00  0.00    +0.000 NA
ATOM     25  N   UNL     1       7.966   8.116  17.341  0.00  0.00    +0.000 NA
ATOM     26  C   UNL     1       8.136   7.682  18.570  0.00  0.00    +0.000 A 
ATOM     27  N   UNL     1       7.818   6.353  18.623  0.00  0.00    +0.000 N 
ATOM     28  C   UNL     1       7.889   5.566  19.820  0.00  0.00    +0.000 C 
ENDBRANCH  22  23
ENDBRANCH  18  22
ENDBRANCH   5  18
TORSDOF 6
ENDMDL
MODEL 5
REMARK VINA RESULT:      -7.9      2.896      5.001
REMARK  Name = 
REMARK  8 active torsions:
REMARK  status: ('A' for Active; 'I' for Inactive)
REMARK    1  A    between atoms: C_1  and  C_2
REMARK    2  A    between atoms: N_4  and  C_5
REMARK    3  A    between atoms: C_5  and  C_6
REMARK    4  A    between atoms: N_9  and  C_10
REMARK    5  A    between atoms: C_14  and  C_15
REMARK    6  A    between atoms: C_15  and  C_16
REMARK    7  A    between atoms: C_16  and  C_17
REMARK    8  A    between atoms: N_21  and  C_22
REMARK                            x       y       z     vdW  Elec       q    Type
REMARK                         _______ _______ _______ _____ _____    ______ ____
ROOT
ATOM      1  C   UNL     1       0.897   9.365  19.869  0.00  0.00    +0.000 A 
ATOM      2  C   UNL     1       1.251  10.309  18.909  0.00  0.00    +0.000 A 
ATOM      3  C   UNL     1       2.041   9.975  17.813  0.00  0.00    +0.000 A 
ATOM      4  C   UNL     1       2.509   8.675  17.680  0.00  0.00    +0.000 A 
ATOM      5  C   UNL     1       2.237   7.682  18.642  0.00  0.00    +0.000 A 
ATOM      6  C   UNL     1       1.357   8.045  19.675  0.00  0.00    +0.000 A 
ENDROOT
BRANCH   1  10
ATOM      7  C   UNL     1      -0.801  10.978  22.646  0.00  0.00    +0.000 C 
ATOM      8  C   UNL     1      -0.301   9.877  23.233  0.00  0.00    +0.000 C 
ATOM      9  C   UNL     1       0.433   9.017  22.255  0.00  0.00    +0.000 C 
ATOM     10  N   UNL     1       0.166   9.695  20.989  0.00  0.00    +0.000 N 
ATOM     11  C   UNL     1      -0.507  10.977  21.179  0.00  0.00    +0.000 C 
BRANCH   7  12
ATOM     12  C   UNL     1      -1.608  12.070  23.271  0.00  0.00    +0.000 C 
BRANCH  12  16
ATOM     13  C   UNL     1      -5.422  14.323  23.243  0.00  0.00    +0.000 C 
ATOM     14  C   UNL     1      -4.042  13.708  23.315  0.00  0.00    +0.000 C 
ATOM     15  C   UNL     1      -3.687  12.732  22.179  0.00  0.00    +0.000 C 
ATOM     16  N   UNL     1      -3.055  11.819  23.164  0.00  0.00    +0.000 NA
ATOM     17  C   UNL     1      -3.808  12.500  24.246  0.00  0.00    +0.000 C 
ENDBRANCH  12  16
ENDBRANCH   7  12
ENDBRANCH   1  10
BRANCH   5  18
ATOM     18  C   UNL     1       2.965   6.262  18.586  0.00  0.00    +0.000 C 
ATOM     19  C   UNL     1       4.214   6.259  17.655  0.00  0.00    +0.000 C 
ATOM     20  O   UNL     1       3.917   4.905  17.229  0.00  0.00    +0.000 OA
ATOM     21  C   UNL     1       2.523   5.124  17.620  0.00  0.00    +0.000 C 
BRANCH  18  22
ATOM     22  C   UNL     1       3.232   5.755  20.033  0.00  0.00    +0.000 C 
BRANCH  22  23
ATOM     23  C   UNL     1       2.522   4.483  20.430  0.00  0.00    +0.000 A 
ATOM     24  N   UNL     1       1.284   4.378  20.849  0.00  0.00    +0.000 NA
ATOM     25  N   UNL     1       1.012   3.051  21.098  0.00  0.00    +0.000 NA
ATOM     26  C   UNL     1       2.092   2.364  20.803  0.00  0.00    +0.000 A 
ATOM     27  N   UNL     1       3.060   3.218  20.354  0.00  0.00    +0.000 N 
ATOM     28  C   UNL     1       4.367   2.795  19.942  0.00  0.00    +0.000 C 
ENDBRANCH  22  23
ENDBRANCH  18  22
ENDBRANCH   5  18
TORSDOF 6
ENDMDL
MODEL 6
REMARK VINA RESULT:      -7.8      2.238      3.116
REMARK  Name = 
REMARK  8 active torsions:
REMARK  status: ('A' for Active; 'I' for Inactive)
REMARK    1  A    between atoms: C_1  and  C_2
REMARK    2  A    between atoms: N_4  and  C_5
REMARK    3  A    between atoms: C_5  and  C_6
REMARK    4  A    between atoms: N_9  and  C_10
REMARK    5  A    between atoms: C_14  and  C_15
REMARK    6  A    between atoms: C_15  and  C_16
REMARK    7  A    between atoms: C_16  and  C_17
REMARK    8  A    between atoms: N_21  and  C_22
REMARK                            x       y       z     vdW  Elec       q    Type
REMARK                         _______ _______ _______ _____ _____    ______ ____
ROOT
ATOM      1  C   UNL     1       2.224   6.899  19.695  0.00  0.00    +0.000 A 
ATOM      2  C   UNL     1       1.683   6.420  20.885  0.00  0.00    +0.000 A 
ATOM      3  C   UNL     1       1.861   5.100  21.289  0.00  0.00    +0.000 A 
ATOM      4  C   UNL     1       2.575   4.229  20.479  0.00  0.00    +0.000 A 
ATOM      5  C   UNL     1       3.102   4.630  19.235  0.00  0.00    +0.000 A 
ATOM      6  C   UNL     1       2.979   5.993  18.921  0.00  0.00    +0.000 A 
ENDROOT
BRANCH   1  10
ATOM      7  C   UNL     1       0.895  10.143  18.742  0.00  0.00    +0.000 C 
ATOM      8  C   UNL     1       1.735   9.880  17.725  0.00  0.00    +0.000 C 
ATOM      9  C   UNL     1       2.440   8.577  17.916  0.00  0.00    +0.000 C 
ATOM     10  N   UNL     1       2.006   8.186  19.255  0.00  0.00    +0.000 N 
ATOM     11  C   UNL     1       0.963   9.065  19.777  0.00  0.00    +0.000 C 
BRANCH   7  12
ATOM     12  C   UNL     1       0.026  11.344  18.934  0.00  0.00    +0.000 C 
BRANCH  12  16
ATOM     13  C   UNL     1      -3.983  11.439  17.055  0.00  0.00    +0.000 C 
ATOM     14  C   UNL     1      -2.561  11.521  17.563  0.00  0.00    +0.000 C 
ATOM     15  C   UNL     1      -1.981  10.214  18.133  0.00  0.00    +0.000 C 
ATOM     16  N   UNL     1      -1.364  10.977  19.247  0.00  0.00    +0.000 NA
ATOM     17  C   UNL     1      -2.300  12.095  18.970  0.00  0.00    +0.000 C 
ENDBRANCH  12  16
ENDBRANCH   7  12
ENDBRANCH   1  10
BRANCH   5  18
ATOM     18  C   UNL     1       3.723   3.561  18.223  0.00  0.00    +0.000 C 
ATOM     19  C   UNL     1       2.643   2.861  17.345  0.00  0.00    +0.000 C 
ATOM     20  O   UNL     1       3.377   1.613  17.404  0.00  0.00    +0.000 OA
ATOM     21  C   UNL     1       4.022   2.088  18.629  0.00  0.00    +0.000 C 
BRANCH  18  22
ATOM     22  C   UNL     1       4.887   4.215  17.424  0.00  0.00    +0.000 C 
BRANCH  22  23
ATOM     23  C   UNL     1       5.975   4.859  18.248  0.00  0.00    +0.000 A 
ATOM     24  N   UNL     1       6.391   4.474  19.431  0.00  0.00    +0.000 NA
ATOM     25  N   UNL     1       7.403   5.314  19.839  0.00  0.00    +0.000 NA
ATOM     26  C   UNL     1       7.602   6.190  18.880  0.00  0.00    +0.000 A 
ATOM     27  N   UNL     1       6.745   5.928  17.848  0.00  0.00    +0.000 N 
ATOM     28  C   UNL     1       6.700   6.695  16.637  0.00  0.00    +0.000 C 
ENDBRANCH  22  23
ENDBRANCH  18  22
ENDBRANCH   5  18
TORSDOF 6
ENDMDL
MODEL 7
REMARK VINA RESULT:      -7.7      3.653     10.571
REMARK  Name = 
REMARK  8 active torsions:
REMARK  status: ('A' for Active; 'I' for Inactive)
REMARK    1  A    between atoms: C_1  and  C_2
REMARK    2  A    between atoms: N_4  and  C_5
REMARK    3  A    between atoms: C_5  and  C_6
REMARK    4  A    between atoms: N_9  and  C_10
REMARK    5  A    between atoms: C_14  and  C_15
REMARK    6  A    between atoms: C_15  and  C_16
REMARK    7  A    between atoms: C_16  and  C_17
REMARK    8  A    between atoms: N_21  and  C_22
REMARK                            x       y       z     vdW  Elec       q    Type
REMARK                         _______ _______ _______ _____ _____    ______ ____
ROOT
ATOM      1  C   UNL     1       0.603   9.316  20.759  0.00  0.00    +0.000 A 
ATOM      2  C   UNL     1       0.692   8.733  22.020  0.00  0.00    +0.000 A 
ATOM      3  C   UNL     1       0.141   9.338  23.146  0.00  0.00    +0.000 A 
ATOM      4  C   UNL     1      -0.495  10.565  23.017  0.00  0.00    +0.000 A 
ATOM      5  C   UNL     1      -0.573  11.239  21.783  0.00  0.00    +0.000 A 
ATOM      6  C   UNL     1      -0.089  10.542  20.665  0.00  0.00    +0.000 A 
ENDROOT
BRANCH   1  10
ATOM      7  C   UNL     1       2.710   7.594  18.353  0.00  0.00    +0.000 C 
ATOM      8  C   UNL     1       2.384   8.712  17.682  0.00  0.00    +0.000 C 
ATOM      9  C   UNL     1       1.471   9.587  18.479  0.00  0.00    +0.000 C 
ATOM     10  N   UNL     1       1.194   8.756  19.648  0.00  0.00    +0.000 N 
ATOM     11  C   UNL     1       2.018   7.550  19.678  0.00  0.00    +0.000 C 
BRANCH   7  12
ATOM     12  C   UNL     1       3.579   6.465  17.898  0.00  0.00    +0.000 C 
BRANCH  12  16
ATOM     13  C   UNL     1       6.996   4.952  15.520  0.00  0.00    +0.000 C 
ATOM     14  C   UNL     1       5.779   5.293  16.352  0.00  0.00    +0.000 C 
ATOM     15  C   UNL     1       5.021   6.566  15.934  0.00  0.00    +0.000 C 
ATOM     16  N   UNL     1       4.865   6.939  17.362  0.00  0.00    +0.000 NA
ATOM     17  C   UNL     1       5.973   6.012  17.703  0.00  0.00    +0.000 C 
ENDBRANCH  12  16
ENDBRANCH   7  12
ENDBRANCH   1  10
BRANCH   5  18
ATOM     18  C   UNL     1      -1.108  12.742  21.700  0.00  0.00    +0.000 C 
ATOM     19  C   UNL     1      -2.177  12.943  20.584  0.00  0.00    +0.000 C 
ATOM     20  O   UNL     1      -1.655  14.264  20.296  0.00  0.00    +0.000 OA
ATOM     21  C   UNL     1      -0.381  13.854  20.889  0.00  0.00    +0.000 C 
BRANCH  18  22
ATOM     22  C   UNL     1      -1.549  13.218  23.115  0.00  0.00    +0.000 C 
BRANCH  22  23
ATOM     23  C   UNL     1      -3.018  13.077  23.433  0.00  0.00    +0.000 A 
ATOM     24  N   UNL     1      -3.627  11.991  23.847  0.00  0.00    +0.000 NA
ATOM     25  N   UNL     1      -4.961  12.277  24.033  0.00  0.00    +0.000 NA
ATOM     26  C   UNL     1      -5.138  13.548  23.749  0.00  0.00    +0.000 A 
ATOM     27  N   UNL     1      -3.939  14.098  23.391  0.00  0.00    +0.000 N 
ATOM     28  C   UNL     1      -3.774  15.475  23.021  0.00  0.00    +0.000 C 
ENDBRANCH  22  23
ENDBRANCH  18  22
ENDBRANCH   5  18
TORSDOF 6
ENDMDL
MODEL 8
REMARK VINA RESULT:      -7.7      1.748      2.528
REMARK  Name = 
REMARK  8 active torsions:
REMARK  status: ('A' for Active; 'I' for Inactive)
REMARK    1  A    between atoms: C_1  and  C_2
REMARK    2  A    between atoms: N_4  and  C_5
REMARK    3  A    between atoms: C_5  and  C_6
REMARK    4  A    between atoms: N_9  and  C_10
REMARK    5  A    between atoms: C_14  and  C_15
REMARK    6  A    between atoms: C_15  and  C_16
REMARK    7  A    between atoms: C_16  and  C_17
REMARK    8  A    between atoms: N_21  and  C_22
REMARK                            x       y       z     vdW  Elec       q    Type
REMARK                         _______ _______ _______ _____ _____    ______ ____
ROOT
ATOM      1  C   UNL     1       2.930   5.797  18.921  0.00  0.00    +0.000 A 
ATOM      2  C   UNL     1       2.641   4.624  19.612  0.00  0.00    +0.000 A 
ATOM      3  C   UNL     1       3.358   3.451  19.392  0.00  0.00    +0.000 A 
ATOM      4  C   UNL     1       4.371   3.440  18.443  0.00  0.00    +0.000 A 
ATOM      5  C   UNL     1       4.679   4.574  17.667  0.00  0.00    +0.000 A 
ATOM      6  C   UNL     1       3.995   5.755  17.997  0.00  0.00    +0.000 A 
ENDROOT
BRANCH   1  10
ATOM      7  C   UNL     1       1.573   9.167  18.945  0.00  0.00    +0.000 C 
ATOM      8  C   UNL     1       1.323   8.761  20.202  0.00  0.00    +0.000 C 
ATOM      9  C   UNL     1       1.776   7.355  20.427  0.00  0.00    +0.000 C 
ATOM     10  N   UNL     1       2.191   6.948  19.087  0.00  0.00    +0.000 N 
ATOM     11  C   UNL     1       2.187   8.064  18.145  0.00  0.00    +0.000 C 
BRANCH   7  12
ATOM     12  C   UNL     1       1.257  10.489  18.323  0.00  0.00    +0.000 C 
BRANCH  12  16
ATOM     13  C   UNL     1      -0.132  14.664  18.829  0.00  0.00    +0.000 C 
ATOM     14  C   UNL     1       0.290  13.254  18.481  0.00  0.00    +0.000 C 
ATOM     15  C   UNL     1       0.038  12.195  19.569  0.00  0.00    +0.000 C 
ATOM     16  N   UNL     1       1.367  11.595  19.288  0.00  0.00    +0.000 NA
ATOM     17  C   UNL     1       1.774  12.860  18.626  0.00  0.00    +0.000 C 
ENDBRANCH  12  16
ENDBRANCH   7  12
ENDBRANCH   1  10
BRANCH   5  18
ATOM     18  C   UNL     1       5.691   4.476  16.434  0.00  0.00    +0.000 C 
ATOM     19  C   UNL     1       5.301   5.416  15.255  0.00  0.00    +0.000 C 
ATOM     20  O   UNL     1       5.744   4.425  14.294  0.00  0.00    +0.000 OA
ATOM     21  C   UNL     1       5.561   3.397  15.320  0.00  0.00    +0.000 C 
BRANCH  18  22
ATOM     22  C   UNL     1       7.152   4.644  16.944  0.00  0.00    +0.000 C 
BRANCH  22  23
ATOM     23  C   UNL     1       7.547   6.037  17.370  0.00  0.00    +0.000 A 
ATOM     24  N   UNL     1       7.586   7.105  16.610  0.00  0.00    +0.000 NA
ATOM     25  N   UNL     1       7.985   8.179  17.375  0.00  0.00    +0.000 NA
ATOM     26  C   UNL     1       8.163   7.746  18.603  0.00  0.00    +0.000 A 
ATOM     27  N   UNL     1       7.875   6.411  18.654  0.00  0.00    +0.000 N 
ATOM     28  C   UNL     1       7.961   5.623  19.850  0.00  0.00    +0.000 C 
ENDBRANCH  22  23
ENDBRANCH  18  22
ENDBRANCH   5  18
TORSDOF 6
ENDMDL
MODEL 9
REMARK VINA RESULT:      -7.7      1.529      2.057
REMARK  Name = 
REMARK  8 active torsions:
REMARK  status: ('A' for Active; 'I' for Inactive)
REMARK    1  A    between atoms: C_1  and  C_2
REMARK    2  A    between atoms: N_4  and  C_5
REMARK    3  A    between atoms: C_5  and  C_6
REMARK    4  A    between atoms: N_9  and  C_10
REMARK    5  A    between atoms: C_14  and  C_15
REMARK    6  A    between atoms: C_15  and  C_16
REMARK    7  A    between atoms: C_16  and  C_17
REMARK    8  A    between atoms: N_21  and  C_22
REMARK                            x       y       z     vdW  Elec       q    Type
REMARK                         _______ _______ _______ _____ _____    ______ ____
ROOT
ATOM      1  C   UNL     1       2.688   5.392  18.431  0.00  0.00    +0.000 A 
ATOM      2  C   UNL     1       2.074   4.147  18.540  0.00  0.00    +0.000 A 
ATOM      3  C   UNL     1       2.645   3.001  17.996  0.00  0.00    +0.000 A 
ATOM      4  C   UNL     1       3.845   3.098  17.307  0.00  0.00    +0.000 A 
ATOM      5  C   UNL     1       4.494   4.333  17.109  0.00  0.00    +0.000 A 
ATOM      6  C   UNL     1       3.929   5.441  17.760  0.00  0.00    +0.000 A 
ENDROOT
BRANCH   1  10
ATOM      7  C   UNL     1       1.692   8.789  19.243  0.00  0.00    +0.000 C 
ATOM      8  C   UNL     1       1.628   8.190  20.445  0.00  0.00    +0.000 C 
ATOM      9  C   UNL     1       1.974   6.739  20.355  0.00  0.00    +0.000 C 
ATOM     10  N   UNL     1       2.106   6.543  18.913  0.00  0.00    +0.000 N 
ATOM     11  C   UNL     1       2.046   7.803  18.177  0.00  0.00    +0.000 C 
BRANCH   7  12
ATOM     12  C   UNL     1       1.403  10.218  18.908  0.00  0.00    +0.000 C 
BRANCH  12  16
ATOM     13  C   UNL     1      -2.283  12.406  20.024  0.00  0.00    +0.000 C 
ATOM     14  C   UNL     1      -0.963  11.697  19.812  0.00  0.00    +0.000 C 
ATOM     15  C   UNL     1      -0.347  11.842  18.409  0.00  0.00    +0.000 C 
ATOM     16  N   UNL     1       0.025  10.405  18.427  0.00  0.00    +0.000 NA
ATOM     17  C   UNL     1      -0.966  10.184  19.510  0.00  0.00    +0.000 C 
ENDBRANCH  12  16
ENDBRANCH   7  12
ENDBRANCH   1  10
BRANCH   5  18
ATOM     18  C   UNL     1       5.749   4.454  16.128  0.00  0.00    +0.000 C 
ATOM     19  C   UNL     1       5.572   5.566  15.052  0.00  0.00    +0.000 C 
ATOM     20  O   UNL     1       6.261   4.752  14.070  0.00  0.00    +0.000 OA
ATOM     21  C   UNL     1       5.918   3.568  14.859  0.00  0.00    +0.000 C 
BRANCH  18  22
ATOM     22  C   UNL     1       7.057   4.563  16.966  0.00  0.00    +0.000 C 
BRANCH  22  23
ATOM     23  C   UNL     1       7.474   5.958  17.362  0.00  0.00    +0.000 A 
ATOM     24  N   UNL     1       7.521   7.011  16.580  0.00  0.00    +0.000 NA
ATOM     25  N   UNL     1       7.941   8.093  17.321  0.00  0.00    +0.000 NA
ATOM     26  C   UNL     1       8.122   7.682  18.556  0.00  0.00    +0.000 A 
ATOM     27  N   UNL     1       7.816   6.352  18.635  0.00  0.00    +0.000 N 
ATOM     28  C   UNL     1       7.901   5.587  19.846  0.00  0.00    +0.000 C 
ENDBRANCH  22  23
ENDBRANCH  18  22
ENDBRANCH   5  18
TORSDOF 6
ENDMDL
