MODEL 1
REMARK VINA RESULT:      -7.3      0.000      0.000
REMARK  Name = 
REMARK  4 active torsions:
REMARK  status: ('A' for Active; 'I' for Inactive)
REMARK    1  A    between atoms: C_1  and  N_2
REMARK    2  A    between atoms: C_4  and  C_5
REMARK    3  A    between atoms: N_7  and  C_8
REMARK    4  A    between atoms: C_12  and  C_13
REMARK                            x       y       z     vdW  Elec       q    Type
REMARK                         _______ _______ _______ _____ _____    ______ ____
ROOT
ATOM      1  C   UNL     1      -2.431  13.653  21.486  0.00  0.00    +0.000 A 
ATOM      2  S   UNL     1      -2.833  14.123  23.067  0.00  0.00    +0.000 S 
ATOM      3  C   UNL     1      -4.442  13.605  22.864  0.00  0.00    +0.000 A 
ATOM      4  C   UNL     1      -4.663  12.993  21.638  0.00  0.00    +0.000 A 
ATOM      5  C   UNL     1      -3.460  12.979  20.847  0.00  0.00    +0.000 A 
ATOM      6  C   UNL     1      -5.978  12.328  21.329  0.00  0.00    +0.000 C 
ATOM      7  C   UNL     1      -7.096  12.746  22.305  0.00  0.00    +0.000 C 
ATOM      8  C   UNL     1      -6.618  12.789  23.764  0.00  0.00    +0.000 C 
ATOM      9  C   UNL     1      -5.462  13.781  23.947  0.00  0.00    +0.000 C 
ENDROOT
BRANCH   5  10
ATOM     10  C   UNL     1      -3.247  12.226  19.564  0.00  0.00    +0.000 A 
ATOM     11  N   UNL     1      -2.201  11.506  19.197  0.00  0.00    +0.000 NA
ATOM     12  C   UNL     1      -2.531  10.999  17.950  0.00  0.00    +0.000 A 
ATOM     13  C   UNL     1      -1.869  10.075  17.123  0.00  0.00    +0.000 A 
ATOM     14  C   UNL     1      -2.422   9.774  15.865  0.00  0.00    +0.000 A 
ATOM     15  C   UNL     1      -3.593  10.396  15.424  0.00  0.00    +0.000 A 
ATOM     16  C   UNL     1      -4.277  11.299  16.240  0.00  0.00    +0.000 A 
ATOM     17  C   UNL     1      -3.727  11.540  17.497  0.00  0.00    +0.000 A 
ATOM     18  N   UNL     1      -4.169  12.280  18.549  0.00  0.00    +0.000 N 
ATOM     19  H   UNL     1      -5.032  12.799  18.589  0.00  0.00    +0.000 HD
ENDBRANCH   5  10
BRANCH   1  22
ATOM     20  C   UNL     1      -0.062  13.222  21.438  0.00  0.00    +0.000 C 
ATOM     21  O   UNL     1      -0.063  12.202  22.109  0.00  0.00    +0.000 OA
ATOM     22  N   UNL     1      -1.148  14.023  21.112  0.00  0.00    +0.000 N 
ATOM     23  H   UNL     1      -1.052  14.597  20.283  0.00  0.00    +0.000 HD
BRANCH  20  27
ATOM     24  C   UNL     1       4.656  14.319  21.779  0.00  0.00    +0.000 C 
ATOM     25  N   UNL     1       3.463  14.227  20.956  0.00  0.00    +0.000 N 
ATOM     26  N   UNL     1       2.285  13.858  21.580  0.00  0.00    +0.000 NA
ATOM     27  C   UNL     1       1.256  13.664  20.811  0.00  0.00    +0.000 A 
ATOM     28  C   UNL     1       1.251  13.820  19.343  0.00  0.00    +0.000 A 
ATOM     29  C   UNL     1       2.390  14.207  18.770  0.00  0.00    +0.000 A 
ATOM     30  C   UNL     1       3.601  14.433  19.585  0.00  0.00    +0.000 A 
ATOM     31  O   UNL     1       4.639  14.770  19.025  0.00  0.00    +0.000 OA
ENDBRANCH  20  27
ENDBRANCH   1  22
TORSDOF 3
ENDMDL
MODEL 2
REMARK VINA RESULT:      -7.1      2.063      2.660
REMARK  Name = 
REMARK  4 active torsions:
REMARK  status: ('A' for Active; 'I' for Inactive)
REMARK    1  A    between atoms: C_1  and  N_2
REMARK    2  A    between atoms: C_4  and  C_5
REMARK    3  A    between atoms: N_7  and  C_8
REMARK    4  A    between atoms: C_12  and  C_13
REMARK                            x       y       z     vdW  Elec       q    Type
REMARK                         _______ _______ _______ _____ _____    ______ ____
ROOT
ATOM      1  C   UNL     1      -3.877  14.360  20.932  0.00  0.00    +0.000 A 
ATOM      2  S   UNL     1      -4.352  14.907  22.467  0.00  0.00    +0.000 S 
ATOM      3  C   UNL     1      -5.683  13.845  22.487  0.00  0.00    +0.000 A 
ATOM      4  C   UNL     1      -5.726  13.010  21.380  0.00  0.00    +0.000 A 
ATOM      5  C   UNL     1      -4.628  13.283  20.489  0.00  0.00    +0.000 A 
ATOM      6  C   UNL     1      -6.734  11.896  21.287  0.00  0.00    +0.000 C 
ATOM      7  C   UNL     1      -7.886  12.055  22.300  0.00  0.00    +0.000 C 
ATOM      8  C   UNL     1      -7.394  12.488  23.688  0.00  0.00    +0.000 C 
ATOM      9  C   UNL     1      -6.654  13.830  23.629  0.00  0.00    +0.000 C 
ENDROOT
BRANCH   5  10
ATOM     10  C   UNL     1      -4.218  12.457  19.303  0.00  0.00    +0.000 A 
ATOM     11  N   UNL     1      -4.906  12.194  18.206  0.00  0.00    +0.000 NA
ATOM     12  C   UNL     1      -4.059  11.427  17.421  0.00  0.00    +0.000 A 
ATOM     13  C   UNL     1      -4.193  10.955  16.104  0.00  0.00    +0.000 A 
ATOM     14  C   UNL     1      -3.176  10.145  15.569  0.00  0.00    +0.000 A 
ATOM     15  C   UNL     1      -2.062   9.785  16.332  0.00  0.00    +0.000 A 
ATOM     16  C   UNL     1      -1.900  10.262  17.634  0.00  0.00    +0.000 A 
ATOM     17  C   UNL     1      -2.903  11.100  18.117  0.00  0.00    +0.000 A 
ATOM     18  N   UNL     1      -3.017  11.791  19.284  0.00  0.00    +0.000 N 
ATOM     19  H   UNL     1      -2.341  11.814  20.029  0.00  0.00    +0.000 HD
ENDBRANCH   5  10
BRANCH   1  22
ATOM     20  C   UNL     1      -1.518  14.626  20.526  0.00  0.00    +0.000 C 
ATOM     21  O   UNL     1      -1.129  13.650  21.148  0.00  0.00    +0.000 OA
ATOM     22  N   UNL     1      -2.823  15.082  20.393  0.00  0.00    +0.000 N 
ATOM     23  H   UNL     1      -3.019  15.659  19.584  0.00  0.00    +0.000 HD
BRANCH  20  27
ATOM     24  C   UNL     1      -0.184  18.609  18.090  0.00  0.00    +0.000 C 
ATOM     25  N   UNL     1       0.145  17.271  18.549  0.00  0.00    +0.000 N 
ATOM     26  N   UNL     1      -0.836  16.572  19.229  0.00  0.00    +0.000 NA
ATOM     27  C   UNL     1      -0.489  15.428  19.736  0.00  0.00    +0.000 A 
ATOM     28  C   UNL     1       0.854  14.824  19.630  0.00  0.00    +0.000 A 
ATOM     29  C   UNL     1       1.772  15.503  18.944  0.00  0.00    +0.000 A 
ATOM     30  C   UNL     1       1.446  16.816  18.351  0.00  0.00    +0.000 A 
ATOM     31  O   UNL     1       2.319  17.426  17.741  0.00  0.00    +0.000 OA
ENDBRANCH  20  27
ENDBRANCH   1  22
TORSDOF 3
ENDMDL
MODEL 3
REMARK VINA RESULT:      -7.1      4.014      6.096
REMARK  Name = 
REMARK  4 active torsions:
REMARK  status: ('A' for Active; 'I' for Inactive)
REMARK    1  A    between atoms: C_1  and  N_2
REMARK    2  A    between atoms: C_4  and  C_5
REMARK    3  A    between atoms: N_7  and  C_8
REMARK    4  A    between atoms: C_12  and  C_13
REMARK                            x       y       z     vdW  Elec       q    Type
REMARK                         _______ _______ _______ _____ _____    ______ ____
ROOT
ATOM      1  C   UNL     1       1.173  12.254  19.763  0.00  0.00    +0.000 A 
ATOM      2  S   UNL     1       2.391  13.145  20.540  0.00  0.00    +0.000 S 
ATOM      3  C   UNL     1       1.790  14.609  19.910  0.00  0.00    +0.000 A 
ATOM      4  C   UNL     1       0.618  14.445  19.185  0.00  0.00    +0.000 A 
ATOM      5  C   UNL     1       0.230  13.059  19.143  0.00  0.00    +0.000 A 
ATOM      6  C   UNL     1      -0.153  15.635  18.679  0.00  0.00    +0.000 C 
ATOM      7  C   UNL     1       0.678  16.933  18.705  0.00  0.00    +0.000 C 
ATOM      8  C   UNL     1       1.498  17.082  19.994  0.00  0.00    +0.000 C 
ATOM      9  C   UNL     1       2.475  15.915  20.177  0.00  0.00    +0.000 C 
ENDROOT
BRANCH   5  10
ATOM     10  C   UNL     1      -1.077  12.516  18.639  0.00  0.00    +0.000 A 
ATOM     11  N   UNL     1      -2.205  12.338  19.304  0.00  0.00    +0.000 NA
ATOM     12  C   UNL     1      -3.105  11.853  18.369  0.00  0.00    +0.000 A 
ATOM     13  C   UNL     1      -4.483  11.593  18.459  0.00  0.00    +0.000 A 
ATOM     14  C   UNL     1      -5.145  11.050  17.343  0.00  0.00    +0.000 A 
ATOM     15  C   UNL     1      -4.450  10.745  16.170  0.00  0.00    +0.000 A 
ATOM     16  C   UNL     1      -3.086  11.015  16.053  0.00  0.00    +0.000 A 
ATOM     17  C   UNL     1      -2.471  11.596  17.160  0.00  0.00    +0.000 A 
ATOM     18  N   UNL     1      -1.205  12.056  17.351  0.00  0.00    +0.000 N 
ATOM     19  H   UNL     1      -0.465  12.059  16.669  0.00  0.00    +0.000 HD
ENDBRANCH   5  10
BRANCH   1  22
ATOM     20  C   UNL     1       1.600  10.104  18.765  0.00  0.00    +0.000 C 
ATOM     21  O   UNL     1       1.653  10.467  17.600  0.00  0.00    +0.000 OA
ATOM     22  N   UNL     1       1.333  10.883  19.883  0.00  0.00    +0.000 N 
ATOM     23  H   UNL     1       1.673  10.529  20.770  0.00  0.00    +0.000 HD
BRANCH  20  27
ATOM     24  C   UNL     1       3.749   5.893  17.660  0.00  0.00    +0.000 C 
ATOM     25  N   UNL     1       2.888   6.645  18.554  0.00  0.00    +0.000 N 
ATOM     26  N   UNL     1       2.595   7.952  18.208  0.00  0.00    +0.000 NA
ATOM     27  C   UNL     1       1.923   8.646  19.076  0.00  0.00    +0.000 A 
ATOM     28  C   UNL     1       1.447   8.145  20.381  0.00  0.00    +0.000 A 
ATOM     29  C   UNL     1       1.716   6.875  20.676  0.00  0.00    +0.000 A 
ATOM     30  C   UNL     1       2.485   6.032  19.738  0.00  0.00    +0.000 A 
ATOM     31  O   UNL     1       2.733   4.872  20.049  0.00  0.00    +0.000 OA
ENDBRANCH  20  27
ENDBRANCH   1  22
TORSDOF 3
ENDMDL
MODEL 4
REMARK VINA RESULT:      -7.1      4.027      6.241
REMARK  Name = 
REMARK  4 active torsions:
REMARK  status: ('A' for Active; 'I' for Inactive)
REMARK    1  A    between atoms: C_1  and  N_2
REMARK    2  A    between atoms: C_4  and  C_5
REMARK    3  A    between atoms: N_7  and  C_8
REMARK    4  A    between atoms: C_12  and  C_13
REMARK                            x       y       z     vdW  Elec       q    Type
REMARK                         _______ _______ _______ _____ _____    ______ ____
ROOT
ATOM      1  C   UNL     1       0.945  12.142  19.566  0.00  0.00    +0.000 A 
ATOM      2  S   UNL     1       2.330  13.000  20.043  0.00  0.00    +0.000 S 
ATOM      3  C   UNL     1       1.683  14.464  19.461  0.00  0.00    +0.000 A 
ATOM      4  C   UNL     1       0.386  14.331  18.986  0.00  0.00    +0.000 A 
ATOM      5  C   UNL     1      -0.065  12.968  19.097  0.00  0.00    +0.000 A 
ATOM      6  C   UNL     1      -0.417  15.537  18.575  0.00  0.00    +0.000 C 
ATOM      7  C   UNL     1       0.461  16.788  18.367  0.00  0.00    +0.000 C 
ATOM      8  C   UNL     1       1.523  16.950  19.464  0.00  0.00    +0.000 C 
ATOM      9  C   UNL     1       2.464  15.741  19.518  0.00  0.00    +0.000 C 
ENDROOT
BRANCH   5  10
ATOM     10  C   UNL     1      -1.468  12.474  18.886  0.00  0.00    +0.000 A 
ATOM     11  N   UNL     1      -1.944  11.749  17.889  0.00  0.00    +0.000 NA
ATOM     12  C   UNL     1      -3.278  11.538  18.199  0.00  0.00    +0.000 A 
ATOM     13  C   UNL     1      -4.257  10.743  17.578  0.00  0.00    +0.000 A 
ATOM     14  C   UNL     1      -5.566  10.756  18.092  0.00  0.00    +0.000 A 
ATOM     15  C   UNL     1      -5.905  11.562  19.182  0.00  0.00    +0.000 A 
ATOM     16  C   UNL     1      -4.943  12.342  19.826  0.00  0.00    +0.000 A 
ATOM     17  C   UNL     1      -3.647  12.269  19.320  0.00  0.00    +0.000 A 
ATOM     18  N   UNL     1      -2.479  12.820  19.749  0.00  0.00    +0.000 N 
ATOM     19  H   UNL     1      -2.359  13.398  20.565  0.00  0.00    +0.000 HD
ENDBRANCH   5  10
BRANCH   1  22
ATOM     20  C   UNL     1       1.605   9.986  18.718  0.00  0.00    +0.000 C 
ATOM     21  O   UNL     1       1.954  10.344  17.604  0.00  0.00    +0.000 OA
ATOM     22  N   UNL     1       1.064  10.770  19.729  0.00  0.00    +0.000 N 
ATOM     23  H   UNL     1       1.166  10.421  20.674  0.00  0.00    +0.000 HD
BRANCH  20  27
ATOM     24  C   UNL     1       3.380   5.563  17.792  0.00  0.00    +0.000 C 
ATOM     25  N   UNL     1       2.621   6.432  18.673  0.00  0.00    +0.000 N 
ATOM     26  N   UNL     1       2.409   7.734  18.257  0.00  0.00    +0.000 NA
ATOM     27  C   UNL     1       1.834   8.529  19.107  0.00  0.00    +0.000 A 
ATOM     28  C   UNL     1       1.385   8.146  20.460  0.00  0.00    +0.000 A 
ATOM     29  C   UNL     1       1.572   6.879  20.825  0.00  0.00    +0.000 A 
ATOM     30  C   UNL     1       2.231   5.924  19.910  0.00  0.00    +0.000 A 
ATOM     31  O   UNL     1       2.407   4.769  20.283  0.00  0.00    +0.000 OA
ENDBRANCH  20  27
ENDBRANCH   1  22
TORSDOF 3
ENDMDL
MODEL 5
REMARK VINA RESULT:      -7.0      3.567      5.388
REMARK  Name = 
REMARK  4 active torsions:
REMARK  status: ('A' for Active; 'I' for Inactive)
REMARK    1  A    between atoms: C_1  and  N_2
REMARK    2  A    between atoms: C_4  and  C_5
REMARK    3  A    between atoms: N_7  and  C_8
REMARK    4  A    between atoms: C_12  and  C_13
REMARK                            x       y       z     vdW  Elec       q    Type
REMARK                         _______ _______ _______ _____ _____    ______ ____
ROOT
ATOM      1  C   UNL     1       0.336  11.922  19.314  0.00  0.00    +0.000 A 
ATOM      2  S   UNL     1      -1.047  12.864  19.598  0.00  0.00    +0.000 S 
ATOM      3  C   UNL     1      -2.008  11.827  18.649  0.00  0.00    +0.000 A 
ATOM      4  C   UNL     1      -1.314  10.717  18.187  0.00  0.00    +0.000 A 
ATOM      5  C   UNL     1       0.057  10.752  18.624  0.00  0.00    +0.000 A 
ATOM      6  C   UNL     1      -2.024   9.604  17.463  0.00  0.00    +0.000 C 
ATOM      7  C   UNL     1      -3.426  10.018  16.972  0.00  0.00    +0.000 C 
ATOM      8  C   UNL     1      -4.202  10.826  18.021  0.00  0.00    +0.000 C 
ATOM      9  C   UNL     1      -3.459  12.111  18.404  0.00  0.00    +0.000 C 
ENDROOT
BRANCH   5  10
ATOM     10  C   UNL     1       1.057   9.636  18.506  0.00  0.00    +0.000 A 
ATOM     11  N   UNL     1       1.882   9.374  17.508  0.00  0.00    +0.000 NA
ATOM     12  C   UNL     1       2.610   8.269  17.920  0.00  0.00    +0.000 A 
ATOM     13  C   UNL     1       3.708   7.615  17.336  0.00  0.00    +0.000 A 
ATOM     14  C   UNL     1       4.226   6.468  17.964  0.00  0.00    +0.000 A 
ATOM     15  C   UNL     1       3.651   5.963  19.133  0.00  0.00    +0.000 A 
ATOM     16  C   UNL     1       2.574   6.611  19.741  0.00  0.00    +0.000 A 
ATOM     17  C   UNL     1       2.115   7.770  19.117  0.00  0.00    +0.000 A 
ATOM     18  N   UNL     1       1.162   8.672  19.478  0.00  0.00    +0.000 N 
ATOM     19  H   UNL     1       0.608   8.646  20.318  0.00  0.00    +0.000 HD
ENDBRANCH   5  10
BRANCH   1  22
ATOM     20  C   UNL     1       2.274  13.322  19.031  0.00  0.00    +0.000 C 
ATOM     21  O   UNL     1       2.108  13.604  17.855  0.00  0.00    +0.000 OA
ATOM     22  N   UNL     1       1.498  12.484  19.820  0.00  0.00    +0.000 N 
ATOM     23  H   UNL     1       1.545  12.634  20.820  0.00  0.00    +0.000 HD
BRANCH  20  27
ATOM     24  C   UNL     1       6.263  16.090  19.088  0.00  0.00    +0.000 C 
ATOM     25  N   UNL     1       5.321  15.262  19.819  0.00  0.00    +0.000 N 
ATOM     26  N   UNL     1       4.323  14.639  19.093  0.00  0.00    +0.000 NA
ATOM     27  C   UNL     1       3.420  14.001  19.775  0.00  0.00    +0.000 A 
ATOM     28  C   UNL     1       3.391  13.884  21.247  0.00  0.00    +0.000 A 
ATOM     29  C   UNL     1       4.381  14.468  21.920  0.00  0.00    +0.000 A 
ATOM     30  C   UNL     1       5.434  15.219  21.207  0.00  0.00    +0.000 A 
ATOM     31  O   UNL     1       6.321  15.761  21.858  0.00  0.00    +0.000 OA
ENDBRANCH  20  27
ENDBRANCH   1  22
TORSDOF 3
ENDMDL
MODEL 6
REMARK VINA RESULT:      -7.0      3.384      4.449
REMARK  Name = 
REMARK  4 active torsions:
REMARK  status: ('A' for Active; 'I' for Inactive)
REMARK    1  A    between atoms: C_1  and  N_2
REMARK    2  A    between atoms: C_4  and  C_5
REMARK    3  A    between atoms: N_7  and  C_8
REMARK    4  A    between atoms: C_12  and  C_13
REMARK                            x       y       z     vdW  Elec       q    Type
REMARK                         _______ _______ _______ _____ _____    ______ ____
ROOT
ATOM      1  C   UNL     1      -2.086  13.764  22.718  0.00  0.00    +0.000 A 
ATOM      2  S   UNL     1      -1.417  14.652  24.001  0.00  0.00    +0.000 S 
ATOM      3  C   UNL     1      -2.767  15.688  24.052  0.00  0.00    +0.000 A 
ATOM      4  C   UNL     1      -3.768  15.319  23.165  0.00  0.00    +0.000 A 
ATOM      5  C   UNL     1      -3.383  14.151  22.415  0.00  0.00    +0.000 A 
ATOM      6  C   UNL     1      -5.104  16.013  23.169  0.00  0.00    +0.000 C 
ATOM      7  C   UNL     1      -5.071  17.353  23.932  0.00  0.00    +0.000 C 
ATOM      8  C   UNL     1      -4.285  17.262  25.247  0.00  0.00    +0.000 C 
ATOM      9  C   UNL     1      -2.829  16.843  25.005  0.00  0.00    +0.000 C 
ENDROOT
BRANCH   5  10
ATOM     10  C   UNL     1      -4.272  13.335  21.520  0.00  0.00    +0.000 A 
ATOM     11  N   UNL     1      -4.173  13.142  20.217  0.00  0.00    +0.000 NA
ATOM     12  C   UNL     1      -5.213  12.283  19.898  0.00  0.00    +0.000 A 
ATOM     13  C   UNL     1      -5.540  11.634  18.695  0.00  0.00    +0.000 A 
ATOM     14  C   UNL     1      -6.702  10.842  18.647  0.00  0.00    +0.000 A 
ATOM     15  C   UNL     1      -7.538  10.718  19.760  0.00  0.00    +0.000 A 
ATOM     16  C   UNL     1      -7.218  11.337  20.969  0.00  0.00    +0.000 A 
ATOM     17  C   UNL     1      -6.037  12.076  20.996  0.00  0.00    +0.000 A 
ATOM     18  N   UNL     1      -5.400  12.722  22.009  0.00  0.00    +0.000 N 
ATOM     19  H   UNL     1      -5.698  12.761  22.970  0.00  0.00    +0.000 HD
ENDBRANCH   5  10
BRANCH   1  22
ATOM     20  C   UNL     1      -1.315  11.486  22.606  0.00  0.00    +0.000 C 
ATOM     21  O   UNL     1      -2.051  11.017  23.460  0.00  0.00    +0.000 OA
ATOM     22  N   UNL     1      -1.224  12.810  22.200  0.00  0.00    +0.000 N 
ATOM     23  H   UNL     1      -0.853  12.973  21.271  0.00  0.00    +0.000 HD
BRANCH  20  27
ATOM     24  C   UNL     1       0.686   9.962  18.452  0.00  0.00    +0.000 C 
ATOM     25  N   UNL     1       0.493   9.766  19.878  0.00  0.00    +0.000 N 
ATOM     26  N   UNL     1      -0.355  10.641  20.533  0.00  0.00    +0.000 NA
ATOM     27  C   UNL     1      -0.423  10.526  21.824  0.00  0.00    +0.000 A 
ATOM     28  C   UNL     1       0.318   9.536  22.630  0.00  0.00    +0.000 A 
ATOM     29  C   UNL     1       1.104   8.685  21.972  0.00  0.00    +0.000 A 
ATOM     30  C   UNL     1       1.236   8.768  20.504  0.00  0.00    +0.000 A 
ATOM     31  O   UNL     1       1.983   7.982  19.929  0.00  0.00    +0.000 OA
ENDBRANCH  20  27
ENDBRANCH   1  22
TORSDOF 3
ENDMDL
MODEL 7
REMARK VINA RESULT:      -7.0      3.772      5.549
REMARK  Name = 
REMARK  4 active torsions:
REMARK  status: ('A' for Active; 'I' for Inactive)
REMARK    1  A    between atoms: C_1  and  N_2
REMARK    2  A    between atoms: C_4  and  C_5
REMARK    3  A    between atoms: N_7  and  C_8
REMARK    4  A    between atoms: C_12  and  C_13
REMARK                            x       y       z     vdW  Elec       q    Type
REMARK                         _______ _______ _______ _____ _____    ______ ____
ROOT
ATOM      1  C   UNL     1       1.209  12.641  19.708  0.00  0.00    +0.000 A 
ATOM      2  S   UNL     1       2.252  13.550  20.691  0.00  0.00    +0.000 S 
ATOM      3  C   UNL     1       1.294  14.945  20.502  0.00  0.00    +0.000 A 
ATOM      4  C   UNL     1       0.137  14.713  19.773  0.00  0.00    +0.000 A 
ATOM      5  C   UNL     1       0.066  13.338  19.349  0.00  0.00    +0.000 A 
ATOM      6  C   UNL     1      -0.917  15.778  19.628  0.00  0.00    +0.000 C 
ATOM      7  C   UNL     1      -0.396  17.179  20.007  0.00  0.00    +0.000 C 
ATOM      8  C   UNL     1       0.465  17.163  21.278  0.00  0.00    +0.000 C 
ATOM      9  C   UNL     1       1.689  16.254  21.116  0.00  0.00    +0.000 C 
ENDROOT
BRANCH   5  10
ATOM     10  C   UNL     1      -1.122  12.659  18.727  0.00  0.00    +0.000 A 
ATOM     11  N   UNL     1      -2.257  12.300  19.300  0.00  0.00    +0.000 NA
ATOM     12  C   UNL     1      -3.022  11.755  18.280  0.00  0.00    +0.000 A 
ATOM     13  C   UNL     1      -4.356  11.315  18.259  0.00  0.00    +0.000 A 
ATOM     14  C   UNL     1      -4.865  10.754  17.073  0.00  0.00    +0.000 A 
ATOM     15  C   UNL     1      -4.060  10.606  15.941  0.00  0.00    +0.000 A 
ATOM     16  C   UNL     1      -2.739  11.056  15.936  0.00  0.00    +0.000 A 
ATOM     17  C   UNL     1      -2.281  11.649  17.110  0.00  0.00    +0.000 A 
ATOM     18  N   UNL     1      -1.102  12.258  17.414  0.00  0.00    +0.000 N 
ATOM     19  H   UNL     1      -0.326  12.394  16.788  0.00  0.00    +0.000 HD
ENDBRANCH   5  10
BRANCH   1  22
ATOM     20  C   UNL     1       1.120  10.262  20.069  0.00  0.00    +0.000 C 
ATOM     21  O   UNL     1       0.259  10.256  20.935  0.00  0.00    +0.000 OA
ATOM     22  N   UNL     1       1.679  11.365  19.439  0.00  0.00    +0.000 N 
ATOM     23  H   UNL     1       2.091  11.203  18.527  0.00  0.00    +0.000 HD
BRANCH  20  27
ATOM     24  C   UNL     1       1.961   5.515  20.647  0.00  0.00    +0.000 C 
ATOM     25  N   UNL     1       2.062   6.696  19.810  0.00  0.00    +0.000 N 
ATOM     26  N   UNL     1       1.631   7.896  20.346  0.00  0.00    +0.000 NA
ATOM     27  C   UNL     1       1.618   8.919  19.545  0.00  0.00    +0.000 A 
ATOM     28  C   UNL     1       2.034   8.895  18.129  0.00  0.00    +0.000 A 
ATOM     29  C   UNL     1       2.473   7.734  17.646  0.00  0.00    +0.000 A 
ATOM     30  C   UNL     1       2.505   6.529  18.500  0.00  0.00    +0.000 A 
ATOM     31  O   UNL     1       2.897   5.471  18.020  0.00  0.00    +0.000 OA
ENDBRANCH  20  27
ENDBRANCH   1  22
TORSDOF 3
ENDMDL
MODEL 8
REMARK VINA RESULT:      -6.9      3.524      4.390
REMARK  Name = 
REMARK  4 active torsions:
REMARK  status: ('A' for Active; 'I' for Inactive)
REMARK    1  A    between atoms: C_1  and  N_2
REMARK    2  A    between atoms: C_4  and  C_5
REMARK    3  A    between atoms: N_7  and  C_8
REMARK    4  A    between atoms: C_12  and  C_13
REMARK                            x       y       z     vdW  Elec       q    Type
REMARK                         _______ _______ _______ _____ _____    ______ ____
ROOT
ATOM      1  C   UNL     1      -2.629  14.094  22.828  0.00  0.00    +0.000 A 
ATOM      2  S   UNL     1      -2.087  14.966  24.180  0.00  0.00    +0.000 S 
ATOM      3  C   UNL     1      -3.431  16.008  24.107  0.00  0.00    +0.000 A 
ATOM      4  C   UNL     1      -4.340  15.652  23.122  0.00  0.00    +0.000 A 
ATOM      5  C   UNL     1      -3.887  14.490  22.402  0.00  0.00    +0.000 A 
ATOM      6  C   UNL     1      -5.667  16.353  23.000  0.00  0.00    +0.000 C 
ATOM      7  C   UNL     1      -5.705  17.685  23.775  0.00  0.00    +0.000 C 
ATOM      8  C   UNL     1      -5.054  17.578  25.161  0.00  0.00    +0.000 C 
ATOM      9  C   UNL     1      -3.584  17.155  25.061  0.00  0.00    +0.000 C 
ENDROOT
BRANCH   5  10
ATOM     10  C   UNL     1      -4.686  13.686  21.416  0.00  0.00    +0.000 A 
ATOM     11  N   UNL     1      -5.128  12.446  21.531  0.00  0.00    +0.000 NA
ATOM     12  C   UNL     1      -5.837  12.204  20.365  0.00  0.00    +0.000 A 
ATOM     13  C   UNL     1      -6.628  11.110  19.974  0.00  0.00    +0.000 A 
ATOM     14  C   UNL     1      -7.202  11.114  18.690  0.00  0.00    +0.000 A 
ATOM     15  C   UNL     1      -6.974  12.168  17.800  0.00  0.00    +0.000 A 
ATOM     16  C   UNL     1      -6.210  13.273  18.178  0.00  0.00    +0.000 A 
ATOM     17  C   UNL     1      -5.695  13.258  19.472  0.00  0.00    +0.000 A 
ATOM     18  N   UNL     1      -4.995  14.189  20.176  0.00  0.00    +0.000 N 
ATOM     19  H   UNL     1      -4.730  15.104  19.850  0.00  0.00    +0.000 HD
ENDBRANCH   5  10
BRANCH   1  22
ATOM     20  C   UNL     1      -1.834  11.821  22.806  0.00  0.00    +0.000 C 
ATOM     21  O   UNL     1      -2.628  11.357  23.609  0.00  0.00    +0.000 OA
ATOM     22  N   UNL     1      -1.723  13.141  22.390  0.00  0.00    +0.000 N 
ATOM     23  H   UNL     1      -1.284  13.294  21.489  0.00  0.00    +0.000 HD
BRANCH  20  27
ATOM     24  C   UNL     1       0.491  10.266  18.837  0.00  0.00    +0.000 C 
ATOM     25  N   UNL     1       0.190  10.084  20.245  0.00  0.00    +0.000 N 
ATOM     26  N   UNL     1      -0.711  10.960  20.823  0.00  0.00    +0.000 NA
ATOM     27  C   UNL     1      -0.879  10.859  22.107  0.00  0.00    +0.000 A 
ATOM     28  C   UNL     1      -0.196   9.882  22.978  0.00  0.00    +0.000 A 
ATOM     29  C   UNL     1       0.642   9.029  22.393  0.00  0.00    +0.000 A 
ATOM     30  C   UNL     1       0.887   9.097  20.938  0.00  0.00    +0.000 A 
ATOM     31  O   UNL     1       1.681   8.310  20.431  0.00  0.00    +0.000 OA
ENDBRANCH  20  27
ENDBRANCH   1  22
TORSDOF 3
ENDMDL
MODEL 9
REMARK VINA RESULT:      -6.9      3.534      5.332
REMARK  Name = 
REMARK  4 active torsions:
REMARK  status: ('A' for Active; 'I' for Inactive)
REMARK    1  A    between atoms: C_1  and  N_2
REMARK    2  A    between atoms: C_4  and  C_5
REMARK    3  A    between atoms: N_7  and  C_8
REMARK    4  A    between atoms: C_12  and  C_13
REMARK                            x       y       z     vdW  Elec       q    Type
REMARK                         _______ _______ _______ _____ _____    ______ ____
ROOT
ATOM      1  C   UNL     1       0.487  11.944  19.324  0.00  0.00    +0.000 A 
ATOM      2  S   UNL     1      -0.869  12.917  19.634  0.00  0.00    +0.000 S 
ATOM      3  C   UNL     1      -1.877  11.885  18.729  0.00  0.00    +0.000 A 
ATOM      4  C   UNL     1      -1.218  10.756  18.263  0.00  0.00    +0.000 A 
ATOM      5  C   UNL     1       0.166  10.770  18.660  0.00  0.00    +0.000 A 
ATOM      6  C   UNL     1      -1.969   9.646  17.577  0.00  0.00    +0.000 C 
ATOM      7  C   UNL     1      -3.377  10.080  17.120  0.00  0.00    +0.000 C 
ATOM      8  C   UNL     1      -4.107  10.917  18.180  0.00  0.00    +0.000 C 
ATOM      9  C   UNL     1      -3.329  12.194  18.522  0.00  0.00    +0.000 C 
ENDROOT
BRANCH   5  10
ATOM     10  C   UNL     1       1.141   9.634  18.529  0.00  0.00    +0.000 A 
ATOM     11  N   UNL     1       1.948   9.355  17.520  0.00  0.00    +0.000 NA
ATOM     12  C   UNL     1       2.658   8.235  17.923  0.00  0.00    +0.000 A 
ATOM     13  C   UNL     1       3.734   7.558  17.325  0.00  0.00    +0.000 A 
ATOM     14  C   UNL     1       4.236   6.400  17.947  0.00  0.00    +0.000 A 
ATOM     15  C   UNL     1       3.665   5.907  19.123  0.00  0.00    +0.000 A 
ATOM     16  C   UNL     1       2.610   6.578  19.744  0.00  0.00    +0.000 A 
ATOM     17  C   UNL     1       2.168   7.746  19.127  0.00  0.00    +0.000 A 
ATOM     18  N   UNL     1       1.238   8.667  19.499  0.00  0.00    +0.000 N 
ATOM     19  H   UNL     1       0.694   8.653  20.346  0.00  0.00    +0.000 HD
ENDBRANCH   5  10
BRANCH   1  22
ATOM     20  C   UNL     1       2.363  13.424  19.025  0.00  0.00    +0.000 C 
ATOM     21  O   UNL     1       2.093  13.812  17.900  0.00  0.00    +0.000 OA
ATOM     22  N   UNL     1       1.673  12.491  19.788  0.00  0.00    +0.000 N 
ATOM     23  H   UNL     1       1.800  12.546  20.791  0.00  0.00    +0.000 HD
BRANCH  20  27
ATOM     24  C   UNL     1       4.948  14.301  23.041  0.00  0.00    +0.000 C 
ATOM     25  N   UNL     1       4.756  14.525  21.619  0.00  0.00    +0.000 N 
ATOM     26  N   UNL     1       3.644  13.954  21.028  0.00  0.00    +0.000 NA
ATOM     27  C   UNL     1       3.550  14.064  19.737  0.00  0.00    +0.000 A 
ATOM     28  C   UNL     1       4.526  14.753  18.870  0.00  0.00    +0.000 A 
ATOM     29  C   UNL     1       5.572  15.321  19.467  0.00  0.00    +0.000 A 
ATOM     30  C   UNL     1       5.745  15.225  20.931  0.00  0.00    +0.000 A 
ATOM     31  O   UNL     1       6.730  15.742  21.448  0.00  0.00    +0.000 OA
ENDBRANCH  20  27
ENDBRANCH   1  22
TORSDOF 3
ENDMDL
