MODEL 1
REMARK VINA RESULT:      -8.9      0.000      0.000
REMARK  Name = 
REMARK  5 active torsions:
REMARK  status: ('A' for Active; 'I' for Inactive)
REMARK    1  A    between atoms: C_2  and  C_16
REMARK    2  A    between atoms: N_3  and  C_4
REMARK    3  A    between atoms: C_8  and  N_9
REMARK    4  A    between atoms: N_19  and  C_20
REMARK    5  A    between atoms: C_26  and  C_27
REMARK                            x       y       z     vdW  Elec       q    Type
REMARK                         _______ _______ _______ _____ _____    ______ ____
ROOT
ATOM      1  O   UNL     1       1.681   8.653  19.188  0.00  0.00    +0.000 OA
ATOM      2  C   UNL     1       1.454   8.298  20.337  0.00  0.00    +0.000 C 
ATOM      3  N   UNL     1       1.613   7.016  20.830  0.00  0.00    +0.000 N 
ATOM      4  H   UNL     1       1.319   6.819  21.776  0.00  0.00    +0.000 HD
ENDROOT
BRANCH   3   5
ATOM      5  C   UNL     1       2.158   5.924  20.125  0.00  0.00    +0.000 A 
ATOM      6  C   UNL     1       1.485   4.709  19.995  0.00  0.00    +0.000 A 
ATOM      7  C   UNL     1       2.055   3.645  19.303  0.00  0.00    +0.000 A 
ATOM      8  C   UNL     1       3.307   3.795  18.715  0.00  0.00    +0.000 A 
ATOM      9  C   UNL     1       3.967   5.025  18.770  0.00  0.00    +0.000 A 
ATOM     10  C   UNL     1       3.396   6.083  19.493  0.00  0.00    +0.000 A 
BRANCH   9  11
ATOM     11  N   UNL     1       5.161   5.217  18.035  0.00  0.00    +0.000 N 
ATOM     12  C   UNL     1       5.184   5.803  16.717  0.00  0.00    +0.000 C 
ATOM     13  C   UNL     1       6.654   5.813  16.356  0.00  0.00    +0.000 C 
ATOM     14  C   UNL     1       7.339   6.034  17.693  0.00  0.00    +0.000 C 
ATOM     15  C   UNL     1       6.396   5.385  18.679  0.00  0.00    +0.000 C 
ATOM     16  O   UNL     1       6.676   5.173  19.849  0.00  0.00    +0.000 OA
ENDBRANCH   9  11
ENDBRANCH   3   5
BRANCH   2  17
ATOM     17  C   UNL     1       0.907   9.269  21.270  0.00  0.00    +0.000 A 
ATOM     18  C   UNL     1       1.061   9.178  22.668  0.00  0.00    +0.000 A 
ATOM     19  N   UNL     1       0.385  10.115  23.314  0.00  0.00    +0.000 NA
ATOM     20  N   UNL     1      -0.268  10.821  22.349  0.00  0.00    +0.000 N 
ATOM     21  C   UNL     1       0.083  10.371  21.081  0.00  0.00    +0.000 A 
BRANCH  20  22
ATOM     22  C   UNL     1      -1.188  11.831  22.763  0.00  0.00    +0.000 A 
ATOM     23  C   UNL     1      -2.449  11.552  23.282  0.00  0.00    +0.000 A 
ATOM     24  C   UNL     1      -3.314  12.566  23.680  0.00  0.00    +0.000 A 
ATOM     25  C   UNL     1      -2.921  13.892  23.557  0.00  0.00    +0.000 A 
ATOM     26  C   UNL     1      -1.669  14.205  23.042  0.00  0.00    +0.000 A 
ATOM     27  C   UNL     1      -0.796  13.181  22.635  0.00  0.00    +0.000 A 
ENDBRANCH  20  22
BRANCH  21  28
ATOM     28  C   UNL     1      -0.501  10.927  19.852  0.00  0.00    +0.000 C 
ATOM     29  F   UNL     1      -1.592  11.691  20.085  0.00  0.00    +0.000 F 
ATOM     30  F   UNL     1       0.363  11.707  19.162  0.00  0.00    +0.000 F 
ATOM     31  F   UNL     1      -0.944   9.946  19.026  0.00  0.00    +0.000 F 
ENDBRANCH  21  28
ENDBRANCH   2  17
TORSDOF 5
ENDMDL
MODEL 2
REMARK VINA RESULT:      -8.7      2.824      4.245
REMARK  Name = 
REMARK  5 active torsions:
REMARK  status: ('A' for Active; 'I' for Inactive)
REMARK    1  A    between atoms: C_2  and  C_16
REMARK    2  A    between atoms: N_3  and  C_4
REMARK    3  A    between atoms: C_8  and  N_9
REMARK    4  A    between atoms: N_19  and  C_20
REMARK    5  A    between atoms: C_26  and  C_27
REMARK                            x       y       z     vdW  Elec       q    Type
REMARK                         _______ _______ _______ _____ _____    ______ ____
ROOT
ATOM      1  O   UNL     1       2.709   5.959  18.764  0.00  0.00    +0.000 OA
ATOM      2  C   UNL     1       3.081   7.042  18.332  0.00  0.00    +0.000 C 
ATOM      3  N   UNL     1       4.311   7.301  17.758  0.00  0.00    +0.000 N 
ATOM      4  H   UNL     1       4.541   8.252  17.509  0.00  0.00    +0.000 HD
ENDROOT
BRANCH   3   5
ATOM      5  C   UNL     1       5.307   6.343  17.477  0.00  0.00    +0.000 A 
ATOM      6  C   UNL     1       6.083   5.759  18.479  0.00  0.00    +0.000 A 
ATOM      7  C   UNL     1       7.067   4.826  18.169  0.00  0.00    +0.000 A 
ATOM      8  C   UNL     1       7.273   4.454  16.844  0.00  0.00    +0.000 A 
ATOM      9  C   UNL     1       6.460   4.971  15.833  0.00  0.00    +0.000 A 
ATOM     10  C   UNL     1       5.488   5.932  16.153  0.00  0.00    +0.000 A 
BRANCH   9  11
ATOM     11  N   UNL     1       6.569   4.468  14.515  0.00  0.00    +0.000 N 
ATOM     12  C   UNL     1       5.476   3.822  13.830  0.00  0.00    +0.000 C 
ATOM     13  C   UNL     1       6.056   3.478  12.475  0.00  0.00    +0.000 C 
ATOM     14  C   UNL     1       7.025   4.617  12.213  0.00  0.00    +0.000 C 
ATOM     15  C   UNL     1       7.482   5.012  13.598  0.00  0.00    +0.000 C 
ATOM     16  O   UNL     1       8.417   5.767  13.817  0.00  0.00    +0.000 OA
ENDBRANCH   9  11
ENDBRANCH   3   5
BRANCH   2  17
ATOM     17  C   UNL     1       2.201   8.189  18.483  0.00  0.00    +0.000 A 
ATOM     18  C   UNL     1       2.065   9.199  17.510  0.00  0.00    +0.000 A 
ATOM     19  N   UNL     1       1.292  10.194  17.915  0.00  0.00    +0.000 NA
ATOM     20  N   UNL     1       0.934   9.877  19.191  0.00  0.00    +0.000 N 
ATOM     21  C   UNL     1       1.420   8.622  19.546  0.00  0.00    +0.000 A 
BRANCH  20  22
ATOM     22  C   UNL     1       0.192  10.840  19.939  0.00  0.00    +0.000 A 
ATOM     23  C   UNL     1       0.756  11.645  20.924  0.00  0.00    +0.000 A 
ATOM     24  C   UNL     1      -0.002  12.576  21.626  0.00  0.00    +0.000 A 
ATOM     25  C   UNL     1      -1.356  12.711  21.348  0.00  0.00    +0.000 A 
ATOM     26  C   UNL     1      -1.950  11.921  20.371  0.00  0.00    +0.000 A 
ATOM     27  C   UNL     1      -1.186  10.977  19.664  0.00  0.00    +0.000 A 
ENDBRANCH  20  22
BRANCH  21  28
ATOM     28  C   UNL     1       1.218   8.042  20.881  0.00  0.00    +0.000 C 
ATOM     29  F   UNL     1      -0.070   8.099  21.292  0.00  0.00    +0.000 F 
ATOM     30  F   UNL     1       1.576   6.739  20.951  0.00  0.00    +0.000 F 
ATOM     31  F   UNL     1       1.906   8.726  21.828  0.00  0.00    +0.000 F 
ENDBRANCH  21  28
ENDBRANCH   2  17
TORSDOF 5
ENDMDL
MODEL 3
REMARK VINA RESULT:      -8.7      0.854      1.152
REMARK  Name = 
REMARK  5 active torsions:
REMARK  status: ('A' for Active; 'I' for Inactive)
REMARK    1  A    between atoms: C_2  and  C_16
REMARK    2  A    between atoms: N_3  and  C_4
REMARK    3  A    between atoms: C_8  and  N_9
REMARK    4  A    between atoms: N_19  and  C_20
REMARK    5  A    between atoms: C_26  and  C_27
REMARK                            x       y       z     vdW  Elec       q    Type
REMARK                         _______ _______ _______ _____ _____    ______ ____
ROOT
ATOM      1  O   UNL     1       2.207   8.025  19.268  0.00  0.00    +0.000 OA
ATOM      2  C   UNL     1       1.726   7.779  20.367  0.00  0.00    +0.000 C 
ATOM      3  N   UNL     1       1.564   6.519  20.912  0.00  0.00    +0.000 N 
ATOM      4  H   UNL     1       1.082   6.430  21.795  0.00  0.00    +0.000 HD
ENDROOT
BRANCH   3   5
ATOM      5  C   UNL     1       2.017   5.311  20.344  0.00  0.00    +0.000 A 
ATOM      6  C   UNL     1       1.312   4.115  20.477  0.00  0.00    +0.000 A 
ATOM      7  C   UNL     1       1.791   2.935  19.915  0.00  0.00    +0.000 A 
ATOM      8  C   UNL     1       2.981   2.948  19.194  0.00  0.00    +0.000 A 
ATOM      9  C   UNL     1       3.665   4.147  18.985  0.00  0.00    +0.000 A 
ATOM     10  C   UNL     1       3.188   5.326  19.579  0.00  0.00    +0.000 A 
BRANCH   9  11
ATOM     11  N   UNL     1       4.783   4.180  18.118  0.00  0.00    +0.000 N 
ATOM     12  C   UNL     1       4.660   4.260  16.683  0.00  0.00    +0.000 C 
ATOM     13  C   UNL     1       6.094   4.282  16.202  0.00  0.00    +0.000 C 
ATOM     14  C   UNL     1       6.821   5.027  17.308  0.00  0.00    +0.000 C 
ATOM     15  C   UNL     1       6.023   4.682  18.544  0.00  0.00    +0.000 C 
ATOM     16  O   UNL     1       6.392   4.927  19.682  0.00  0.00    +0.000 OA
ENDBRANCH   9  11
ENDBRANCH   3   5
BRANCH   2  17
ATOM     17  C   UNL     1       1.211   8.882  21.161  0.00  0.00    +0.000 A 
ATOM     18  C   UNL     1       1.364   8.971  22.560  0.00  0.00    +0.000 A 
ATOM     19  N   UNL     1       0.719  10.005  23.075  0.00  0.00    +0.000 NA
ATOM     20  N   UNL     1       0.087  10.599  22.024  0.00  0.00    +0.000 N 
ATOM     21  C   UNL     1       0.422   9.974  20.827  0.00  0.00    +0.000 A 
BRANCH  20  22
ATOM     22  C   UNL     1      -0.800  11.682  22.299  0.00  0.00    +0.000 A 
ATOM     23  C   UNL     1      -2.054  11.518  22.880  0.00  0.00    +0.000 A 
ATOM     24  C   UNL     1      -2.886  12.602  23.137  0.00  0.00    +0.000 A 
ATOM     25  C   UNL     1      -2.467  13.884  22.805  0.00  0.00    +0.000 A 
ATOM     26  C   UNL     1      -1.221  14.083  22.223  0.00  0.00    +0.000 A 
ATOM     27  C   UNL     1      -0.382  12.987  21.958  0.00  0.00    +0.000 A 
ENDBRANCH  20  22
BRANCH  21  28
ATOM     28  C   UNL     1      -0.145  10.382  19.533  0.00  0.00    +0.000 C 
ATOM     29  F   UNL     1       0.223   9.569  18.517  0.00  0.00    +0.000 F 
ATOM     30  F   UNL     1      -1.498  10.398  19.531  0.00  0.00    +0.000 F 
ATOM     31  F   UNL     1       0.298  11.609  19.163  0.00  0.00    +0.000 F 
ENDBRANCH  21  28
ENDBRANCH   2  17
TORSDOF 5
ENDMDL
MODEL 4
REMARK VINA RESULT:      -8.6      2.034      2.521
REMARK  Name = 
REMARK  5 active torsions:
REMARK  status: ('A' for Active; 'I' for Inactive)
REMARK    1  A    between atoms: C_2  and  C_16
REMARK    2  A    between atoms: N_3  and  C_4
REMARK    3  A    between atoms: C_8  and  N_9
REMARK    4  A    between atoms: N_19  and  C_20
REMARK    5  A    between atoms: C_26  and  C_27
REMARK                            x       y       z     vdW  Elec       q    Type
REMARK                         _______ _______ _______ _____ _____    ______ ____
ROOT
ATOM      1  O   UNL     1       0.817   6.239  20.899  0.00  0.00    +0.000 OA
ATOM      2  C   UNL     1       1.639   7.090  20.587  0.00  0.00    +0.000 C 
ATOM      3  N   UNL     1       2.884   6.844  20.038  0.00  0.00    +0.000 N 
ATOM      4  H   UNL     1       3.513   7.621  19.892  0.00  0.00    +0.000 HD
ENDROOT
BRANCH   3   5
ATOM      5  C   UNL     1       3.379   5.582  19.649  0.00  0.00    +0.000 A 
ATOM      6  C   UNL     1       3.005   4.404  20.296  0.00  0.00    +0.000 A 
ATOM      7  C   UNL     1       3.520   3.175  19.897  0.00  0.00    +0.000 A 
ATOM      8  C   UNL     1       4.407   3.112  18.827  0.00  0.00    +0.000 A 
ATOM      9  C   UNL     1       4.738   4.269  18.118  0.00  0.00    +0.000 A 
ATOM     10  C   UNL     1       4.235   5.508  18.545  0.00  0.00    +0.000 A 
BRANCH   9  11
ATOM     11  N   UNL     1       5.510   4.176  16.936  0.00  0.00    +0.000 N 
ATOM     12  C   UNL     1       4.966   4.421  15.623  0.00  0.00    +0.000 C 
ATOM     13  C   UNL     1       6.148   4.218  14.701  0.00  0.00    +0.000 C 
ATOM     14  C   UNL     1       7.324   4.697  15.534  0.00  0.00    +0.000 C 
ATOM     15  C   UNL     1       6.897   4.389  16.951  0.00  0.00    +0.000 C 
ATOM     16  O   UNL     1       7.646   4.444  17.914  0.00  0.00    +0.000 OA
ENDBRANCH   9  11
ENDBRANCH   3   5
BRANCH   2  17
ATOM     17  C   UNL     1       1.337   8.484  20.866  0.00  0.00    +0.000 A 
ATOM     18  C   UNL     1       1.149   8.994  22.166  0.00  0.00    +0.000 A 
ATOM     19  N   UNL     1       0.777  10.264  22.164  0.00  0.00    +0.000 NA
ATOM     20  N   UNL     1       0.669  10.607  20.849  0.00  0.00    +0.000 N 
ATOM     21  C   UNL     1       1.070   9.559  20.028  0.00  0.00    +0.000 A 
BRANCH  20  22
ATOM     22  C   UNL     1       0.155  11.901  20.534  0.00  0.00    +0.000 A 
ATOM     23  C   UNL     1       0.962  13.011  20.306  0.00  0.00    +0.000 A 
ATOM     24  C   UNL     1       0.421  14.254  19.995  0.00  0.00    +0.000 A 
ATOM     25  C   UNL     1      -0.958  14.402  19.911  0.00  0.00    +0.000 A 
ATOM     26  C   UNL     1      -1.792  13.313  20.133  0.00  0.00    +0.000 A 
ATOM     27  C   UNL     1      -1.246  12.058  20.453  0.00  0.00    +0.000 A 
ENDBRANCH  20  22
BRANCH  21  28
ATOM     28  C   UNL     1       1.020   9.636  18.561  0.00  0.00    +0.000 C 
ATOM     29  F   UNL     1       1.804  10.617  18.058  0.00  0.00    +0.000 F 
ATOM     30  F   UNL     1       1.417   8.492  17.958  0.00  0.00    +0.000 F 
ATOM     31  F   UNL     1      -0.227   9.941  18.123  0.00  0.00    +0.000 F 
ENDBRANCH  21  28
ENDBRANCH   2  17
TORSDOF 5
ENDMDL
MODEL 5
REMARK VINA RESULT:      -8.6      2.864      4.208
REMARK  Name = 
REMARK  5 active torsions:
REMARK  status: ('A' for Active; 'I' for Inactive)
REMARK    1  A    between atoms: C_2  and  C_16
REMARK    2  A    between atoms: N_3  and  C_4
REMARK    3  A    between atoms: C_8  and  N_9
REMARK    4  A    between atoms: N_19  and  C_20
REMARK    5  A    between atoms: C_26  and  C_27
REMARK                            x       y       z     vdW  Elec       q    Type
REMARK                         _______ _______ _______ _____ _____    ______ ____
ROOT
ATOM      1  O   UNL     1       2.628   5.916  18.527  0.00  0.00    +0.000 OA
ATOM      2  C   UNL     1       3.079   7.014  18.229  0.00  0.00    +0.000 C 
ATOM      3  N   UNL     1       4.360   7.263  17.776  0.00  0.00    +0.000 N 
ATOM      4  H   UNL     1       4.649   8.221  17.636  0.00  0.00    +0.000 HD
ENDROOT
BRANCH   3   5
ATOM      5  C   UNL     1       5.334   6.287  17.479  0.00  0.00    +0.000 A 
ATOM      6  C   UNL     1       6.088   5.661  18.472  0.00  0.00    +0.000 A 
ATOM      7  C   UNL     1       7.050   4.710  18.147  0.00  0.00    +0.000 A 
ATOM      8  C   UNL     1       7.256   4.363  16.815  0.00  0.00    +0.000 A 
ATOM      9  C   UNL     1       6.462   4.923  15.811  0.00  0.00    +0.000 A 
ATOM     10  C   UNL     1       5.513   5.900  16.147  0.00  0.00    +0.000 A 
BRANCH   9  11
ATOM     11  N   UNL     1       6.566   4.447  14.483  0.00  0.00    +0.000 N 
ATOM     12  C   UNL     1       5.474   3.806  13.792  0.00  0.00    +0.000 C 
ATOM     13  C   UNL     1       6.047   3.493  12.427  0.00  0.00    +0.000 C 
ATOM     14  C   UNL     1       7.007   4.645  12.182  0.00  0.00    +0.000 C 
ATOM     15  C   UNL     1       7.469   5.016  13.572  0.00  0.00    +0.000 C 
ATOM     16  O   UNL     1       8.400   5.773  13.799  0.00  0.00    +0.000 OA
ENDBRANCH   9  11
ENDBRANCH   3   5
BRANCH   2  17
ATOM     17  C   UNL     1       2.239   8.184  18.424  0.00  0.00    +0.000 A 
ATOM     18  C   UNL     1       2.098   9.209  17.465  0.00  0.00    +0.000 A 
ATOM     19  N   UNL     1       1.370  10.221  17.909  0.00  0.00    +0.000 NA
ATOM     20  N   UNL     1       1.051   9.901  19.195  0.00  0.00    +0.000 N 
ATOM     21  C   UNL     1       1.511   8.630  19.519  0.00  0.00    +0.000 A 
BRANCH  20  22
ATOM     22  C   UNL     1       0.366  10.878  19.978  0.00  0.00    +0.000 A 
ATOM     23  C   UNL     1      -1.011  10.868  20.182  0.00  0.00    +0.000 A 
ATOM     24  C   UNL     1      -1.639  11.836  20.959  0.00  0.00    +0.000 A 
ATOM     25  C   UNL     1      -0.884  12.844  21.545  0.00  0.00    +0.000 A 
ATOM     26  C   UNL     1       0.492  12.882  21.361  0.00  0.00    +0.000 A 
ATOM     27  C   UNL     1       1.127  11.907  20.572  0.00  0.00    +0.000 A 
ENDBRANCH  20  22
BRANCH  21  28
ATOM     28  C   UNL     1       1.342   8.042  20.856  0.00  0.00    +0.000 C 
ATOM     29  F   UNL     1       1.925   8.775  21.832  0.00  0.00    +0.000 F 
ATOM     30  F   UNL     1       0.044   7.905  21.212  0.00  0.00    +0.000 F 
ATOM     31  F   UNL     1       1.940   6.827  20.941  0.00  0.00    +0.000 F 
ENDBRANCH  21  28
ENDBRANCH   2  17
TORSDOF 5
ENDMDL
MODEL 6
REMARK VINA RESULT:      -8.5      2.107      2.416
REMARK  Name = 
REMARK  5 active torsions:
REMARK  status: ('A' for Active; 'I' for Inactive)
REMARK    1  A    between atoms: C_2  and  C_16
REMARK    2  A    between atoms: N_3  and  C_4
REMARK    3  A    between atoms: C_8  and  N_9
REMARK    4  A    between atoms: N_19  and  C_20
REMARK    5  A    between atoms: C_26  and  C_27
REMARK                            x       y       z     vdW  Elec       q    Type
REMARK                         _______ _______ _______ _____ _____    ______ ____
ROOT
ATOM      1  O   UNL     1       0.916   6.191  20.775  0.00  0.00    +0.000 OA
ATOM      2  C   UNL     1       1.730   7.054  20.471  0.00  0.00    +0.000 C 
ATOM      3  N   UNL     1       2.977   6.826  19.920  0.00  0.00    +0.000 N 
ATOM      4  H   UNL     1       3.598   7.610  19.783  0.00  0.00    +0.000 HD
ENDROOT
BRANCH   3   5
ATOM      5  C   UNL     1       3.485   5.573  19.520  0.00  0.00    +0.000 A 
ATOM      6  C   UNL     1       3.161   4.391  20.186  0.00  0.00    +0.000 A 
ATOM      7  C   UNL     1       3.689   3.170  19.775  0.00  0.00    +0.000 A 
ATOM      8  C   UNL     1       4.538   3.121  18.674  0.00  0.00    +0.000 A 
ATOM      9  C   UNL     1       4.818   4.281  17.948  0.00  0.00    +0.000 A 
ATOM     10  C   UNL     1       4.302   5.510  18.387  0.00  0.00    +0.000 A 
BRANCH   9  11
ATOM     11  N   UNL     1       5.548   4.197  16.740  0.00  0.00    +0.000 N 
ATOM     12  C   UNL     1       4.936   4.345  15.442  0.00  0.00    +0.000 C 
ATOM     13  C   UNL     1       6.095   4.195  14.480  0.00  0.00    +0.000 C 
ATOM     14  C   UNL     1       7.261   4.797  15.245  0.00  0.00    +0.000 C 
ATOM     15  C   UNL     1       6.914   4.516  16.688  0.00  0.00    +0.000 C 
ATOM     16  O   UNL     1       7.693   4.668  17.617  0.00  0.00    +0.000 OA
ENDBRANCH   9  11
ENDBRANCH   3   5
BRANCH   2  17
ATOM     17  C   UNL     1       1.412   8.441  20.762  0.00  0.00    +0.000 A 
ATOM     18  C   UNL     1       1.246   8.944  22.069  0.00  0.00    +0.000 A 
ATOM     19  N   UNL     1       0.855  10.208  22.080  0.00  0.00    +0.000 NA
ATOM     20  N   UNL     1       0.712  10.554  20.770  0.00  0.00    +0.000 N 
ATOM     21  C   UNL     1       1.110   9.515  19.935  0.00  0.00    +0.000 A 
BRANCH  20  22
ATOM     22  C   UNL     1       0.171  11.841  20.471  0.00  0.00    +0.000 A 
ATOM     23  C   UNL     1      -1.189  12.078  20.294  0.00  0.00    +0.000 A 
ATOM     24  C   UNL     1      -1.676  13.350  20.010  0.00  0.00    +0.000 A 
ATOM     25  C   UNL     1      -0.792  14.414  19.894  0.00  0.00    +0.000 A 
ATOM     26  C   UNL     1       0.572  14.211  20.064  0.00  0.00    +0.000 A 
ATOM     27  C   UNL     1       1.065  12.926  20.346  0.00  0.00    +0.000 A 
ENDBRANCH  20  22
BRANCH  21  28
ATOM     28  C   UNL     1       1.025   9.597  18.470  0.00  0.00    +0.000 C 
ATOM     29  F   UNL     1      -0.240   9.772  18.024  0.00  0.00    +0.000 F 
ATOM     30  F   UNL     1       1.750  10.618  17.956  0.00  0.00    +0.000 F 
ATOM     31  F   UNL     1       1.434   8.444  17.886  0.00  0.00    +0.000 F 
ENDBRANCH  21  28
ENDBRANCH   2  17
TORSDOF 5
ENDMDL
MODEL 7
REMARK VINA RESULT:      -8.5      0.890      1.310
REMARK  Name = 
REMARK  5 active torsions:
REMARK  status: ('A' for Active; 'I' for Inactive)
REMARK    1  A    between atoms: C_2  and  C_16
REMARK    2  A    between atoms: N_3  and  C_4
REMARK    3  A    between atoms: C_8  and  N_9
REMARK    4  A    between atoms: N_19  and  C_20
REMARK    5  A    between atoms: C_26  and  C_27
REMARK                            x       y       z     vdW  Elec       q    Type
REMARK                         _______ _______ _______ _____ _____    ______ ____
ROOT
ATOM      1  O   UNL     1       1.725   8.591  19.250  0.00  0.00    +0.000 OA
ATOM      2  C   UNL     1       1.467   8.241  20.394  0.00  0.00    +0.000 C 
ATOM      3  N   UNL     1       1.588   6.957  20.890  0.00  0.00    +0.000 N 
ATOM      4  H   UNL     1       1.270   6.767  21.829  0.00  0.00    +0.000 HD
ENDROOT
BRANCH   3   5
ATOM      5  C   UNL     1       2.127   5.853  20.198  0.00  0.00    +0.000 A 
ATOM      6  C   UNL     1       1.410   4.673  20.004  0.00  0.00    +0.000 A 
ATOM      7  C   UNL     1       1.973   3.596  19.326  0.00  0.00    +0.000 A 
ATOM      8  C   UNL     1       3.264   3.699  18.818  0.00  0.00    +0.000 A 
ATOM      9  C   UNL     1       3.974   4.896  18.937  0.00  0.00    +0.000 A 
ATOM     10  C   UNL     1       3.407   5.967  19.645  0.00  0.00    +0.000 A 
BRANCH   9  11
ATOM     11  N   UNL     1       5.217   5.046  18.280  0.00  0.00    +0.000 N 
ATOM     12  C   UNL     1       6.476   5.099  18.984  0.00  0.00    +0.000 C 
ATOM     13  C   UNL     1       7.498   5.249  17.879  0.00  0.00    +0.000 C 
ATOM     14  C   UNL     1       6.888   4.463  16.731  0.00  0.00    +0.000 C 
ATOM     15  C   UNL     1       5.402   4.613  16.957  0.00  0.00    +0.000 C 
ATOM     16  O   UNL     1       4.553   4.290  16.140  0.00  0.00    +0.000 OA
ENDBRANCH   9  11
ENDBRANCH   3   5
BRANCH   2  17
ATOM     17  C   UNL     1       0.919   9.224  21.313  0.00  0.00    +0.000 A 
ATOM     18  C   UNL     1       1.080   9.156  22.712  0.00  0.00    +0.000 A 
ATOM     19  N   UNL     1       0.403  10.099  23.347  0.00  0.00    +0.000 NA
ATOM     20  N   UNL     1      -0.259  10.786  22.374  0.00  0.00    +0.000 N 
ATOM     21  C   UNL     1       0.088  10.318  21.111  0.00  0.00    +0.000 A 
BRANCH  20  22
ATOM     22  C   UNL     1      -1.183  11.797  22.777  0.00  0.00    +0.000 A 
ATOM     23  C   UNL     1      -2.463  11.522  23.247  0.00  0.00    +0.000 A 
ATOM     24  C   UNL     1      -3.331  12.537  23.636  0.00  0.00    +0.000 A 
ATOM     25  C   UNL     1      -2.921  13.861  23.552  0.00  0.00    +0.000 A 
ATOM     26  C   UNL     1      -1.649  14.171  23.087  0.00  0.00    +0.000 A 
ATOM     27  C   UNL     1      -0.773  13.145  22.689  0.00  0.00    +0.000 A 
ENDBRANCH  20  22
BRANCH  21  28
ATOM     28  C   UNL     1      -0.505  10.851  19.876  0.00  0.00    +0.000 C 
ATOM     29  F   UNL     1      -1.003   9.886  19.071  0.00  0.00    +0.000 F 
ATOM     30  F   UNL     1      -1.524  11.710  20.108  0.00  0.00    +0.000 F 
ATOM     31  F   UNL     1       0.423  11.483  19.115  0.00  0.00    +0.000 F 
ENDBRANCH  21  28
ENDBRANCH   2  17
TORSDOF 5
ENDMDL
MODEL 8
REMARK VINA RESULT:      -8.5      0.906      1.438
REMARK  Name = 
REMARK  5 active torsions:
REMARK  status: ('A' for Active; 'I' for Inactive)
REMARK    1  A    between atoms: C_2  and  C_16
REMARK    2  A    between atoms: N_3  and  C_4
REMARK    3  A    between atoms: C_8  and  N_9
REMARK    4  A    between atoms: N_19  and  C_20
REMARK    5  A    between atoms: C_26  and  C_27
REMARK                            x       y       z     vdW  Elec       q    Type
REMARK                         _______ _______ _______ _____ _____    ______ ____
ROOT
ATOM      1  O   UNL     1       1.673   8.547  19.213  0.00  0.00    +0.000 OA
ATOM      2  C   UNL     1       1.465   8.221  20.374  0.00  0.00    +0.000 C 
ATOM      3  N   UNL     1       1.626   6.950  20.895  0.00  0.00    +0.000 N 
ATOM      4  H   UNL     1       1.348   6.778  21.850  0.00  0.00    +0.000 HD
ENDROOT
BRANCH   3   5
ATOM      5  C   UNL     1       2.154   5.838  20.207  0.00  0.00    +0.000 A 
ATOM      6  C   UNL     1       1.435   4.655  20.042  0.00  0.00    +0.000 A 
ATOM      7  C   UNL     1       1.988   3.570  19.368  0.00  0.00    +0.000 A 
ATOM      8  C   UNL     1       3.270   3.668  18.835  0.00  0.00    +0.000 A 
ATOM      9  C   UNL     1       3.979   4.868  18.926  0.00  0.00    +0.000 A 
ATOM     10  C   UNL     1       3.423   5.947  19.630  0.00  0.00    +0.000 A 
BRANCH   9  11
ATOM     11  N   UNL     1       5.210   5.012  18.244  0.00  0.00    +0.000 N 
ATOM     12  C   UNL     1       6.479   5.096  18.925  0.00  0.00    +0.000 C 
ATOM     13  C   UNL     1       7.482   5.225  17.800  0.00  0.00    +0.000 C 
ATOM     14  C   UNL     1       6.862   4.401  16.685  0.00  0.00    +0.000 C 
ATOM     15  C   UNL     1       5.378   4.543  16.931  0.00  0.00    +0.000 C 
ATOM     16  O   UNL     1       4.519   4.189  16.138  0.00  0.00    +0.000 OA
ENDBRANCH   9  11
ENDBRANCH   3   5
BRANCH   2  17
ATOM     17  C   UNL     1       0.939   9.217  21.292  0.00  0.00    +0.000 A 
ATOM     18  C   UNL     1       1.092   9.144  22.691  0.00  0.00    +0.000 A 
ATOM     19  N   UNL     1       0.437  10.104  23.324  0.00  0.00    +0.000 NA
ATOM     20  N   UNL     1      -0.203  10.809  22.349  0.00  0.00    +0.000 N 
ATOM     21  C   UNL     1       0.137  10.332  21.087  0.00  0.00    +0.000 A 
BRANCH  20  22
ATOM     22  C   UNL     1      -1.102  11.843  22.748  0.00  0.00    +0.000 A 
ATOM     23  C   UNL     1      -0.779  13.196  22.708  0.00  0.00    +0.000 A 
ATOM     24  C   UNL     1      -1.687  14.174  23.101  0.00  0.00    +0.000 A 
ATOM     25  C   UNL     1      -2.947  13.801  23.551  0.00  0.00    +0.000 A 
ATOM     26  C   UNL     1      -3.301  12.458  23.604  0.00  0.00    +0.000 A 
ATOM     27  C   UNL     1      -2.382  11.470  23.212  0.00  0.00    +0.000 A 
ENDBRANCH  20  22
BRANCH  21  28
ATOM     28  C   UNL     1      -0.436  10.881  19.850  0.00  0.00    +0.000 C 
ATOM     29  F   UNL     1      -1.358  11.845  20.079  0.00  0.00    +0.000 F 
ATOM     30  F   UNL     1       0.493  11.435  19.038  0.00  0.00    +0.000 F 
ATOM     31  F   UNL     1      -1.105   9.931  19.151  0.00  0.00    +0.000 F 
ENDBRANCH  21  28
ENDBRANCH   2  17
TORSDOF 5
ENDMDL
MODEL 9
REMARK VINA RESULT:      -8.5      3.616      9.426
REMARK  Name = 
REMARK  5 active torsions:
REMARK  status: ('A' for Active; 'I' for Inactive)
REMARK    1  A    between atoms: C_2  and  C_16
REMARK    2  A    between atoms: N_3  and  C_4
REMARK    3  A    between atoms: C_8  and  N_9
REMARK    4  A    between atoms: N_19  and  C_20
REMARK    5  A    between atoms: C_26  and  C_27
REMARK                            x       y       z     vdW  Elec       q    Type
REMARK                         _______ _______ _______ _____ _____    ______ ____
ROOT
ATOM      1  O   UNL     1       1.472   8.903  20.607  0.00  0.00    +0.000 OA
ATOM      2  C   UNL     1       1.588   8.628  19.420  0.00  0.00    +0.000 C 
ATOM      3  N   UNL     1       0.998   9.313  18.373  0.00  0.00    +0.000 N 
ATOM      4  H   UNL     1       1.098   8.949  17.437  0.00  0.00    +0.000 HD
ENDROOT
BRANCH   3   5
ATOM      5  C   UNL     1       0.250  10.503  18.485  0.00  0.00    +0.000 A 
ATOM      6  C   UNL     1       0.853  11.751  18.639  0.00  0.00    +0.000 A 
ATOM      7  C   UNL     1       0.087  12.906  18.758  0.00  0.00    +0.000 A 
ATOM      8  C   UNL     1      -1.300  12.823  18.707  0.00  0.00    +0.000 A 
ATOM      9  C   UNL     1      -1.924  11.594  18.481  0.00  0.00    +0.000 A 
ATOM     10  C   UNL     1      -1.144  10.431  18.389  0.00  0.00    +0.000 A 
BRANCH   9  11
ATOM     11  N   UNL     1      -3.322  11.541  18.270  0.00  0.00    +0.000 N 
ATOM     12  C   UNL     1      -4.276  12.121  19.183  0.00  0.00    +0.000 C 
ATOM     13  C   UNL     1      -5.613  11.829  18.538  0.00  0.00    +0.000 C 
ATOM     14  C   UNL     1      -5.303  11.891  17.053  0.00  0.00    +0.000 C 
ATOM     15  C   UNL     1      -3.862  11.443  16.978  0.00  0.00    +0.000 C 
ATOM     16  O   UNL     1      -3.288  11.167  15.936  0.00  0.00    +0.000 OA
ENDBRANCH   9  11
ENDBRANCH   3   5
BRANCH   2  17
ATOM     17  C   UNL     1       2.349   7.446  19.051  0.00  0.00    +0.000 A 
ATOM     18  C   UNL     1       3.222   7.396  17.946  0.00  0.00    +0.000 A 
ATOM     19  N   UNL     1       3.718   6.185  17.746  0.00  0.00    +0.000 NA
ATOM     20  N   UNL     1       3.142   5.397  18.696  0.00  0.00    +0.000 N 
ATOM     21  C   UNL     1       2.349   6.152  19.554  0.00  0.00    +0.000 A 
BRANCH  20  22
ATOM     22  C   UNL     1       3.395   3.993  18.647  0.00  0.00    +0.000 A 
ATOM     23  C   UNL     1       4.290   3.345  19.493  0.00  0.00    +0.000 A 
ATOM     24  C   UNL     1       4.503   1.973  19.416  0.00  0.00    +0.000 A 
ATOM     25  C   UNL     1       3.815   1.223  18.472  0.00  0.00    +0.000 A 
ATOM     26  C   UNL     1       2.914   1.839  17.611  0.00  0.00    +0.000 A 
ATOM     27  C   UNL     1       2.702   3.226  17.685  0.00  0.00    +0.000 A 
ENDBRANCH  20  22
BRANCH  21  28
ATOM     28  C   UNL     1       1.575   5.554  20.652  0.00  0.00    +0.000 C 
ATOM     29  F   UNL     1       0.764   4.553  20.240  0.00  0.00    +0.000 F 
ATOM     30  F   UNL     1       2.356   5.029  21.624  0.00  0.00    +0.000 F 
ATOM     31  F   UNL     1       0.737   6.459  21.216  0.00  0.00    +0.000 F 
ENDBRANCH  21  28
ENDBRANCH   2  17
TORSDOF 5
ENDMDL
