MODEL 1
REMARK VINA RESULT:      -9.1      0.000      0.000
REMARK  Name = 
REMARK  8 active torsions:
REMARK  status: ('A' for Active; 'I' for Inactive)
REMARK    1  A    between atoms: C_1  and  N_2
REMARK    2  A    between atoms: C_6  and  C_7
REMARK    3  A    between atoms: C_7  and  C_8
REMARK    4  A    between atoms: C_11  and  N_12
REMARK    5  A    between atoms: C_19  and  C_20
REMARK    6  A    between atoms: C_25  and  C_26
REMARK    7  A    between atoms: C_26  and  C_27
REMARK    8  A    between atoms: C_27  and  O_28
REMARK                            x       y       z     vdW  Elec       q    Type
REMARK                         _______ _______ _______ _____ _____    ______ ____
ROOT
ATOM      1  C   UNL     1       5.027   4.798  16.401  0.00  0.00    +0.000 A 
ATOM      2  C   UNL     1       5.428   6.114  16.599  0.00  0.00    +0.000 A 
ATOM      3  C   UNL     1       4.616   6.958  17.361  0.00  0.00    +0.000 A 
ATOM      4  C   UNL     1       3.421   6.484  17.897  0.00  0.00    +0.000 A 
ATOM      5  C   UNL     1       3.029   5.182  17.556  0.00  0.00    +0.000 A 
ATOM      6  N   UNL     1       3.839   4.335  16.857  0.00  0.00    +0.000 NA
ENDROOT
BRANCH   4   7
ATOM      7  N   UNL     1       2.638   7.311  18.726  0.00  0.00    +0.000 N 
ATOM      8  C   UNL     1       1.747   8.329  18.183  0.00  0.00    +0.000 C 
ATOM      9  C   UNL     1       1.099   8.886  19.417  0.00  0.00    +0.000 A 
ATOM     10  C   UNL     1       1.418   8.076  20.505  0.00  0.00    +0.000 A 
ATOM     11  C   UNL     1       1.020   8.360  21.797  0.00  0.00    +0.000 A 
ATOM     12  C   UNL     1       0.274   9.519  21.999  0.00  0.00    +0.000 A 
ATOM     13  C   UNL     1      -0.076  10.343  20.912  0.00  0.00    +0.000 A 
ATOM     14  C   UNL     1       0.316  10.026  19.594  0.00  0.00    +0.000 A 
ATOM     15  C   UNL     1       2.301   6.993  20.040  0.00  0.00    +0.000 C 
ATOM     16  O   UNL     1       2.657   6.060  20.728  0.00  0.00    +0.000 OA
BRANCH  14  17
ATOM     17  C   UNL     1      -0.029  10.944  18.456  0.00  0.00    +0.000 C 
ATOM     18  F   UNL     1      -0.926  10.381  17.602  0.00  0.00    +0.000 F 
ATOM     19  F   UNL     1      -0.603  12.107  18.878  0.00  0.00    +0.000 F 
ENDBRANCH  14  17
ENDBRANCH   4   7
BRANCH   1  20
ATOM     20  C   UNL     1       5.891   3.812  15.646  0.00  0.00    +0.000 C 
BRANCH  20  26
ATOM     21  C   UNL     1       5.723   3.326  12.536  0.00  0.00    +0.000 C 
ATOM     22  N   UNL     1       6.633   4.197  13.231  0.00  0.00    +0.000 N 
ATOM     23  C   UNL     1       7.584   4.975  12.643  0.00  0.00    +0.000 A 
ATOM     24  N   UNL     1       8.228   5.651  13.563  0.00  0.00    +0.000 NA
ATOM     25  N   UNL     1       7.696   5.306  14.781  0.00  0.00    +0.000 NA
ATOM     26  C   UNL     1       6.736   4.424  14.581  0.00  0.00    +0.000 A 
ENDBRANCH  20  26
ENDBRANCH   1  20
BRANCH   5  27
ATOM     27  C   UNL     1       1.645   4.639  17.788  0.00  0.00    +0.000 C 
BRANCH  27  28
ATOM     28  C   UNL     1       1.582   3.530  18.830  0.00  0.00    +0.000 C 
ATOM     29  F   UNL     1       0.666   3.878  19.771  0.00  0.00    +0.000 F 
ATOM     30  F   UNL     1       1.156   2.365  18.298  0.00  0.00    +0.000 F 
BRANCH  28  31
ATOM     31  O   UNL     1       2.782   3.283  19.525  0.00  0.00    +0.000 OA
ATOM     32  H   UNL     1       3.464   3.790  19.062  0.00  0.00    +0.000 HD
ENDBRANCH  28  31
ENDBRANCH  27  28
ENDBRANCH   5  27
TORSDOF 7
ENDMDL
MODEL 2
REMARK VINA RESULT:      -8.4      2.634      3.143
REMARK  Name = 
REMARK  8 active torsions:
REMARK  status: ('A' for Active; 'I' for Inactive)
REMARK    1  A    between atoms: C_1  and  N_2
REMARK    2  A    between atoms: C_6  and  C_7
REMARK    3  A    between atoms: C_7  and  C_8
REMARK    4  A    between atoms: C_11  and  N_12
REMARK    5  A    between atoms: C_19  and  C_20
REMARK    6  A    between atoms: C_25  and  C_26
REMARK    7  A    between atoms: C_26  and  C_27
REMARK    8  A    between atoms: C_27  and  O_28
REMARK                            x       y       z     vdW  Elec       q    Type
REMARK                         _______ _______ _______ _____ _____    ______ ____
ROOT
ATOM      1  C   UNL     1       5.170   4.302  16.185  0.00  0.00    +0.000 A 
ATOM      2  C   UNL     1       3.952   3.895  16.715  0.00  0.00    +0.000 A 
ATOM      3  C   UNL     1       3.247   4.774  17.539  0.00  0.00    +0.000 A 
ATOM      4  C   UNL     1       3.770   6.032  17.831  0.00  0.00    +0.000 A 
ATOM      5  C   UNL     1       5.056   6.326  17.355  0.00  0.00    +0.000 A 
ATOM      6  N   UNL     1       5.728   5.494  16.508  0.00  0.00    +0.000 NA
ENDROOT
BRANCH   4   7
ATOM      7  N   UNL     1       3.027   6.948  18.601  0.00  0.00    +0.000 N 
ATOM      8  C   UNL     1       2.447   8.154  18.022  0.00  0.00    +0.000 C 
ATOM      9  C   UNL     1       1.715   8.754  19.187  0.00  0.00    +0.000 A 
ATOM     10  C   UNL     1       1.687   7.833  20.233  0.00  0.00    +0.000 A 
ATOM     11  C   UNL     1       1.136   8.113  21.468  0.00  0.00    +0.000 A 
ATOM     12  C   UNL     1       0.597   9.383  21.657  0.00  0.00    +0.000 A 
ATOM     13  C   UNL     1       0.597  10.324  20.609  0.00  0.00    +0.000 A 
ATOM     14  C   UNL     1       1.140  10.014  19.345  0.00  0.00    +0.000 A 
ATOM     15  C   UNL     1       2.417   6.625  19.812  0.00  0.00    +0.000 C 
ATOM     16  O   UNL     1       2.471   5.601  20.459  0.00  0.00    +0.000 OA
BRANCH  14  17
ATOM     17  C   UNL     1       1.171  11.049  18.256  0.00  0.00    +0.000 C 
ATOM     18  F   UNL     1       0.348  12.098  18.526  0.00  0.00    +0.000 F 
ATOM     19  F   UNL     1       2.412  11.590  18.084  0.00  0.00    +0.000 F 
ENDBRANCH  14  17
ENDBRANCH   4   7
BRANCH   1  20
ATOM     20  C   UNL     1       5.952   3.428  15.230  0.00  0.00    +0.000 C 
BRANCH  20  26
ATOM     21  C   UNL     1       5.745   3.126  12.099  0.00  0.00    +0.000 C 
ATOM     22  N   UNL     1       6.593   4.028  12.831  0.00  0.00    +0.000 N 
ATOM     23  C   UNL     1       7.456   4.925  12.275  0.00  0.00    +0.000 A 
ATOM     24  N   UNL     1       8.063   5.596  13.223  0.00  0.00    +0.000 NA
ATOM     25  N   UNL     1       7.595   5.128  14.427  0.00  0.00    +0.000 NA
ATOM     26  C   UNL     1       6.712   4.179  14.190  0.00  0.00    +0.000 A 
ENDBRANCH  20  26
ENDBRANCH   1  20
BRANCH   5  27
ATOM     27  C   UNL     1       5.878   7.491  17.835  0.00  0.00    +0.000 C 
BRANCH  27  28
ATOM     28  C   UNL     1       7.381   7.254  17.771  0.00  0.00    +0.000 C 
ATOM     29  F   UNL     1       8.009   8.366  18.235  0.00  0.00    +0.000 F 
ATOM     30  F   UNL     1       7.763   6.239  18.576  0.00  0.00    +0.000 F 
BRANCH  28  31
ATOM     31  O   UNL     1       7.904   7.016  16.486  0.00  0.00    +0.000 OA
ATOM     32  H   UNL     1       8.853   7.199  16.549  0.00  0.00    +0.000 HD
ENDBRANCH  28  31
ENDBRANCH  27  28
ENDBRANCH   5  27
TORSDOF 7
ENDMDL
MODEL 3
REMARK VINA RESULT:      -8.2      3.519      8.161
REMARK  Name = 
REMARK  8 active torsions:
REMARK  status: ('A' for Active; 'I' for Inactive)
REMARK    1  A    between atoms: C_1  and  N_2
REMARK    2  A    between atoms: C_6  and  C_7
REMARK    3  A    between atoms: C_7  and  C_8
REMARK    4  A    between atoms: C_11  and  N_12
REMARK    5  A    between atoms: C_19  and  C_20
REMARK    6  A    between atoms: C_25  and  C_26
REMARK    7  A    between atoms: C_26  and  C_27
REMARK    8  A    between atoms: C_27  and  O_28
REMARK                            x       y       z     vdW  Elec       q    Type
REMARK                         _______ _______ _______ _____ _____    ______ ____
ROOT
ATOM      1  C   UNL     1       0.537   7.980  20.970  0.00  0.00    +0.000 A 
ATOM      2  C   UNL     1       1.198   8.718  19.994  0.00  0.00    +0.000 A 
ATOM      3  C   UNL     1       2.206   8.102  19.251  0.00  0.00    +0.000 A 
ATOM      4  C   UNL     1       2.547   6.774  19.499  0.00  0.00    +0.000 A 
ATOM      5  C   UNL     1       1.918   6.133  20.575  0.00  0.00    +0.000 A 
ATOM      6  N   UNL     1       0.896   6.709  21.272  0.00  0.00    +0.000 NA
ENDROOT
BRANCH   4   7
ATOM      7  N   UNL     1       3.513   6.129  18.701  0.00  0.00    +0.000 N 
ATOM      8  C   UNL     1       4.925   6.111  19.059  0.00  0.00    +0.000 C 
ATOM      9  C   UNL     1       5.527   5.271  17.970  0.00  0.00    +0.000 A 
ATOM     10  C   UNL     1       4.503   4.678  17.233  0.00  0.00    +0.000 A 
ATOM     11  C   UNL     1       4.734   3.892  16.121  0.00  0.00    +0.000 A 
ATOM     12  C   UNL     1       6.059   3.704  15.732  0.00  0.00    +0.000 A 
ATOM     13  C   UNL     1       7.110   4.278  16.472  0.00  0.00    +0.000 A 
ATOM     14  C   UNL     1       6.859   5.057  17.621  0.00  0.00    +0.000 A 
ATOM     15  C   UNL     1       3.212   5.126  17.781  0.00  0.00    +0.000 C 
ATOM     16  O   UNL     1       2.135   4.695  17.428  0.00  0.00    +0.000 OA
BRANCH  14  17
ATOM     17  C   UNL     1       7.994   5.698  18.369  0.00  0.00    +0.000 C 
ATOM     18  F   UNL     1       8.029   7.045  18.186  0.00  0.00    +0.000 F 
ATOM     19  F   UNL     1       7.902   5.512  19.718  0.00  0.00    +0.000 F 
ENDBRANCH  14  17
ENDBRANCH   4   7
BRANCH   1  20
ATOM     20  C   UNL     1      -0.611   8.564  21.763  0.00  0.00    +0.000 C 
BRANCH  20  26
ATOM     21  C   UNL     1      -1.351  10.805  19.673  0.00  0.00    +0.000 C 
ATOM     22  N   UNL     1      -0.879  10.994  21.019  0.00  0.00    +0.000 N 
ATOM     23  C   UNL     1      -0.680  12.199  21.623  0.00  0.00    +0.000 A 
ATOM     24  N   UNL     1      -0.259  12.011  22.849  0.00  0.00    +0.000 NA
ATOM     25  N   UNL     1      -0.172  10.655  23.055  0.00  0.00    +0.000 NA
ATOM     26  C   UNL     1      -0.542  10.042  21.948  0.00  0.00    +0.000 A 
ENDBRANCH  20  26
ENDBRANCH   1  20
BRANCH   5  27
ATOM     27  C   UNL     1       2.389   4.831  21.163  0.00  0.00    +0.000 C 
BRANCH  27  28
ATOM     28  C   UNL     1       1.536   3.630  20.770  0.00  0.00    +0.000 C 
ATOM     29  F   UNL     1       2.300   2.788  20.027  0.00  0.00    +0.000 F 
ATOM     30  F   UNL     1       1.134   2.926  21.849  0.00  0.00    +0.000 F 
BRANCH  28  31
ATOM     31  O   UNL     1       0.402   3.923  19.988  0.00  0.00    +0.000 OA
ATOM     32  H   UNL     1       0.464   3.350  19.210  0.00  0.00    +0.000 HD
ENDBRANCH  28  31
ENDBRANCH  27  28
ENDBRANCH   5  27
TORSDOF 7
ENDMDL
MODEL 4
REMARK VINA RESULT:      -8.1      1.905      2.432
REMARK  Name = 
REMARK  8 active torsions:
REMARK  status: ('A' for Active; 'I' for Inactive)
REMARK    1  A    between atoms: C_1  and  N_2
REMARK    2  A    between atoms: C_6  and  C_7
REMARK    3  A    between atoms: C_7  and  C_8
REMARK    4  A    between atoms: C_11  and  N_12
REMARK    5  A    between atoms: C_19  and  C_20
REMARK    6  A    between atoms: C_25  and  C_26
REMARK    7  A    between atoms: C_26  and  C_27
REMARK    8  A    between atoms: C_27  and  O_28
REMARK                            x       y       z     vdW  Elec       q    Type
REMARK                         _______ _______ _______ _____ _____    ______ ____
ROOT
ATOM      1  C   UNL     1       4.681   5.167  17.045  0.00  0.00    +0.000 A 
ATOM      2  C   UNL     1       4.875   6.520  16.791  0.00  0.00    +0.000 A 
ATOM      3  C   UNL     1       3.985   7.443  17.342  0.00  0.00    +0.000 A 
ATOM      4  C   UNL     1       2.915   7.007  18.121  0.00  0.00    +0.000 A 
ATOM      5  C   UNL     1       2.719   5.623  18.236  0.00  0.00    +0.000 A 
ATOM      6  N   UNL     1       3.612   4.716  17.745  0.00  0.00    +0.000 NA
ENDROOT
BRANCH   4   7
ATOM      7  N   UNL     1       2.060   7.940  18.738  0.00  0.00    +0.000 N 
ATOM      8  C   UNL     1       1.950   8.049  20.188  0.00  0.00    +0.000 C 
ATOM      9  C   UNL     1       0.995   9.194  20.357  0.00  0.00    +0.000 A 
ATOM     10  C   UNL     1       0.801   9.813  19.123  0.00  0.00    +0.000 A 
ATOM     11  C   UNL     1      -0.074  10.866  18.938  0.00  0.00    +0.000 A 
ATOM     12  C   UNL     1      -0.792  11.307  20.048  0.00  0.00    +0.000 A 
ATOM     13  C   UNL     1      -0.598  10.709  21.308  0.00  0.00    +0.000 A 
ATOM     14  C   UNL     1       0.319   9.652  21.487  0.00  0.00    +0.000 A 
ATOM     15  C   UNL     1       1.584   9.088  18.107  0.00  0.00    +0.000 C 
ATOM     16  O   UNL     1       1.713   9.452  16.958  0.00  0.00    +0.000 OA
BRANCH  14  17
ATOM     17  C   UNL     1       0.475   8.998  22.831  0.00  0.00    +0.000 C 
ATOM     18  F   UNL     1       1.740   9.127  23.315  0.00  0.00    +0.000 F 
ATOM     19  F   UNL     1      -0.339   9.549  23.777  0.00  0.00    +0.000 F 
ENDBRANCH  14  17
ENDBRANCH   4   7
BRANCH   1  20
ATOM     20  C   UNL     1       5.647   4.119  16.538  0.00  0.00    +0.000 C 
BRANCH  20  26
ATOM     21  C   UNL     1       5.109   3.588  13.477  0.00  0.00    +0.000 C 
ATOM     22  N   UNL     1       6.210   4.314  14.053  0.00  0.00    +0.000 N 
ATOM     23  C   UNL     1       7.215   4.910  13.352  0.00  0.00    +0.000 A 
ATOM     24  N   UNL     1       8.043   5.494  14.182  0.00  0.00    +0.000 NA
ATOM     25  N   UNL     1       7.580   5.272  15.456  0.00  0.00    +0.000 NA
ATOM     26  C   UNL     1       6.475   4.556  15.378  0.00  0.00    +0.000 A 
ENDBRANCH  20  26
ENDBRANCH   1  20
BRANCH   5  27
ATOM     27  C   UNL     1       1.457   5.000  18.767  0.00  0.00    +0.000 C 
BRANCH  27  28
ATOM     28  C   UNL     1       1.694   3.790  19.662  0.00  0.00    +0.000 C 
ATOM     29  F   UNL     1       0.747   3.786  20.636  0.00  0.00    +0.000 F 
ATOM     30  F   UNL     1       1.549   2.630  18.986  0.00  0.00    +0.000 F 
BRANCH  28  31
ATOM     31  O   UNL     1       2.937   3.760  20.324  0.00  0.00    +0.000 OA
ATOM     32  H   UNL     1       3.593   3.546  19.645  0.00  0.00    +0.000 HD
ENDBRANCH  28  31
ENDBRANCH  27  28
ENDBRANCH   5  27
TORSDOF 7
ENDMDL
MODEL 5
REMARK VINA RESULT:      -7.9      2.022      2.762
REMARK  Name = 
REMARK  8 active torsions:
REMARK  status: ('A' for Active; 'I' for Inactive)
REMARK    1  A    between atoms: C_1  and  N_2
REMARK    2  A    between atoms: C_6  and  C_7
REMARK    3  A    between atoms: C_7  and  C_8
REMARK    4  A    between atoms: C_11  and  N_12
REMARK    5  A    between atoms: C_19  and  C_20
REMARK    6  A    between atoms: C_25  and  C_26
REMARK    7  A    between atoms: C_26  and  C_27
REMARK    8  A    between atoms: C_27  and  O_28
REMARK                            x       y       z     vdW  Elec       q    Type
REMARK                         _______ _______ _______ _____ _____    ______ ____
ROOT
ATOM      1  C   UNL     1       4.851   5.714  17.992  0.00  0.00    +0.000 A 
ATOM      2  C   UNL     1       4.683   6.874  17.245  0.00  0.00    +0.000 A 
ATOM      3  C   UNL     1       3.672   7.767  17.604  0.00  0.00    +0.000 A 
ATOM      4  C   UNL     1       2.841   7.485  18.687  0.00  0.00    +0.000 A 
ATOM      5  C   UNL     1       2.997   6.243  19.318  0.00  0.00    +0.000 A 
ATOM      6  N   UNL     1       4.014   5.389  19.007  0.00  0.00    +0.000 NA
ENDROOT
BRANCH   4   7
ATOM      7  N   UNL     1       1.869   8.419  19.097  0.00  0.00    +0.000 N 
ATOM      8  C   UNL     1       1.505   8.592  20.497  0.00  0.00    +0.000 C 
ATOM      9  C   UNL     1       0.508   9.712  20.438  0.00  0.00    +0.000 A 
ATOM     10  C   UNL     1       0.520  10.266  19.159  0.00  0.00    +0.000 A 
ATOM     11  C   UNL     1      -0.334  11.281  18.771  0.00  0.00    +0.000 A 
ATOM     12  C   UNL     1      -1.246  11.749  19.715  0.00  0.00    +0.000 A 
ATOM     13  C   UNL     1      -1.263  11.218  21.018  0.00  0.00    +0.000 A 
ATOM     14  C   UNL     1      -0.367  10.200  21.408  0.00  0.00    +0.000 A 
ATOM     15  C   UNL     1       1.485   9.520  18.335  0.00  0.00    +0.000 C 
ATOM     16  O   UNL     1       1.805   9.834  17.208  0.00  0.00    +0.000 OA
BRANCH  14  17
ATOM     17  C   UNL     1      -0.434   9.615  22.791  0.00  0.00    +0.000 C 
ATOM     18  F   UNL     1      -1.275  10.315  23.599  0.00  0.00    +0.000 F 
ATOM     19  F   UNL     1      -0.901   8.334  22.794  0.00  0.00    +0.000 F 
ENDBRANCH  14  17
ENDBRANCH   4   7
BRANCH   1  20
ATOM     20  C   UNL     1       5.970   4.738  17.700  0.00  0.00    +0.000 C 
BRANCH  20  26
ATOM     21  C   UNL     1       4.958   3.332  15.067  0.00  0.00    +0.000 C 
ATOM     22  N   UNL     1       6.074   4.230  15.198  0.00  0.00    +0.000 N 
ATOM     23  C   UNL     1       6.885   4.633  14.181  0.00  0.00    +0.000 A 
ATOM     24  N   UNL     1       7.791   5.459  14.643  0.00  0.00    +0.000 NA
ATOM     25  N   UNL     1       7.577   5.598  15.993  0.00  0.00    +0.000 NA
ATOM     26  C   UNL     1       6.543   4.852  16.329  0.00  0.00    +0.000 A 
ENDBRANCH  20  26
ENDBRANCH   1  20
BRANCH   5  27
ATOM     27  C   UNL     1       1.995   5.663  20.279  0.00  0.00    +0.000 C 
BRANCH  27  28
ATOM     28  C   UNL     1       1.535   4.256  19.917  0.00  0.00    +0.000 C 
ATOM     29  F   UNL     1       0.470   3.940  20.698  0.00  0.00    +0.000 F 
ATOM     30  F   UNL     1       1.103   4.183  18.639  0.00  0.00    +0.000 F 
BRANCH  28  31
ATOM     31  O   UNL     1       2.485   3.236  20.119  0.00  0.00    +0.000 OA
ATOM     32  H   UNL     1       2.225   2.792  20.939  0.00  0.00    +0.000 HD
ENDBRANCH  28  31
ENDBRANCH  27  28
ENDBRANCH   5  27
TORSDOF 7
ENDMDL
MODEL 6
REMARK VINA RESULT:      -7.7      4.195      9.796
REMARK  Name = 
REMARK  8 active torsions:
REMARK  status: ('A' for Active; 'I' for Inactive)
REMARK    1  A    between atoms: C_1  and  N_2
REMARK    2  A    between atoms: C_6  and  C_7
REMARK    3  A    between atoms: C_7  and  C_8
REMARK    4  A    between atoms: C_11  and  N_12
REMARK    5  A    between atoms: C_19  and  C_20
REMARK    6  A    between atoms: C_25  and  C_26
REMARK    7  A    between atoms: C_26  and  C_27
REMARK    8  A    between atoms: C_27  and  O_28
REMARK                            x       y       z     vdW  Elec       q    Type
REMARK                         _______ _______ _______ _____ _____    ______ ____
ROOT
ATOM      1  C   UNL     1      -1.194  12.047  20.628  0.00  0.00    +0.000 A 
ATOM      2  C   UNL     1      -0.246  11.569  21.524  0.00  0.00    +0.000 A 
ATOM      3  C   UNL     1       0.586  10.519  21.129  0.00  0.00    +0.000 A 
ATOM      4  C   UNL     1       0.450   9.956  19.862  0.00  0.00    +0.000 A 
ATOM      5  C   UNL     1      -0.605  10.413  19.059  0.00  0.00    +0.000 A 
ATOM      6  N   UNL     1      -1.387  11.473  19.416  0.00  0.00    +0.000 NA
ENDROOT
BRANCH   4   7
ATOM      7  N   UNL     1       1.335   8.947  19.436  0.00  0.00    +0.000 N 
ATOM      8  C   UNL     1       1.206   7.565  19.882  0.00  0.00    +0.000 C 
ATOM      9  C   UNL     1       2.303   6.874  19.127  0.00  0.00    +0.000 A 
ATOM     10  C   UNL     1       2.817   7.747  18.169  0.00  0.00    +0.000 A 
ATOM     11  C   UNL     1       3.883   7.425  17.351  0.00  0.00    +0.000 A 
ATOM     12  C   UNL     1       4.461   6.168  17.516  0.00  0.00    +0.000 A 
ATOM     13  C   UNL     1       3.947   5.263  18.465  0.00  0.00    +0.000 A 
ATOM     14  C   UNL     1       2.841   5.597  19.275  0.00  0.00    +0.000 A 
ATOM     15  C   UNL     1       2.109   9.034  18.280  0.00  0.00    +0.000 C 
ATOM     16  O   UNL     1       2.250   9.958  17.509  0.00  0.00    +0.000 OA
BRANCH  14  17
ATOM     17  C   UNL     1       2.339   4.633  20.312  0.00  0.00    +0.000 C 
ATOM     18  F   UNL     1       2.469   5.128  21.573  0.00  0.00    +0.000 F 
ATOM     19  F   UNL     1       1.013   4.350  20.164  0.00  0.00    +0.000 F 
ENDBRANCH  14  17
ENDBRANCH   4   7
BRANCH   1  20
ATOM     20  C   UNL     1      -2.079  13.227  20.964  0.00  0.00    +0.000 C 
BRANCH  20  26
ATOM     21  C   UNL     1      -1.513  14.278  23.881  0.00  0.00    +0.000 C 
ATOM     22  N   UNL     1      -2.649  13.516  23.438  0.00  0.00    +0.000 N 
ATOM     23  C   UNL     1      -3.691  13.124  24.223  0.00  0.00    +0.000 A 
ATOM     24  N   UNL     1      -4.559  12.458  23.502  0.00  0.00    +0.000 NA
ATOM     25  N   UNL     1      -4.076  12.403  22.217  0.00  0.00    +0.000 NA
ATOM     26  C   UNL     1      -2.920  13.038  22.180  0.00  0.00    +0.000 A 
ENDBRANCH  20  26
ENDBRANCH   1  20
BRANCH   5  27
ATOM     27  C   UNL     1      -1.075   9.707  17.817  0.00  0.00    +0.000 C 
BRANCH  27  28
ATOM     28  C   UNL     1      -2.179  10.444  17.068  0.00  0.00    +0.000 C 
ATOM     29  F   UNL     1      -2.450   9.761  15.925  0.00  0.00    +0.000 F 
ATOM     30  F   UNL     1      -3.329  10.474  17.774  0.00  0.00    +0.000 F 
BRANCH  28  31
ATOM     31  O   UNL     1      -1.870  11.760  16.674  0.00  0.00    +0.000 OA
ATOM     32  H   UNL     1      -2.590  12.312  17.012  0.00  0.00    +0.000 HD
ENDBRANCH  28  31
ENDBRANCH  27  28
ENDBRANCH   5  27
TORSDOF 7
ENDMDL
MODEL 7
REMARK VINA RESULT:      -7.7      0.828      1.306
REMARK  Name = 
REMARK  8 active torsions:
REMARK  status: ('A' for Active; 'I' for Inactive)
REMARK    1  A    between atoms: C_1  and  N_2
REMARK    2  A    between atoms: C_6  and  C_7
REMARK    3  A    between atoms: C_7  and  C_8
REMARK    4  A    between atoms: C_11  and  N_12
REMARK    5  A    between atoms: C_19  and  C_20
REMARK    6  A    between atoms: C_25  and  C_26
REMARK    7  A    between atoms: C_26  and  C_27
REMARK    8  A    between atoms: C_27  and  O_28
REMARK                            x       y       z     vdW  Elec       q    Type
REMARK                         _______ _______ _______ _____ _____    ______ ____
ROOT
ATOM      1  C   UNL     1       5.670   4.884  16.211  0.00  0.00    +0.000 A 
ATOM      2  C   UNL     1       5.955   6.221  16.464  0.00  0.00    +0.000 A 
ATOM      3  C   UNL     1       5.053   6.970  17.222  0.00  0.00    +0.000 A 
ATOM      4  C   UNL     1       3.884   6.382  17.702  0.00  0.00    +0.000 A 
ATOM      5  C   UNL     1       3.612   5.065  17.308  0.00  0.00    +0.000 A 
ATOM      6  N   UNL     1       4.510   4.311  16.612  0.00  0.00    +0.000 NA
ENDROOT
BRANCH   4   7
ATOM      7  N   UNL     1       3.010   7.115  18.529  0.00  0.00    +0.000 N 
ATOM      8  C   UNL     1       2.108   8.129  17.995  0.00  0.00    +0.000 C 
ATOM      9  C   UNL     1       1.355   8.570  19.216  0.00  0.00    +0.000 A 
ATOM     10  C   UNL     1       1.640   7.699  20.267  0.00  0.00    +0.000 A 
ATOM     11  C   UNL     1       1.145   7.875  21.545  0.00  0.00    +0.000 A 
ATOM     12  C   UNL     1       0.333   8.984  21.772  0.00  0.00    +0.000 A 
ATOM     13  C   UNL     1       0.016   9.866  20.721  0.00  0.00    +0.000 A 
ATOM     14  C   UNL     1       0.508   9.659  19.415  0.00  0.00    +0.000 A 
ATOM     15  C   UNL     1       2.602   6.691  19.792  0.00  0.00    +0.000 C 
ATOM     16  O   UNL     1       2.957   5.729  20.440  0.00  0.00    +0.000 OA
BRANCH  14  17
ATOM     17  C   UNL     1       0.195  10.639  18.319  0.00  0.00    +0.000 C 
ATOM     18  F   UNL     1      -0.754  10.164  17.468  0.00  0.00    +0.000 F 
ATOM     19  F   UNL     1      -0.296  11.818  18.797  0.00  0.00    +0.000 F 
ENDBRANCH  14  17
ENDBRANCH   4   7
BRANCH   1  20
ATOM     20  C   UNL     1       6.636   3.997  15.456  0.00  0.00    +0.000 C 
BRANCH  20  26
ATOM     21  C   UNL     1       8.227   5.417  13.134  0.00  0.00    +0.000 C 
ATOM     22  N   UNL     1       7.094   4.540  13.001  0.00  0.00    +0.000 N 
ATOM     23  C   UNL     1       6.519   4.167  11.824  0.00  0.00    +0.000 A 
ATOM     24  N   UNL     1       5.520   3.354  12.062  0.00  0.00    +0.000 NA
ATOM     25  N   UNL     1       5.429   3.194  13.423  0.00  0.00    +0.000 NA
ATOM     26  C   UNL     1       6.377   3.914  13.990  0.00  0.00    +0.000 A 
ENDBRANCH  20  26
ENDBRANCH   1  20
BRANCH   5  27
ATOM     27  C   UNL     1       2.270   4.404  17.475  0.00  0.00    +0.000 C 
BRANCH  27  28
ATOM     28  C   UNL     1       2.320   3.092  18.248  0.00  0.00    +0.000 C 
ATOM     29  F   UNL     1       1.174   2.977  18.970  0.00  0.00    +0.000 F 
ATOM     30  F   UNL     1       2.356   2.024  17.422  0.00  0.00    +0.000 F 
BRANCH  28  31
ATOM     31  O   UNL     1       3.377   2.971  19.170  0.00  0.00    +0.000 OA
ATOM     32  H   UNL     1       3.460   3.839  19.591  0.00  0.00    +0.000 HD
ENDBRANCH  28  31
ENDBRANCH  27  28
ENDBRANCH   5  27
TORSDOF 7
ENDMDL
MODEL 8
REMARK VINA RESULT:      -7.6      4.394      6.031
REMARK  Name = 
REMARK  8 active torsions:
REMARK  status: ('A' for Active; 'I' for Inactive)
REMARK    1  A    between atoms: C_1  and  N_2
REMARK    2  A    between atoms: C_6  and  C_7
REMARK    3  A    between atoms: C_7  and  C_8
REMARK    4  A    between atoms: C_11  and  N_12
REMARK    5  A    between atoms: C_19  and  C_20
REMARK    6  A    between atoms: C_25  and  C_26
REMARK    7  A    between atoms: C_26  and  C_27
REMARK    8  A    between atoms: C_27  and  O_28
REMARK                            x       y       z     vdW  Elec       q    Type
REMARK                         _______ _______ _______ _____ _____    ______ ____
ROOT
ATOM      1  C   UNL     1       2.577   6.727  19.097  0.00  0.00    +0.000 A 
ATOM      2  C   UNL     1       2.707   7.534  17.974  0.00  0.00    +0.000 A 
ATOM      3  C   UNL     1       2.170   8.823  18.004  0.00  0.00    +0.000 A 
ATOM      4  C   UNL     1       1.505   9.278  19.140  0.00  0.00    +0.000 A 
ATOM      5  C   UNL     1       1.312   8.366  20.188  0.00  0.00    +0.000 A 
ATOM      6  N   UNL     1       1.877   7.125  20.188  0.00  0.00    +0.000 NA
ENDROOT
BRANCH   4   7
ATOM      7  N   UNL     1       1.027  10.602  19.199  0.00  0.00    +0.000 N 
ATOM      8  C   UNL     1       1.885  11.747  18.920  0.00  0.00    +0.000 C 
ATOM      9  C   UNL     1       0.936  12.903  19.042  0.00  0.00    +0.000 A 
ATOM     10  C   UNL     1      -0.368  12.415  19.127  0.00  0.00    +0.000 A 
ATOM     11  C   UNL     1      -1.467  13.233  19.308  0.00  0.00    +0.000 A 
ATOM     12  C   UNL     1      -1.237  14.603  19.417  0.00  0.00    +0.000 A 
ATOM     13  C   UNL     1       0.069  15.119  19.315  0.00  0.00    +0.000 A 
ATOM     14  C   UNL     1       1.179  14.274  19.104  0.00  0.00    +0.000 A 
ATOM     15  C   UNL     1      -0.320  10.944  19.099  0.00  0.00    +0.000 C 
ATOM     16  O   UNL     1      -1.299  10.231  19.041  0.00  0.00    +0.000 OA
BRANCH  14  17
ATOM     17  C   UNL     1       2.569  14.843  19.044  0.00  0.00    +0.000 C 
ATOM     18  F   UNL     1       3.361  14.354  20.036  0.00  0.00    +0.000 F 
ATOM     19  F   UNL     1       3.208  14.539  17.878  0.00  0.00    +0.000 F 
ENDBRANCH  14  17
ENDBRANCH   4   7
BRANCH   1  20
ATOM     20  C   UNL     1       3.194   5.347  19.159  0.00  0.00    +0.000 C 
BRANCH  20  26
ATOM     21  C   UNL     1       2.012   3.531  21.448  0.00  0.00    +0.000 C 
ATOM     22  N   UNL     1       1.715   3.460  20.042  0.00  0.00    +0.000 N 
ATOM     23  C   UNL     1       0.850   2.582  19.462  0.00  0.00    +0.000 A 
ATOM     24  N   UNL     1       0.806   2.798  18.170  0.00  0.00    +0.000 NA
ATOM     25  N   UNL     1       1.665   3.833  17.892  0.00  0.00    +0.000 NA
ATOM     26  C   UNL     1       2.218   4.229  19.022  0.00  0.00    +0.000 A 
ENDBRANCH  20  26
ENDBRANCH   1  20
BRANCH   5  27
ATOM     27  C   UNL     1       0.360   8.596  21.329  0.00  0.00    +0.000 C 
BRANCH  27  28
ATOM     28  C   UNL     1       0.951   9.409  22.474  0.00  0.00    +0.000 C 
ATOM     29  F   UNL     1       0.777  10.727  22.197  0.00  0.00    +0.000 F 
ATOM     30  F   UNL     1       0.308   9.177  23.638  0.00  0.00    +0.000 F 
BRANCH  28  31
ATOM     31  O   UNL     1       2.331   9.233  22.692  0.00  0.00    +0.000 OA
ATOM     32  H   UNL     1       2.628   8.609  22.014  0.00  0.00    +0.000 HD
ENDBRANCH  28  31
ENDBRANCH  27  28
ENDBRANCH   5  27
TORSDOF 7
ENDMDL
MODEL 9
REMARK VINA RESULT:      -7.6      4.199      9.703
REMARK  Name = 
REMARK  8 active torsions:
REMARK  status: ('A' for Active; 'I' for Inactive)
REMARK    1  A    between atoms: C_1  and  N_2
REMARK    2  A    between atoms: C_6  and  C_7
REMARK    3  A    between atoms: C_7  and  C_8
REMARK    4  A    between atoms: C_11  and  N_12
REMARK    5  A    between atoms: C_19  and  C_20
REMARK    6  A    between atoms: C_25  and  C_26
REMARK    7  A    between atoms: C_26  and  C_27
REMARK    8  A    between atoms: C_27  and  O_28
REMARK                            x       y       z     vdW  Elec       q    Type
REMARK                         _______ _______ _______ _____ _____    ______ ____
ROOT
ATOM      1  C   UNL     1      -1.063  12.232  20.514  0.00  0.00    +0.000 A 
ATOM      2  C   UNL     1      -0.141  11.774  21.448  0.00  0.00    +0.000 A 
ATOM      3  C   UNL     1       0.655  10.674  21.127  0.00  0.00    +0.000 A 
ATOM      4  C   UNL     1       0.513  10.042  19.893  0.00  0.00    +0.000 A 
ATOM      5  C   UNL     1      -0.517  10.488  19.052  0.00  0.00    +0.000 A 
ATOM      6  N   UNL     1      -1.264  11.594  19.335  0.00  0.00    +0.000 NA
ENDROOT
BRANCH   4   7
ATOM      7  N   UNL     1       1.365   8.979  19.538  0.00  0.00    +0.000 N 
ATOM      8  C   UNL     1       1.241   7.655  20.136  0.00  0.00    +0.000 C 
ATOM      9  C   UNL     1       2.294   6.870  19.410  0.00  0.00    +0.000 A 
ATOM     10  C   UNL     1       2.772   7.627  18.341  0.00  0.00    +0.000 A 
ATOM     11  C   UNL     1       3.794   7.201  17.515  0.00  0.00    +0.000 A 
ATOM     12  C   UNL     1       4.365   5.959  17.788  0.00  0.00    +0.000 A 
ATOM     13  C   UNL     1       3.886   5.170  18.851  0.00  0.00    +0.000 A 
ATOM     14  C   UNL     1       2.823   5.606  19.669  0.00  0.00    +0.000 A 
ATOM     15  C   UNL     1       2.085   8.929  18.346  0.00  0.00    +0.000 C 
ATOM     16  O   UNL     1       2.200   9.764  17.473  0.00  0.00    +0.000 OA
BRANCH  14  17
ATOM     17  C   UNL     1       2.359   4.767  20.827  0.00  0.00    +0.000 C 
ATOM     18  F   UNL     1       1.036   4.465  20.738  0.00  0.00    +0.000 F 
ATOM     19  F   UNL     1       3.006   3.569  20.896  0.00  0.00    +0.000 F 
ENDBRANCH  14  17
ENDBRANCH   4   7
BRANCH   1  20
ATOM     20  C   UNL     1      -1.908  13.460  20.769  0.00  0.00    +0.000 C 
BRANCH  20  26
ATOM     21  C   UNL     1      -3.223  12.770  23.550  0.00  0.00    +0.000 C 
ATOM     22  N   UNL     1      -3.887  12.881  22.278  0.00  0.00    +0.000 N 
ATOM     23  C   UNL     1      -5.222  12.710  22.068  0.00  0.00    +0.000 A 
ATOM     24  N   UNL     1      -5.494  12.894  20.799  0.00  0.00    +0.000 NA
ATOM     25  N   UNL     1      -4.314  13.184  20.159  0.00  0.00    +0.000 NA
ATOM     26  C   UNL     1      -3.343  13.172  21.052  0.00  0.00    +0.000 A 
ENDBRANCH  20  26
ENDBRANCH   1  20
BRANCH   5  27
ATOM     27  C   UNL     1      -0.999   9.727  17.847  0.00  0.00    +0.000 C 
BRANCH  27  28
ATOM     28  C   UNL     1      -2.207  10.355  17.162  0.00  0.00    +0.000 C 
ATOM     29  F   UNL     1      -2.580   9.552  16.132  0.00  0.00    +0.000 F 
ATOM     30  F   UNL     1      -3.270  10.430  17.990  0.00  0.00    +0.000 F 
BRANCH  28  31
ATOM     31  O   UNL     1      -1.992  11.631  16.606  0.00  0.00    +0.000 OA
ATOM     32  H   UNL     1      -1.298  11.515  15.941  0.00  0.00    +0.000 HD
ENDBRANCH  28  31
ENDBRANCH  27  28
ENDBRANCH   5  27
TORSDOF 7
ENDMDL
