MODEL 1
REMARK VINA RESULT:      -8.7      0.000      0.000
REMARK  Name = 
REMARK  6 active torsions:
REMARK  status: ('A' for Active; 'I' for Inactive)
REMARK    1  A    between atoms: C_1  and  C_2
REMARK    2  A    between atoms: C_6  and  C_7
REMARK    3  A    between atoms: N_9  and  C_10
REMARK    4  A    between atoms: C_10  and  C_11
REMARK    5  A    between atoms: C_10  and  C_12
REMARK    6  A    between atoms: N_14  and  C_15
REMARK                            x       y       z     vdW  Elec       q    Type
REMARK                         _______ _______ _______ _____ _____    ______ ____
ROOT
ATOM      1  C   UNL     1       1.565   8.192  20.021  0.00  0.00    +0.000 C 
ATOM      2  O   UNL     1       2.075   8.267  18.905  0.00  0.00    +0.000 OA
ATOM      3  N   UNL     1       1.472   7.037  20.796  0.00  0.00    +0.000 N 
ATOM      4  H   UNL     1       0.924   7.109  21.646  0.00  0.00    +0.000 HD
ENDROOT
BRANCH   3   5
ATOM      5  C   UNL     1       1.937   5.755  20.431  0.00  0.00    +0.000 A 
ATOM      6  C   UNL     1       1.132   4.594  20.508  0.00  0.00    +0.000 A 
ATOM      7  C   UNL     1       1.631   3.319  20.210  0.00  0.00    +0.000 A 
ATOM      8  C   UNL     1       2.953   3.214  19.831  0.00  0.00    +0.000 A 
ATOM      9  C   UNL     1       3.733   4.362  19.718  0.00  0.00    +0.000 A 
ATOM     10  C   UNL     1       3.257   5.637  19.981  0.00  0.00    +0.000 A 
ATOM     11  C   UNL     1       5.086   3.937  19.332  0.00  0.00    +0.000 C 
ATOM     12  O   UNL     1       6.038   4.672  19.161  0.00  0.00    +0.000 OA
ATOM     13  N   UNL     1       5.058   2.564  19.228  0.00  0.00    +0.000 N 
ATOM     14  C   UNL     1       3.762   1.999  19.524  0.00  0.00    +0.000 C 
ATOM     15  H   UNL     1       5.892   2.034  19.012  0.00  0.00    +0.000 HD
ENDBRANCH   3   5
BRANCH   1  16
ATOM     16  C   UNL     1       0.963   9.449  20.688  0.00  0.00    +0.000 C 
ATOM     17  C   UNL     1       0.814   9.229  22.190  0.00  0.00    +0.000 C 
BRANCH  16  20
ATOM     18  C   UNL     1      -0.381  10.685  19.017  0.00  0.00    +0.000 C 
ATOM     19  O   UNL     1       0.598  11.323  18.637  0.00  0.00    +0.000 OA
ATOM     20  N   UNL     1      -0.315   9.768  20.050  0.00  0.00    +0.000 N 
ATOM     21  H   UNL     1      -1.034   9.064  20.106  0.00  0.00    +0.000 HD
BRANCH  18  27
ATOM     22  C   UNL     1      -3.273   9.987  15.001  0.00  0.00    +0.000 C 
ATOM     23  C   UNL     1      -3.102  10.556  16.378  0.00  0.00    +0.000 A 
ATOM     24  C   UNL     1      -4.135  11.266  16.996  0.00  0.00    +0.000 A 
ATOM     25  C   UNL     1      -3.963  11.789  18.276  0.00  0.00    +0.000 A 
ATOM     26  C   UNL     1      -2.758  11.611  18.956  0.00  0.00    +0.000 A 
ATOM     27  C   UNL     1      -1.708  10.900  18.358  0.00  0.00    +0.000 A 
ATOM     28  C   UNL     1      -1.892  10.377  17.066  0.00  0.00    +0.000 A 
ENDBRANCH  18  27
ENDBRANCH  16  20
ENDBRANCH   1  16
TORSDOF 4
ENDMDL
MODEL 2
REMARK VINA RESULT:      -8.5      2.227      2.587
REMARK  Name = 
REMARK  6 active torsions:
REMARK  status: ('A' for Active; 'I' for Inactive)
REMARK    1  A    between atoms: C_1  and  C_2
REMARK    2  A    between atoms: C_6  and  C_7
REMARK    3  A    between atoms: N_9  and  C_10
REMARK    4  A    between atoms: C_10  and  C_11
REMARK    5  A    between atoms: C_10  and  C_12
REMARK    6  A    between atoms: N_14  and  C_15
REMARK                            x       y       z     vdW  Elec       q    Type
REMARK                         _______ _______ _______ _____ _____    ______ ____
ROOT
ATOM      1  C   UNL     1       2.124   8.734  18.293  0.00  0.00    +0.000 C 
ATOM      2  O   UNL     1       2.492   9.258  17.244  0.00  0.00    +0.000 OA
ATOM      3  N   UNL     1       2.492   7.467  18.742  0.00  0.00    +0.000 N 
ATOM      4  H   UNL     1       2.019   7.128  19.572  0.00  0.00    +0.000 HD
ENDROOT
BRANCH   3   5
ATOM      5  C   UNL     1       3.341   6.563  18.066  0.00  0.00    +0.000 A 
ATOM      6  C   UNL     1       2.953   5.243  17.737  0.00  0.00    +0.000 A 
ATOM      7  C   UNL     1       3.832   4.336  17.131  0.00  0.00    +0.000 A 
ATOM      8  C   UNL     1       5.114   4.765  16.853  0.00  0.00    +0.000 A 
ATOM      9  C   UNL     1       5.482   6.076  17.142  0.00  0.00    +0.000 A 
ATOM     10  C   UNL     1       4.624   7.000  17.717  0.00  0.00    +0.000 A 
ATOM     11  C   UNL     1       6.896   6.228  16.770  0.00  0.00    +0.000 C 
ATOM     12  O   UNL     1       7.559   7.237  16.900  0.00  0.00    +0.000 OA
ATOM     13  N   UNL     1       7.310   5.011  16.274  0.00  0.00    +0.000 N 
ATOM     14  C   UNL     1       6.267   4.011  16.282  0.00  0.00    +0.000 C 
ATOM     15  H   UNL     1       8.267   4.856  15.989  0.00  0.00    +0.000 HD
ENDBRANCH   3   5
BRANCH   1  16
ATOM     16  C   UNL     1       1.178   9.492  19.251  0.00  0.00    +0.000 C 
ATOM     17  C   UNL     1       1.045   8.734  20.570  0.00  0.00    +0.000 C 
BRANCH  16  20
ATOM     18  C   UNL     1      -0.900  10.788  18.895  0.00  0.00    +0.000 C 
ATOM     19  O   UNL     1      -0.593  11.603  19.761  0.00  0.00    +0.000 OA
ATOM     20  N   UNL     1      -0.116   9.687  18.597  0.00  0.00    +0.000 N 
ATOM     21  H   UNL     1      -0.237   9.247  17.699  0.00  0.00    +0.000 HD
BRANCH  18  27
ATOM     22  C   UNL     1      -3.367  10.163  14.594  0.00  0.00    +0.000 C 
ATOM     23  C   UNL     1      -3.357  10.659  16.009  0.00  0.00    +0.000 A 
ATOM     24  C   UNL     1      -4.485  11.271  16.564  0.00  0.00    +0.000 A 
ATOM     25  C   UNL     1      -4.463  11.727  17.881  0.00  0.00    +0.000 A 
ATOM     26  C   UNL     1      -3.316  11.578  18.661  0.00  0.00    +0.000 A 
ATOM     27  C   UNL     1      -2.173  10.965  18.127  0.00  0.00    +0.000 A 
ATOM     28  C   UNL     1      -2.206  10.510  16.797  0.00  0.00    +0.000 A 
ENDBRANCH  18  27
ENDBRANCH  16  20
ENDBRANCH   1  16
TORSDOF 4
ENDMDL
MODEL 3
REMARK VINA RESULT:      -8.5      5.452      8.336
REMARK  Name = 
REMARK  6 active torsions:
REMARK  status: ('A' for Active; 'I' for Inactive)
REMARK    1  A    between atoms: C_1  and  C_2
REMARK    2  A    between atoms: C_6  and  C_7
REMARK    3  A    between atoms: N_9  and  C_10
REMARK    4  A    between atoms: C_10  and  C_11
REMARK    5  A    between atoms: C_10  and  C_12
REMARK    6  A    between atoms: N_14  and  C_15
REMARK                            x       y       z     vdW  Elec       q    Type
REMARK                         _______ _______ _______ _____ _____    ______ ____
ROOT
ATOM      1  C   UNL     1       6.516   5.949  18.424  0.00  0.00    +0.000 C 
ATOM      2  O   UNL     1       6.802   5.306  19.432  0.00  0.00    +0.000 OA
ATOM      3  N   UNL     1       5.232   6.131  17.913  0.00  0.00    +0.000 N 
ATOM      4  H   UNL     1       5.167   6.592  17.012  0.00  0.00    +0.000 HD
ENDROOT
BRANCH   3   5
ATOM      5  C   UNL     1       4.041   5.603  18.458  0.00  0.00    +0.000 A 
ATOM      6  C   UNL     1       3.331   6.230  19.507  0.00  0.00    +0.000 A 
ATOM      7  C   UNL     1       2.190   5.657  20.084  0.00  0.00    +0.000 A 
ATOM      8  C   UNL     1       1.762   4.439  19.598  0.00  0.00    +0.000 A 
ATOM      9  C   UNL     1       2.440   3.841  18.538  0.00  0.00    +0.000 A 
ATOM     10  C   UNL     1       3.554   4.400  17.932  0.00  0.00    +0.000 A 
ATOM     11  C   UNL     1       1.780   2.556  18.264  0.00  0.00    +0.000 C 
ATOM     12  O   UNL     1       2.114   1.754  17.415  0.00  0.00    +0.000 OA
ATOM     13  N   UNL     1       0.741   2.443  19.161  0.00  0.00    +0.000 N 
ATOM     14  C   UNL     1       0.637   3.573  20.055  0.00  0.00    +0.000 C 
ATOM     15  H   UNL     1       0.162   1.614  19.195  0.00  0.00    +0.000 HD
ENDBRANCH   3   5
BRANCH   1  16
ATOM     16  C   UNL     1       7.625   6.649  17.607  0.00  0.00    +0.000 C 
ATOM     17  C   UNL     1       7.621   8.148  17.890  0.00  0.00    +0.000 C 
BRANCH  16  20
ATOM     18  C   UNL     1       7.547   5.064  15.708  0.00  0.00    +0.000 C 
ATOM     19  O   UNL     1       7.880   4.122  16.423  0.00  0.00    +0.000 OA
ATOM     20  N   UNL     1       7.434   6.357  16.186  0.00  0.00    +0.000 N 
ATOM     21  H   UNL     1       6.868   7.009  15.665  0.00  0.00    +0.000 HD
BRANCH  18  27
ATOM     22  C   UNL     1       4.611   2.933  12.270  0.00  0.00    +0.000 C 
ATOM     23  C   UNL     1       5.815   3.768  12.593  0.00  0.00    +0.000 A 
ATOM     24  C   UNL     1       6.627   4.281  11.578  0.00  0.00    +0.000 A 
ATOM     25  C   UNL     1       7.741   5.057  11.892  0.00  0.00    +0.000 A 
ATOM     26  C   UNL     1       8.059   5.330  13.222  0.00  0.00    +0.000 A 
ATOM     27  C   UNL     1       7.258   4.829  14.258  0.00  0.00    +0.000 A 
ATOM     28  C   UNL     1       6.137   4.047  13.930  0.00  0.00    +0.000 A 
ENDBRANCH  18  27
ENDBRANCH  16  20
ENDBRANCH   1  16
TORSDOF 4
ENDMDL
MODEL 4
REMARK VINA RESULT:      -8.4      1.604      2.443
REMARK  Name = 
REMARK  6 active torsions:
REMARK  status: ('A' for Active; 'I' for Inactive)
REMARK    1  A    between atoms: C_1  and  C_2
REMARK    2  A    between atoms: C_6  and  C_7
REMARK    3  A    between atoms: N_9  and  C_10
REMARK    4  A    between atoms: C_10  and  C_11
REMARK    5  A    between atoms: C_10  and  C_12
REMARK    6  A    between atoms: N_14  and  C_15
REMARK                            x       y       z     vdW  Elec       q    Type
REMARK                         _______ _______ _______ _____ _____    ______ ____
ROOT
ATOM      1  C   UNL     1       1.829   8.142  19.698  0.00  0.00    +0.000 C 
ATOM      2  O   UNL     1       2.217   8.311  18.543  0.00  0.00    +0.000 OA
ATOM      3  N   UNL     1       1.920   6.954  20.420  0.00  0.00    +0.000 N 
ATOM      4  H   UNL     1       1.456   6.938  21.322  0.00  0.00    +0.000 HD
ENDROOT
BRANCH   3   5
ATOM      5  C   UNL     1       2.462   5.737  19.950  0.00  0.00    +0.000 A 
ATOM      6  C   UNL     1       3.844   5.551  19.716  0.00  0.00    +0.000 A 
ATOM      7  C   UNL     1       4.357   4.362  19.181  0.00  0.00    +0.000 A 
ATOM      8  C   UNL     1       3.467   3.351  18.880  0.00  0.00    +0.000 A 
ATOM      9  C   UNL     1       2.111   3.522  19.148  0.00  0.00    +0.000 A 
ATOM     10  C   UNL     1       1.582   4.678  19.700  0.00  0.00    +0.000 A 
ATOM     11  C   UNL     1       1.418   2.306  18.698  0.00  0.00    +0.000 C 
ATOM     12  O   UNL     1       0.221   2.109  18.757  0.00  0.00    +0.000 OA
ATOM     13  N   UNL     1       2.382   1.464  18.188  0.00  0.00    +0.000 N 
ATOM     14  C   UNL     1       3.713   2.023  18.250  0.00  0.00    +0.000 C 
ATOM     15  H   UNL     1       2.139   0.573  17.776  0.00  0.00    +0.000 HD
ENDBRANCH   3   5
BRANCH   1  16
ATOM     16  C   UNL     1       1.184   9.308  20.480  0.00  0.00    +0.000 C 
ATOM     17  C   UNL     1       1.112   8.970  21.967  0.00  0.00    +0.000 C 
BRANCH  16  20
ATOM     18  C   UNL     1      -0.297  10.575  18.955  0.00  0.00    +0.000 C 
ATOM     19  O   UNL     1       0.627  11.294  18.584  0.00  0.00    +0.000 OA
ATOM     20  N   UNL     1      -0.136   9.594  19.918  0.00  0.00    +0.000 N 
ATOM     21  H   UNL     1      -0.811   8.846  19.952  0.00  0.00    +0.000 HD
BRANCH  18  27
ATOM     22  C   UNL     1      -4.866  12.553  19.395  0.00  0.00    +0.000 C 
ATOM     23  C   UNL     1      -3.895  11.724  18.608  0.00  0.00    +0.000 A 
ATOM     24  C   UNL     1      -4.267  11.142  17.394  0.00  0.00    +0.000 A 
ATOM     25  C   UNL     1      -3.354  10.375  16.671  0.00  0.00    +0.000 A 
ATOM     26  C   UNL     1      -2.059  10.179  17.152  0.00  0.00    +0.000 A 
ATOM     27  C   UNL     1      -1.661  10.756  18.366  0.00  0.00    +0.000 A 
ATOM     28  C   UNL     1      -2.591  11.527  19.087  0.00  0.00    +0.000 A 
ENDBRANCH  18  27
ENDBRANCH  16  20
ENDBRANCH   1  16
TORSDOF 4
ENDMDL
MODEL 5
REMARK VINA RESULT:      -8.4      6.232      8.367
REMARK  Name = 
REMARK  6 active torsions:
REMARK  status: ('A' for Active; 'I' for Inactive)
REMARK    1  A    between atoms: C_1  and  C_2
REMARK    2  A    between atoms: C_6  and  C_7
REMARK    3  A    between atoms: N_9  and  C_10
REMARK    4  A    between atoms: C_10  and  C_11
REMARK    5  A    between atoms: C_10  and  C_12
REMARK    6  A    between atoms: N_14  and  C_15
REMARK                            x       y       z     vdW  Elec       q    Type
REMARK                         _______ _______ _______ _____ _____    ______ ____
ROOT
ATOM      1  C   UNL     1       6.276   4.940  18.686  0.00  0.00    +0.000 C 
ATOM      2  O   UNL     1       5.899   5.550  19.685  0.00  0.00    +0.000 OA
ATOM      3  N   UNL     1       5.531   3.995  17.982  0.00  0.00    +0.000 N 
ATOM      4  H   UNL     1       6.019   3.496  17.245  0.00  0.00    +0.000 HD
ENDROOT
BRANCH   3   5
ATOM      5  C   UNL     1       4.223   3.568  18.297  0.00  0.00    +0.000 A 
ATOM      6  C   UNL     1       3.247   3.285  17.313  0.00  0.00    +0.000 A 
ATOM      7  C   UNL     1       1.933   2.932  17.644  0.00  0.00    +0.000 A 
ATOM      8  C   UNL     1       1.599   2.864  18.981  0.00  0.00    +0.000 A 
ATOM      9  C   UNL     1       2.571   3.104  19.949  0.00  0.00    +0.000 A 
ATOM     10  C   UNL     1       3.884   3.429  19.648  0.00  0.00    +0.000 A 
ATOM     11  C   UNL     1       1.919   2.990  21.262  0.00  0.00    +0.000 C 
ATOM     12  O   UNL     1       2.459   3.155  22.338  0.00  0.00    +0.000 OA
ATOM     13  N   UNL     1       0.597   2.684  21.026  0.00  0.00    +0.000 N 
ATOM     14  C   UNL     1       0.282   2.583  19.620  0.00  0.00    +0.000 C 
ATOM     15  H   UNL     1      -0.067   2.597  21.783  0.00  0.00    +0.000 HD
ENDBRANCH   3   5
BRANCH   1  16
ATOM     16  C   UNL     1       7.682   5.199  18.100  0.00  0.00    +0.000 C 
ATOM     17  C   UNL     1       8.075   6.660  18.298  0.00  0.00    +0.000 C 
BRANCH  16  20
ATOM     18  C   UNL     1       6.869   5.444  15.775  0.00  0.00    +0.000 C 
ATOM     19  O   UNL     1       6.043   6.291  16.106  0.00  0.00    +0.000 OA
ATOM     20  N   UNL     1       7.695   4.813  16.689  0.00  0.00    +0.000 N 
ATOM     21  H   UNL     1       8.541   4.385  16.347  0.00  0.00    +0.000 HD
BRANCH  18  27
ATOM     22  C   UNL     1       5.275   2.558  12.019  0.00  0.00    +0.000 C 
ATOM     23  C   UNL     1       6.208   3.623  12.515  0.00  0.00    +0.000 A 
ATOM     24  C   UNL     1       7.155   4.200  11.666  0.00  0.00    +0.000 A 
ATOM     25  C   UNL     1       8.015   5.190  12.139  0.00  0.00    +0.000 A 
ATOM     26  C   UNL     1       7.940   5.616  13.465  0.00  0.00    +0.000 A 
ATOM     27  C   UNL     1       6.996   5.053  14.336  0.00  0.00    +0.000 A 
ATOM     28  C   UNL     1       6.134   4.054  13.848  0.00  0.00    +0.000 A 
ENDBRANCH  18  27
ENDBRANCH  16  20
ENDBRANCH   1  16
TORSDOF 4
ENDMDL
MODEL 6
REMARK VINA RESULT:      -8.3      5.383      8.490
REMARK  Name = 
REMARK  6 active torsions:
REMARK  status: ('A' for Active; 'I' for Inactive)
REMARK    1  A    between atoms: C_1  and  C_2
REMARK    2  A    between atoms: C_6  and  C_7
REMARK    3  A    between atoms: N_9  and  C_10
REMARK    4  A    between atoms: C_10  and  C_11
REMARK    5  A    between atoms: C_10  and  C_12
REMARK    6  A    between atoms: N_14  and  C_15
REMARK                            x       y       z     vdW  Elec       q    Type
REMARK                         _______ _______ _______ _____ _____    ______ ____
ROOT
ATOM      1  C   UNL     1       6.553   5.641  18.291  0.00  0.00    +0.000 C 
ATOM      2  O   UNL     1       6.821   5.248  19.425  0.00  0.00    +0.000 OA
ATOM      3  N   UNL     1       5.394   5.339  17.579  0.00  0.00    +0.000 N 
ATOM      4  H   UNL     1       5.366   5.645  16.612  0.00  0.00    +0.000 HD
ENDROOT
BRANCH   3   5
ATOM      5  C   UNL     1       4.333   4.523  18.030  0.00  0.00    +0.000 A 
ATOM      6  C   UNL     1       4.091   3.225  17.522  0.00  0.00    +0.000 A 
ATOM      7  C   UNL     1       2.992   2.458  17.929  0.00  0.00    +0.000 A 
ATOM      8  C   UNL     1       2.129   3.004  18.857  0.00  0.00    +0.000 A 
ATOM      9  C   UNL     1       2.391   4.266  19.385  0.00  0.00    +0.000 A 
ATOM     10  C   UNL     1       3.485   5.034  19.019  0.00  0.00    +0.000 A 
ATOM     11  C   UNL     1       1.296   4.589  20.312  0.00  0.00    +0.000 C 
ATOM     12  O   UNL     1       1.183   5.621  20.942  0.00  0.00    +0.000 OA
ATOM     13  N   UNL     1       0.435   3.514  20.303  0.00  0.00    +0.000 N 
ATOM     14  C   UNL     1       0.861   2.455  19.416  0.00  0.00    +0.000 C 
ATOM     15  H   UNL     1      -0.423   3.521  20.837  0.00  0.00    +0.000 HD
ENDBRANCH   3   5
BRANCH   1  16
ATOM     16  C   UNL     1       7.537   6.560  17.533  0.00  0.00    +0.000 C 
ATOM     17  C   UNL     1       7.268   8.022  17.880  0.00  0.00    +0.000 C 
BRANCH  16  20
ATOM     18  C   UNL     1       7.564   5.027  15.590  0.00  0.00    +0.000 C 
ATOM     19  O   UNL     1       7.860   4.067  16.296  0.00  0.00    +0.000 OA
ATOM     20  N   UNL     1       7.424   6.307  16.096  0.00  0.00    +0.000 N 
ATOM     21  H   UNL     1       6.885   6.972  15.564  0.00  0.00    +0.000 HD
BRANCH  18  27
ATOM     22  C   UNL     1       5.180   2.574  11.947  0.00  0.00    +0.000 C 
ATOM     23  C   UNL     1       6.184   3.611  12.354  0.00  0.00    +0.000 A 
ATOM     24  C   UNL     1       6.895   4.339  11.396  0.00  0.00    +0.000 A 
ATOM     25  C   UNL     1       7.824   5.300  11.788  0.00  0.00    +0.000 A 
ATOM     26  C   UNL     1       8.057   5.547  13.141  0.00  0.00    +0.000 A 
ATOM     27  C   UNL     1       7.355   4.832  14.121  0.00  0.00    +0.000 A 
ATOM     28  C   UNL     1       6.419   3.863  13.714  0.00  0.00    +0.000 A 
ENDBRANCH  18  27
ENDBRANCH  16  20
ENDBRANCH   1  16
TORSDOF 4
ENDMDL
MODEL 7
REMARK VINA RESULT:      -8.3      4.038      8.654
REMARK  Name = 
REMARK  6 active torsions:
REMARK  status: ('A' for Active; 'I' for Inactive)
REMARK    1  A    between atoms: C_1  and  C_2
REMARK    2  A    between atoms: C_6  and  C_7
REMARK    3  A    between atoms: N_9  and  C_10
REMARK    4  A    between atoms: C_10  and  C_11
REMARK    5  A    between atoms: C_10  and  C_12
REMARK    6  A    between atoms: N_14  and  C_15
REMARK                            x       y       z     vdW  Elec       q    Type
REMARK                         _______ _______ _______ _____ _____    ______ ____
ROOT
ATOM      1  C   UNL     1       3.504   5.076  18.052  0.00  0.00    +0.000 C 
ATOM      2  O   UNL     1       2.450   4.696  17.546  0.00  0.00    +0.000 OA
ATOM      3  N   UNL     1       3.722   6.324  18.633  0.00  0.00    +0.000 N 
ATOM      4  H   UNL     1       4.676   6.532  18.907  0.00  0.00    +0.000 HD
ENDROOT
BRANCH   3   5
ATOM      5  C   UNL     1       2.777   7.369  18.734  0.00  0.00    +0.000 A 
ATOM      6  C   UNL     1       2.453   8.220  17.652  0.00  0.00    +0.000 A 
ATOM      7  C   UNL     1       1.567   9.297  17.788  0.00  0.00    +0.000 A 
ATOM      8  C   UNL     1       1.002   9.516  19.028  0.00  0.00    +0.000 A 
ATOM      9  C   UNL     1       1.291   8.653  20.082  0.00  0.00    +0.000 A 
ATOM     10  C   UNL     1       2.143   7.566  19.966  0.00  0.00    +0.000 A 
ATOM     11  C   UNL     1       0.577   9.151  21.266  0.00  0.00    +0.000 C 
ATOM     12  O   UNL     1       0.611   8.657  22.375  0.00  0.00    +0.000 OA
ATOM     13  N   UNL     1      -0.108  10.280  20.872  0.00  0.00    +0.000 N 
ATOM     14  C   UNL     1       0.090  10.606  19.479  0.00  0.00    +0.000 C 
ATOM     15  H   UNL     1      -0.644  10.828  21.532  0.00  0.00    +0.000 HD
ENDBRANCH   3   5
BRANCH   1  16
ATOM     16  C   UNL     1       4.732   4.140  18.088  0.00  0.00    +0.000 C 
ATOM     17  C   UNL     1       5.808   4.717  19.003  0.00  0.00    +0.000 C 
BRANCH  16  20
ATOM     18  C   UNL     1       5.556   5.010  15.923  0.00  0.00    +0.000 C 
ATOM     19  O   UNL     1       5.390   6.174  16.277  0.00  0.00    +0.000 OA
ATOM     20  N   UNL     1       5.222   3.933  16.725  0.00  0.00    +0.000 N 
ATOM     21  H   UNL     1       5.658   3.045  16.534  0.00  0.00    +0.000 HD
BRANCH  18  27
ATOM     22  C   UNL     1       5.149   2.534  11.600  0.00  0.00    +0.000 C 
ATOM     23  C   UNL     1       5.914   3.490  12.467  0.00  0.00    +0.000 A 
ATOM     24  C   UNL     1       7.111   4.059  12.025  0.00  0.00    +0.000 A 
ATOM     25  C   UNL     1       7.812   4.947  12.839  0.00  0.00    +0.000 A 
ATOM     26  C   UNL     1       7.328   5.276  14.105  0.00  0.00    +0.000 A 
ATOM     27  C   UNL     1       6.127   4.720  14.570  0.00  0.00    +0.000 A 
ATOM     28  C   UNL     1       5.429   3.825  13.740  0.00  0.00    +0.000 A 
ENDBRANCH  18  27
ENDBRANCH  16  20
ENDBRANCH   1  16
TORSDOF 4
ENDMDL
MODEL 8
REMARK VINA RESULT:      -8.3      2.040      2.235
REMARK  Name = 
REMARK  6 active torsions:
REMARK  status: ('A' for Active; 'I' for Inactive)
REMARK    1  A    between atoms: C_1  and  C_2
REMARK    2  A    between atoms: C_6  and  C_7
REMARK    3  A    between atoms: N_9  and  C_10
REMARK    4  A    between atoms: C_10  and  C_11
REMARK    5  A    between atoms: C_10  and  C_12
REMARK    6  A    between atoms: N_14  and  C_15
REMARK                            x       y       z     vdW  Elec       q    Type
REMARK                         _______ _______ _______ _____ _____    ______ ____
ROOT
ATOM      1  C   UNL     1       1.515   8.444  19.964  0.00  0.00    +0.000 C 
ATOM      2  O   UNL     1       1.590   7.600  20.855  0.00  0.00    +0.000 OA
ATOM      3  N   UNL     1       1.991   8.295  18.662  0.00  0.00    +0.000 N 
ATOM      4  H   UNL     1       1.957   9.120  18.073  0.00  0.00    +0.000 HD
ENDROOT
BRANCH   3   5
ATOM      5  C   UNL     1       2.646   7.156  18.145  0.00  0.00    +0.000 A 
ATOM      6  C   UNL     1       2.080   5.860  18.179  0.00  0.00    +0.000 A 
ATOM      7  C   UNL     1       2.773   4.730  17.726  0.00  0.00    +0.000 A 
ATOM      8  C   UNL     1       4.050   4.909  17.234  0.00  0.00    +0.000 A 
ATOM      9  C   UNL     1       4.591   6.190  17.165  0.00  0.00    +0.000 A 
ATOM     10  C   UNL     1       3.916   7.327  17.581  0.00  0.00    +0.000 A 
ATOM     11  C   UNL     1       5.956   6.062  16.634  0.00  0.00    +0.000 C 
ATOM     12  O   UNL     1       6.736   6.976  16.455  0.00  0.00    +0.000 OA
ATOM     13  N   UNL     1       6.170   4.721  16.407  0.00  0.00    +0.000 N 
ATOM     14  C   UNL     1       5.034   3.898  16.753  0.00  0.00    +0.000 C 
ATOM     15  H   UNL     1       7.063   4.378  16.077  0.00  0.00    +0.000 HD
ENDBRANCH   3   5
BRANCH   1  16
ATOM     16  C   UNL     1       0.843   9.808  20.237  0.00  0.00    +0.000 C 
ATOM     17  C   UNL     1       0.604   9.988  21.733  0.00  0.00    +0.000 C 
BRANCH  16  20
ATOM     18  C   UNL     1      -0.866  11.117  19.015  0.00  0.00    +0.000 C 
ATOM     19  O   UNL     1      -0.314  12.179  19.293  0.00  0.00    +0.000 OA
ATOM     20  N   UNL     1      -0.399   9.896  19.468  0.00  0.00    +0.000 N 
ATOM     21  H   UNL     1      -0.679   9.066  18.970  0.00  0.00    +0.000 HD
BRANCH  18  27
ATOM     22  C   UNL     1      -2.978  10.019  14.621  0.00  0.00    +0.000 C 
ATOM     23  C   UNL     1      -3.108  10.586  16.004  0.00  0.00    +0.000 A 
ATOM     24  C   UNL     1      -4.325  11.104  16.456  0.00  0.00    +0.000 A 
ATOM     25  C   UNL     1      -4.433  11.626  17.744  0.00  0.00    +0.000 A 
ATOM     26  C   UNL     1      -3.329  11.638  18.596  0.00  0.00    +0.000 A 
ATOM     27  C   UNL     1      -2.098  11.121  18.166  0.00  0.00    +0.000 A 
ATOM     28  C   UNL     1      -2.000  10.597  16.864  0.00  0.00    +0.000 A 
ENDBRANCH  18  27
ENDBRANCH  16  20
ENDBRANCH   1  16
TORSDOF 4
ENDMDL
MODEL 9
REMARK VINA RESULT:      -8.3      3.126      8.270
REMARK  Name = 
REMARK  6 active torsions:
REMARK  status: ('A' for Active; 'I' for Inactive)
REMARK    1  A    between atoms: C_1  and  C_2
REMARK    2  A    between atoms: C_6  and  C_7
REMARK    3  A    between atoms: N_9  and  C_10
REMARK    4  A    between atoms: C_10  and  C_11
REMARK    5  A    between atoms: C_10  and  C_12
REMARK    6  A    between atoms: N_14  and  C_15
REMARK                            x       y       z     vdW  Elec       q    Type
REMARK                         _______ _______ _______ _____ _____    ______ ____
ROOT
ATOM      1  C   UNL     1       1.807   4.730  20.074  0.00  0.00    +0.000 C 
ATOM      2  O   UNL     1       0.674   4.718  20.553  0.00  0.00    +0.000 OA
ATOM      3  N   UNL     1       2.484   5.859  19.617  0.00  0.00    +0.000 N 
ATOM      4  H   UNL     1       3.367   5.695  19.146  0.00  0.00    +0.000 HD
ENDROOT
BRANCH   3   5
ATOM      5  C   UNL     1       1.986   7.181  19.616  0.00  0.00    +0.000 A 
ATOM      6  C   UNL     1       1.942   7.985  18.453  0.00  0.00    +0.000 A 
ATOM      7  C   UNL     1       1.511   9.318  18.483  0.00  0.00    +0.000 A 
ATOM      8  C   UNL     1       1.120   9.844  19.697  0.00  0.00    +0.000 A 
ATOM      9  C   UNL     1       1.126   9.039  20.833  0.00  0.00    +0.000 A 
ATOM     10  C   UNL     1       1.523   7.711  20.826  0.00  0.00    +0.000 A 
ATOM     11  C   UNL     1       0.695   9.873  21.965  0.00  0.00    +0.000 C 
ATOM     12  O   UNL     1       0.600   9.508  23.119  0.00  0.00    +0.000 OA
ATOM     13  N   UNL     1       0.447  11.131  21.460  0.00  0.00    +0.000 N 
ATOM     14  C   UNL     1       0.686  11.229  20.039  0.00  0.00    +0.000 C 
ATOM     15  H   UNL     1       0.176  11.896  22.063  0.00  0.00    +0.000 HD
ENDBRANCH   3   5
BRANCH   1  16
ATOM     16  C   UNL     1       2.611   3.417  19.945  0.00  0.00    +0.000 C 
ATOM     17  C   UNL     1       2.918   2.848  21.327  0.00  0.00    +0.000 C 
BRANCH  16  20
ATOM     18  C   UNL     1       3.787   3.751  17.793  0.00  0.00    +0.000 C 
ATOM     19  O   UNL     1       2.762   3.543  17.150  0.00  0.00    +0.000 OA
ATOM     20  N   UNL     1       3.829   3.671  19.174  0.00  0.00    +0.000 N 
ATOM     21  H   UNL     1       4.575   4.148  19.655  0.00  0.00    +0.000 HD
BRANCH  18  27
ATOM     22  C   UNL     1       6.274   3.968  13.464  0.00  0.00    +0.000 C 
ATOM     23  C   UNL     1       6.258   4.182  14.948  0.00  0.00    +0.000 A 
ATOM     24  C   UNL     1       7.386   4.662  15.617  0.00  0.00    +0.000 A 
ATOM     25  C   UNL     1       7.357   4.858  16.997  0.00  0.00    +0.000 A 
ATOM     26  C   UNL     1       6.202   4.576  17.726  0.00  0.00    +0.000 A 
ATOM     27  C   UNL     1       5.056   4.095  17.077  0.00  0.00    +0.000 A 
ATOM     28  C   UNL     1       5.097   3.901  15.684  0.00  0.00    +0.000 A 
ENDBRANCH  18  27
ENDBRANCH  16  20
ENDBRANCH   1  16
TORSDOF 4
ENDMDL
