MODEL 1
REMARK VINA RESULT:      -7.5      0.000      0.000
REMARK  Name = 
REMARK  4 active torsions:
REMARK  status: ('A' for Active; 'I' for Inactive)
REMARK    1  A    between atoms: C_2  and  C_3
REMARK    2  A    between atoms: C_4  and  N_5
REMARK    3  A    between atoms: N_11  and  C_12
REMARK    4  A    between atoms: N_20  and  C_21
REMARK                            x       y       z     vdW  Elec       q    Type
REMARK                         _______ _______ _______ _____ _____    ______ ____
ROOT
ATOM      1  C   UNL     1       1.082  10.105  20.143  0.00  0.00    +0.000 A 
ATOM      2  N   UNL     1       1.165  10.701  18.924  0.00  0.00    +0.000 NA
ATOM      3  C   UNL     1       1.608   9.997  17.868  0.00  0.00    +0.000 A 
ATOM      4  N   UNL     1       1.991   8.715  17.837  0.00  0.00    +0.000 NA
ATOM      5  C   UNL     1       1.877   8.120  19.042  0.00  0.00    +0.000 A 
ATOM      6  C   UNL     1       1.441   8.742  20.205  0.00  0.00    +0.000 A 
ATOM      7  C   UNL     1       1.439   7.714  21.161  0.00  0.00    +0.000 A 
ATOM      8  N   UNL     1       1.884   6.551  20.695  0.00  0.00    +0.000 NA
ATOM      9  N   UNL     1       2.139   6.787  19.372  0.00  0.00    +0.000 N 
ENDROOT
BRANCH   1  17
ATOM     10  C   UNL     1      -2.622  12.866  23.051  0.00  0.00    +0.000 A 
ATOM     11  C   UNL     1      -2.569  14.177  22.612  0.00  0.00    +0.000 A 
ATOM     12  S   UNL     1      -1.188  14.454  21.628  0.00  0.00    +0.000 S 
ATOM     13  C   UNL     1      -0.676  12.846  21.777  0.00  0.00    +0.000 A 
ATOM     14  C   UNL     1      -1.508  12.092  22.587  0.00  0.00    +0.000 A 
ATOM     15  C   UNL     1      -1.211  10.636  22.851  0.00  0.00    +0.000 C 
ATOM     16  C   UNL     1       0.264  10.306  22.517  0.00  0.00    +0.000 C 
ATOM     17  N   UNL     1       0.604  10.846  21.198  0.00  0.00    +0.000 N 
ATOM     18  C   UNL     1       0.557  12.312  21.084  0.00  0.00    +0.000 C 
BRANCH  11  19
ATOM     19  N   UNL     1      -3.423  15.194  22.856  0.00  0.00    +0.000 N 
ATOM     20  H   UNL     1      -4.122  15.498  22.183  0.00  0.00    +0.000 HD
ATOM     21  H   UNL     1      -3.183  15.893  23.554  0.00  0.00    +0.000 HD
ENDBRANCH  11  19
BRANCH  10  23
ATOM     22  N   UNL     1      -4.543  11.955  24.541  0.00  0.00    +0.000 NA
ATOM     23  C   UNL     1      -3.678  12.355  23.877  0.00  0.00    +0.000 C 
ENDBRANCH  10  23
ENDBRANCH   1  17
BRANCH   9  24
ATOM     24  C   UNL     1       2.574   5.707  18.542  0.00  0.00    +0.000 A 
ATOM     25  C   UNL     1       3.894   5.712  18.052  0.00  0.00    +0.000 A 
ATOM     26  C   UNL     1       4.371   4.651  17.280  0.00  0.00    +0.000 A 
ATOM     27  C   UNL     1       3.537   3.578  16.981  0.00  0.00    +0.000 A 
ATOM     28  C   UNL     1       2.223   3.572  17.444  0.00  0.00    +0.000 A 
ATOM     29  C   UNL     1       1.739   4.632  18.219  0.00  0.00    +0.000 A 
ENDBRANCH   9  24
TORSDOF 4
ENDMDL
MODEL 2
REMARK VINA RESULT:      -7.4      2.722      8.964
REMARK  Name = 
REMARK  4 active torsions:
REMARK  status: ('A' for Active; 'I' for Inactive)
REMARK    1  A    between atoms: C_2  and  C_3
REMARK    2  A    between atoms: C_4  and  N_5
REMARK    3  A    between atoms: N_11  and  C_12
REMARK    4  A    between atoms: N_20  and  C_21
REMARK                            x       y       z     vdW  Elec       q    Type
REMARK                         _______ _______ _______ _____ _____    ______ ____
ROOT
ATOM      1  C   UNL     1       0.790   9.319  19.864  0.00  0.00    +0.000 A 
ATOM      2  N   UNL     1       0.370   9.991  18.760  0.00  0.00    +0.000 NA
ATOM      3  C   UNL     1      -0.465  11.036  18.894  0.00  0.00    +0.000 A 
ATOM      4  N   UNL     1      -0.963  11.550  20.024  0.00  0.00    +0.000 NA
ATOM      5  C   UNL     1      -0.520  10.900  21.119  0.00  0.00    +0.000 A 
ATOM      6  C   UNL     1       0.336   9.805  21.108  0.00  0.00    +0.000 A 
ATOM      7  C   UNL     1       0.549   9.527  22.468  0.00  0.00    +0.000 A 
ATOM      8  N   UNL     1      -0.140  10.314  23.289  0.00  0.00    +0.000 NA
ATOM      9  N   UNL     1      -0.792  11.186  22.460  0.00  0.00    +0.000 N 
ENDROOT
BRANCH   1  17
ATOM     10  C   UNL     1       2.309   4.212  18.678  0.00  0.00    +0.000 A 
ATOM     11  C   UNL     1       2.227   3.493  19.858  0.00  0.00    +0.000 A 
ATOM     12  S   UNL     1       2.026   4.531  21.212  0.00  0.00    +0.000 S 
ATOM     13  C   UNL     1       2.037   5.916  20.238  0.00  0.00    +0.000 A 
ATOM     14  C   UNL     1       2.224   5.626  18.897  0.00  0.00    +0.000 A 
ATOM     15  C   UNL     1       2.273   6.731  17.871  0.00  0.00    +0.000 C 
ATOM     16  C   UNL     1       2.553   8.095  18.545  0.00  0.00    +0.000 C 
ATOM     17  N   UNL     1       1.661   8.269  19.695  0.00  0.00    +0.000 N 
ATOM     18  C   UNL     1       1.853   7.310  20.793  0.00  0.00    +0.000 C 
BRANCH  11  19
ATOM     19  N   UNL     1       2.285   2.157  20.050  0.00  0.00    +0.000 N 
ATOM     20  H   UNL     1       1.532   1.631  20.484  0.00  0.00    +0.000 HD
ATOM     21  H   UNL     1       3.191   1.696  20.082  0.00  0.00    +0.000 HD
ENDBRANCH  11  19
BRANCH  10  23
ATOM     22  N   UNL     1       2.577   3.085  16.355  0.00  0.00    +0.000 NA
ATOM     23  C   UNL     1       2.463   3.597  17.392  0.00  0.00    +0.000 C 
ENDBRANCH  10  23
ENDBRANCH   1  17
BRANCH   9  24
ATOM     24  C   UNL     1      -1.582  12.232  23.030  0.00  0.00    +0.000 A 
ATOM     25  C   UNL     1      -2.896  11.945  23.445  0.00  0.00    +0.000 A 
ATOM     26  C   UNL     1      -3.683  12.926  24.051  0.00  0.00    +0.000 A 
ATOM     27  C   UNL     1      -3.171  14.206  24.245  0.00  0.00    +0.000 A 
ATOM     28  C   UNL     1      -1.879  14.507  23.821  0.00  0.00    +0.000 A 
ATOM     29  C   UNL     1      -1.085  13.527  23.212  0.00  0.00    +0.000 A 
ENDBRANCH   9  24
TORSDOF 4
ENDMDL
MODEL 3
REMARK VINA RESULT:      -7.2      1.723      2.058
REMARK  Name = 
REMARK  4 active torsions:
REMARK  status: ('A' for Active; 'I' for Inactive)
REMARK    1  A    between atoms: C_2  and  C_3
REMARK    2  A    between atoms: C_4  and  N_5
REMARK    3  A    between atoms: N_11  and  C_12
REMARK    4  A    between atoms: N_20  and  C_21
REMARK                            x       y       z     vdW  Elec       q    Type
REMARK                         _______ _______ _______ _____ _____    ______ ____
ROOT
ATOM      1  C   UNL     1       0.615  10.552  19.664  0.00  0.00    +0.000 A 
ATOM      2  N   UNL     1       1.160  10.776  18.439  0.00  0.00    +0.000 NA
ATOM      3  C   UNL     1       1.918   9.827  17.863  0.00  0.00    +0.000 A 
ATOM      4  N   UNL     1       2.223   8.616  18.344  0.00  0.00    +0.000 NA
ATOM      5  C   UNL     1       1.655   8.386  19.545  0.00  0.00    +0.000 A 
ATOM      6  C   UNL     1       0.860   9.289  20.241  0.00  0.00    +0.000 A 
ATOM      7  C   UNL     1       0.464   8.580  21.387  0.00  0.00    +0.000 A 
ATOM      8  N   UNL     1       0.990   7.361  21.469  0.00  0.00    +0.000 NA
ATOM      9  N   UNL     1       1.715   7.222  20.318  0.00  0.00    +0.000 N 
ENDROOT
BRANCH   1  17
ATOM     10  C   UNL     1      -3.639  12.616  22.391  0.00  0.00    +0.000 A 
ATOM     11  C   UNL     1      -4.640  12.826  21.458  0.00  0.00    +0.000 A 
ATOM     12  S   UNL     1      -4.041  12.685  19.854  0.00  0.00    +0.000 S 
ATOM     13  C   UNL     1      -2.475  12.337  20.396  0.00  0.00    +0.000 A 
ATOM     14  C   UNL     1      -2.371  12.355  21.777  0.00  0.00    +0.000 A 
ATOM     15  C   UNL     1      -1.049  12.079  22.451  0.00  0.00    +0.000 C 
ATOM     16  C   UNL     1       0.123  12.252  21.456  0.00  0.00    +0.000 C 
ATOM     17  N   UNL     1      -0.174  11.534  20.214  0.00  0.00    +0.000 N 
ATOM     18  C   UNL     1      -1.330  12.036  19.456  0.00  0.00    +0.000 C 
BRANCH  11  19
ATOM     19  N   UNL     1      -5.945  13.112  21.655  0.00  0.00    +0.000 N 
ATOM     20  H   UNL     1      -6.683  12.750  21.058  0.00  0.00    +0.000 HD
ATOM     21  H   UNL     1      -6.200  13.946  22.178  0.00  0.00    +0.000 HD
ENDBRANCH  11  19
BRANCH  10  23
ATOM     22  N   UNL     1      -4.027  12.689  24.956  0.00  0.00    +0.000 NA
ATOM     23  C   UNL     1      -3.863  12.659  23.807  0.00  0.00    +0.000 C 
ENDBRANCH  10  23
ENDBRANCH   1  17
BRANCH   9  24
ATOM     24  C   UNL     1       2.366   5.979  20.049  0.00  0.00    +0.000 A 
ATOM     25  C   UNL     1       1.708   4.779  20.380  0.00  0.00    +0.000 A 
ATOM     26  C   UNL     1       2.290   3.543  20.089  0.00  0.00    +0.000 A 
ATOM     27  C   UNL     1       3.536   3.489  19.471  0.00  0.00    +0.000 A 
ATOM     28  C   UNL     1       4.205   4.670  19.156  0.00  0.00    +0.000 A 
ATOM     29  C   UNL     1       3.627   5.912  19.446  0.00  0.00    +0.000 A 
ENDBRANCH   9  24
TORSDOF 4
ENDMDL
MODEL 4
REMARK VINA RESULT:      -7.2      3.032      4.692
REMARK  Name = 
REMARK  4 active torsions:
REMARK  status: ('A' for Active; 'I' for Inactive)
REMARK    1  A    between atoms: C_2  and  C_3
REMARK    2  A    between atoms: C_4  and  N_5
REMARK    3  A    between atoms: N_11  and  C_12
REMARK    4  A    between atoms: N_20  and  C_21
REMARK                            x       y       z     vdW  Elec       q    Type
REMARK                         _______ _______ _______ _____ _____    ______ ____
ROOT
ATOM      1  C   UNL     1       1.275  10.343  19.650  0.00  0.00    +0.000 A 
ATOM      2  N   UNL     1       0.888  10.410  20.951  0.00  0.00    +0.000 NA
ATOM      3  C   UNL     1       0.890   9.297  21.705  0.00  0.00    +0.000 A 
ATOM      4  N   UNL     1       1.250   8.060  21.343  0.00  0.00    +0.000 NA
ATOM      5  C   UNL     1       1.663   8.004  20.060  0.00  0.00    +0.000 A 
ATOM      6  C   UNL     1       1.699   9.081  19.182  0.00  0.00    +0.000 A 
ATOM      7  C   UNL     1       2.249   8.544  18.007  0.00  0.00    +0.000 A 
ATOM      8  N   UNL     1       2.494   7.239  18.080  0.00  0.00    +0.000 NA
ATOM      9  N   UNL     1       2.152   6.897  19.361  0.00  0.00    +0.000 N 
ENDROOT
BRANCH   1  17
ATOM     10  C   UNL     1       1.957  15.678  18.717  0.00  0.00    +0.000 A 
ATOM     11  C   UNL     1       0.747  16.285  19.004  0.00  0.00    +0.000 A 
ATOM     12  S   UNL     1      -0.508  15.126  19.190  0.00  0.00    +0.000 S 
ATOM     13  C   UNL     1       0.551  13.835  18.905  0.00  0.00    +0.000 A 
ATOM     14  C   UNL     1       1.843  14.251  18.635  0.00  0.00    +0.000 A 
ATOM     15  C   UNL     1       2.930  13.245  18.344  0.00  0.00    +0.000 C 
ATOM     16  C   UNL     1       2.323  11.878  17.949  0.00  0.00    +0.000 C 
ATOM     17  N   UNL     1       1.284  11.503  18.913  0.00  0.00    +0.000 N 
ATOM     18  C   UNL     1       0.111  12.389  18.952  0.00  0.00    +0.000 C 
BRANCH  11  19
ATOM     19  N   UNL     1       0.462  17.598  19.141  0.00  0.00    +0.000 N 
ATOM     20  H   UNL     1       1.028  18.330  18.720  0.00  0.00    +0.000 HD
ATOM     21  H   UNL     1      -0.106  17.907  19.926  0.00  0.00    +0.000 HD
ENDBRANCH  11  19
BRANCH  10  23
ATOM     22  N   UNL     1       4.161  17.009  18.388  0.00  0.00    +0.000 NA
ATOM     23  C   UNL     1       3.177  16.407  18.528  0.00  0.00    +0.000 C 
ENDBRANCH  10  23
ENDBRANCH   1  17
BRANCH   9  24
ATOM     24  C   UNL     1       2.361   5.554  19.803  0.00  0.00    +0.000 A 
ATOM     25  C   UNL     1       1.336   4.903  20.514  0.00  0.00    +0.000 A 
ATOM     26  C   UNL     1       1.482   3.575  20.920  0.00  0.00    +0.000 A 
ATOM     27  C   UNL     1       2.654   2.883  20.629  0.00  0.00    +0.000 A 
ATOM     28  C   UNL     1       3.684   3.524  19.943  0.00  0.00    +0.000 A 
ATOM     29  C   UNL     1       3.543   4.855  19.533  0.00  0.00    +0.000 A 
ENDBRANCH   9  24
TORSDOF 4
ENDMDL
MODEL 5
REMARK VINA RESULT:      -7.2      2.378      3.760
REMARK  Name = 
REMARK  4 active torsions:
REMARK  status: ('A' for Active; 'I' for Inactive)
REMARK    1  A    between atoms: C_2  and  C_3
REMARK    2  A    between atoms: C_4  and  N_5
REMARK    3  A    between atoms: N_11  and  C_12
REMARK    4  A    between atoms: N_20  and  C_21
REMARK                            x       y       z     vdW  Elec       q    Type
REMARK                         _______ _______ _______ _____ _____    ______ ____
ROOT
ATOM      1  C   UNL     1      -1.097  11.046  22.134  0.00  0.00    +0.000 A 
ATOM      2  N   UNL     1      -0.577  10.534  23.281  0.00  0.00    +0.000 NA
ATOM      3  C   UNL     1       0.367   9.579  23.215  0.00  0.00    +0.000 A 
ATOM      4  N   UNL     1       0.910   9.034  22.121  0.00  0.00    +0.000 NA
ATOM      5  C   UNL     1       0.414   9.567  20.986  0.00  0.00    +0.000 A 
ATOM      6  C   UNL     1      -0.566  10.550  20.924  0.00  0.00    +0.000 A 
ATOM      7  C   UNL     1      -0.700  10.812  19.551  0.00  0.00    +0.000 A 
ATOM      8  N   UNL     1       0.065  10.041  18.784  0.00  0.00    +0.000 NA
ATOM      9  N   UNL     1       0.778   9.278  19.668  0.00  0.00    +0.000 N 
ENDROOT
BRANCH   1  17
ATOM     10  C   UNL     1      -6.120  13.166  22.419  0.00  0.00    +0.000 A 
ATOM     11  C   UNL     1      -6.521  13.402  21.115  0.00  0.00    +0.000 A 
ATOM     12  S   UNL     1      -5.206  13.262  20.019  0.00  0.00    +0.000 S 
ATOM     13  C   UNL     1      -4.121  12.881  21.262  0.00  0.00    +0.000 A 
ATOM     14  C   UNL     1      -4.717  12.886  22.512  0.00  0.00    +0.000 A 
ATOM     15  C   UNL     1      -3.909  12.580  23.750  0.00  0.00    +0.000 C 
ATOM     16  C   UNL     1      -2.395  12.740  23.472  0.00  0.00    +0.000 C 
ATOM     17  N   UNL     1      -2.044  12.038  22.235  0.00  0.00    +0.000 N 
ATOM     18  C   UNL     1      -2.664  12.566  21.011  0.00  0.00    +0.000 C 
BRANCH  11  19
ATOM     19  N   UNL     1      -7.748  13.711  20.643  0.00  0.00    +0.000 N 
ATOM     20  H   UNL     1      -8.210  13.169  19.917  0.00  0.00    +0.000 HD
ATOM     21  H   UNL     1      -8.098  14.660  20.744  0.00  0.00    +0.000 HD
ENDBRANCH  11  19
BRANCH  10  23
ATOM     22  N   UNL     1      -7.753  13.217  24.435  0.00  0.00    +0.000 NA
ATOM     23  C   UNL     1      -7.017  13.201  23.537  0.00  0.00    +0.000 C 
ENDBRANCH  10  23
ENDBRANCH   1  17
BRANCH   9  24
ATOM     24  C   UNL     1       1.764   8.372  19.169  0.00  0.00    +0.000 A 
ATOM     25  C   UNL     1       2.062   7.212  19.908  0.00  0.00    +0.000 A 
ATOM     26  C   UNL     1       2.983   6.278  19.430  0.00  0.00    +0.000 A 
ATOM     27  C   UNL     1       3.623   6.492  18.213  0.00  0.00    +0.000 A 
ATOM     28  C   UNL     1       3.351   7.646  17.481  0.00  0.00    +0.000 A 
ATOM     29  C   UNL     1       2.429   8.587  17.955  0.00  0.00    +0.000 A 
ENDBRANCH   9  24
TORSDOF 4
ENDMDL
MODEL 6
REMARK VINA RESULT:      -7.2      2.654      4.297
REMARK  Name = 
REMARK  4 active torsions:
REMARK  status: ('A' for Active; 'I' for Inactive)
REMARK    1  A    between atoms: C_2  and  C_3
REMARK    2  A    between atoms: C_4  and  N_5
REMARK    3  A    between atoms: N_11  and  C_12
REMARK    4  A    between atoms: N_20  and  C_21
REMARK                            x       y       z     vdW  Elec       q    Type
REMARK                         _______ _______ _______ _____ _____    ______ ____
ROOT
ATOM      1  C   UNL     1       0.870  10.437  20.164  0.00  0.00    +0.000 A 
ATOM      2  N   UNL     1       0.684   9.886  21.393  0.00  0.00    +0.000 NA
ATOM      3  C   UNL     1       1.004   8.597  21.601  0.00  0.00    +0.000 A 
ATOM      4  N   UNL     1       1.523   7.728  20.725  0.00  0.00    +0.000 NA
ATOM      5  C   UNL     1       1.736   8.287  19.517  0.00  0.00    +0.000 A 
ATOM      6  C   UNL     1       1.439   9.602  19.179  0.00  0.00    +0.000 A 
ATOM      7  C   UNL     1       1.889   9.723  17.854  0.00  0.00    +0.000 A 
ATOM      8  N   UNL     1       2.375   8.593  17.350  0.00  0.00    +0.000 NA
ATOM      9  N   UNL     1       2.304   7.698  18.383  0.00  0.00    +0.000 N 
ENDROOT
BRANCH   1  17
ATOM     10  C   UNL     1       1.826  15.784  19.626  0.00  0.00    +0.000 A 
ATOM     11  C   UNL     1       1.825  16.314  20.904  0.00  0.00    +0.000 A 
ATOM     12  S   UNL     1       1.209  15.191  22.048  0.00  0.00    +0.000 S 
ATOM     13  C   UNL     1       0.960  14.012  20.858  0.00  0.00    +0.000 A 
ATOM     14  C   UNL     1       1.300  14.451  19.590  0.00  0.00    +0.000 A 
ATOM     15  C   UNL     1       1.137  13.545  18.394  0.00  0.00    +0.000 C 
ATOM     16  C   UNL     1       0.176  12.377  18.715  0.00  0.00    +0.000 C 
ATOM     17  N   UNL     1       0.554  11.763  19.991  0.00  0.00    +0.000 N 
ATOM     18  C   UNL     1       0.428  12.632  21.171  0.00  0.00    +0.000 C 
BRANCH  11  19
ATOM     19  N   UNL     1       2.225  17.534  21.322  0.00  0.00    +0.000 N 
ATOM     20  H   UNL     1       2.439  17.739  22.295  0.00  0.00    +0.000 HD
ATOM     21  H   UNL     1       2.004  18.353  20.761  0.00  0.00    +0.000 HD
ENDBRANCH  11  19
BRANCH  10  23
ATOM     22  N   UNL     1       2.691  17.094  17.558  0.00  0.00    +0.000 NA
ATOM     23  C   UNL     1       2.303  16.500  18.478  0.00  0.00    +0.000 C 
ENDBRANCH  10  23
ENDBRANCH   1  17
BRANCH   9  24
ATOM     24  C   UNL     1       2.820   6.378  18.199  0.00  0.00    +0.000 A 
ATOM     25  C   UNL     1       1.918   5.311  18.029  0.00  0.00    +0.000 A 
ATOM     26  C   UNL     1       2.382   4.015  17.798  0.00  0.00    +0.000 A 
ATOM     27  C   UNL     1       3.751   3.766  17.740  0.00  0.00    +0.000 A 
ATOM     28  C   UNL     1       4.653   4.811  17.926  0.00  0.00    +0.000 A 
ATOM     29  C   UNL     1       4.194   6.113  18.158  0.00  0.00    +0.000 A 
ENDBRANCH   9  24
TORSDOF 4
ENDMDL
MODEL 7
REMARK VINA RESULT:      -7.1      1.643      2.607
REMARK  Name = 
REMARK  4 active torsions:
REMARK  status: ('A' for Active; 'I' for Inactive)
REMARK    1  A    between atoms: C_2  and  C_3
REMARK    2  A    between atoms: C_4  and  N_5
REMARK    3  A    between atoms: N_11  and  C_12
REMARK    4  A    between atoms: N_20  and  C_21
REMARK                            x       y       z     vdW  Elec       q    Type
REMARK                         _______ _______ _______ _____ _____    ______ ____
ROOT
ATOM      1  C   UNL     1       0.391  10.196  20.581  0.00  0.00    +0.000 A 
ATOM      2  N   UNL     1       0.434   9.478  21.734  0.00  0.00    +0.000 NA
ATOM      3  C   UNL     1       1.039   8.277  21.749  0.00  0.00    +0.000 A 
ATOM      4  N   UNL     1       1.651   7.654  20.736  0.00  0.00    +0.000 NA
ATOM      5  C   UNL     1       1.633   8.384  19.602  0.00  0.00    +0.000 A 
ATOM      6  C   UNL     1       1.035   9.630  19.461  0.00  0.00    +0.000 A 
ATOM      7  C   UNL     1       1.330  10.002  18.140  0.00  0.00    +0.000 A 
ATOM      8  N   UNL     1       1.999   9.074  17.461  0.00  0.00    +0.000 NA
ATOM      9  N   UNL     1       2.211   8.072  18.368  0.00  0.00    +0.000 N 
ENDROOT
BRANCH   1  17
ATOM     10  C   UNL     1      -3.098  14.031  22.292  0.00  0.00    +0.000 A 
ATOM     11  C   UNL     1      -4.254  13.870  21.549  0.00  0.00    +0.000 A 
ATOM     12  S   UNL     1      -4.004  12.809  20.221  0.00  0.00    +0.000 S 
ATOM     13  C   UNL     1      -2.382  12.559  20.639  0.00  0.00    +0.000 A 
ATOM     14  C   UNL     1      -1.997  13.288  21.752  0.00  0.00    +0.000 A 
ATOM     15  C   UNL     1      -0.583  13.206  22.273  0.00  0.00    +0.000 C 
ATOM     16  C   UNL     1       0.370  12.640  21.193  0.00  0.00    +0.000 C 
ATOM     17  N   UNL     1      -0.214  11.430  20.606  0.00  0.00    +0.000 N 
ATOM     18  C   UNL     1      -1.471  11.630  19.869  0.00  0.00    +0.000 C 
BRANCH  11  19
ATOM     19  N   UNL     1      -5.473  14.419  21.738  0.00  0.00    +0.000 N 
ATOM     20  H   UNL     1      -5.693  15.005  22.539  0.00  0.00    +0.000 HD
ATOM     21  H   UNL     1      -6.284  14.002  21.289  0.00  0.00    +0.000 HD
ENDBRANCH  11  19
BRANCH  10  23
ATOM     22  N   UNL     1      -2.971  15.500  24.428  0.00  0.00    +0.000 NA
ATOM     23  C   UNL     1      -3.025  14.850  23.467  0.00  0.00    +0.000 C 
ENDBRANCH  10  23
ENDBRANCH   1  17
BRANCH   9  24
ATOM     24  C   UNL     1       2.977   6.930  17.978  0.00  0.00    +0.000 A 
ATOM     25  C   UNL     1       2.408   5.649  18.111  0.00  0.00    +0.000 A 
ATOM     26  C   UNL     1       3.106   4.513  17.696  0.00  0.00    +0.000 A 
ATOM     27  C   UNL     1       4.380   4.639  17.150  0.00  0.00    +0.000 A 
ATOM     28  C   UNL     1       4.960   5.900  17.032  0.00  0.00    +0.000 A 
ATOM     29  C   UNL     1       4.267   7.043  17.446  0.00  0.00    +0.000 A 
ENDBRANCH   9  24
TORSDOF 4
ENDMDL
MODEL 8
REMARK VINA RESULT:      -7.1      3.110      8.921
REMARK  Name = 
REMARK  4 active torsions:
REMARK  status: ('A' for Active; 'I' for Inactive)
REMARK    1  A    between atoms: C_2  and  C_3
REMARK    2  A    between atoms: C_4  and  N_5
REMARK    3  A    between atoms: N_11  and  C_12
REMARK    4  A    between atoms: N_20  and  C_21
REMARK                            x       y       z     vdW  Elec       q    Type
REMARK                         _______ _______ _______ _____ _____    ______ ____
ROOT
ATOM      1  C   UNL     1       1.970   8.961  18.428  0.00  0.00    +0.000 A 
ATOM      2  N   UNL     1       2.203  10.057  17.659  0.00  0.00    +0.000 NA
ATOM      3  C   UNL     1       1.729  11.255  18.046  0.00  0.00    +0.000 A 
ATOM      4  N   UNL     1       1.029  11.543  19.149  0.00  0.00    +0.000 NA
ATOM      5  C   UNL     1       0.828  10.459  19.924  0.00  0.00    +0.000 A 
ATOM      6  C   UNL     1       1.260   9.171  19.629  0.00  0.00    +0.000 A 
ATOM      7  C   UNL     1       0.870   8.416  20.746  0.00  0.00    +0.000 A 
ATOM      8  N   UNL     1       0.198   9.116  21.655  0.00  0.00    +0.000 NA
ATOM      9  N   UNL     1       0.184  10.393  21.164  0.00  0.00    +0.000 N 
ENDROOT
BRANCH   1  17
ATOM     10  C   UNL     1       5.106   4.501  18.704  0.00  0.00    +0.000 A 
ATOM     11  C   UNL     1       6.305   4.825  18.093  0.00  0.00    +0.000 A 
ATOM     12  S   UNL     1       6.191   6.309  17.235  0.00  0.00    +0.000 S 
ATOM     13  C   UNL     1       4.571   6.521  17.682  0.00  0.00    +0.000 A 
ATOM     14  C   UNL     1       4.085   5.474  18.447  0.00  0.00    +0.000 A 
ATOM     15  C   UNL     1       2.656   5.476  18.933  0.00  0.00    +0.000 C 
ATOM     16  C   UNL     1       1.797   6.467  18.113  0.00  0.00    +0.000 C 
ATOM     17  N   UNL     1       2.488   7.756  18.016  0.00  0.00    +0.000 N 
ATOM     18  C   UNL     1       3.763   7.735  17.282  0.00  0.00    +0.000 C 
BRANCH  11  19
ATOM     19  N   UNL     1       7.473   4.149  18.095  0.00  0.00    +0.000 N 
ATOM     20  H   UNL     1       7.521   3.134  18.118  0.00  0.00    +0.000 HD
ATOM     21  H   UNL     1       8.320   4.615  18.412  0.00  0.00    +0.000 HD
ENDBRANCH  11  19
BRANCH  10  23
ATOM     22  N   UNL     1       4.790   2.367  20.147  0.00  0.00    +0.000 NA
ATOM     23  C   UNL     1       4.921   3.322  19.499  0.00  0.00    +0.000 C 
ENDBRANCH  10  23
ENDBRANCH   1  17
BRANCH   9  24
ATOM     24  C   UNL     1      -0.410  11.434  21.942  0.00  0.00    +0.000 A 
ATOM     25  C   UNL     1       0.040  12.756  21.771  0.00  0.00    +0.000 A 
ATOM     26  C   UNL     1      -0.549  13.807  22.477  0.00  0.00    +0.000 A 
ATOM     27  C   UNL     1      -1.588  13.551  23.367  0.00  0.00    +0.000 A 
ATOM     28  C   UNL     1      -2.029  12.243  23.560  0.00  0.00    +0.000 A 
ATOM     29  C   UNL     1      -1.442  11.186  22.855  0.00  0.00    +0.000 A 
ENDBRANCH   9  24
TORSDOF 4
ENDMDL
MODEL 9
REMARK VINA RESULT:      -7.0      1.996      3.400
REMARK  Name = 
REMARK  4 active torsions:
REMARK  status: ('A' for Active; 'I' for Inactive)
REMARK    1  A    between atoms: C_2  and  C_3
REMARK    2  A    between atoms: C_4  and  N_5
REMARK    3  A    between atoms: N_11  and  C_12
REMARK    4  A    between atoms: N_20  and  C_21
REMARK                            x       y       z     vdW  Elec       q    Type
REMARK                         _______ _______ _______ _____ _____    ______ ____
ROOT
ATOM      1  C   UNL     1      -0.452  11.273  21.778  0.00  0.00    +0.000 A 
ATOM      2  N   UNL     1      -0.282  10.603  22.949  0.00  0.00    +0.000 NA
ATOM      3  C   UNL     1       0.380   9.433  22.957  0.00  0.00    +0.000 A 
ATOM      4  N   UNL     1       0.940   8.799  21.920  0.00  0.00    +0.000 NA
ATOM      5  C   UNL     1       0.796   9.482  20.766  0.00  0.00    +0.000 A 
ATOM      6  C   UNL     1       0.128  10.693  20.630  0.00  0.00    +0.000 A 
ATOM      7  C   UNL     1       0.299  11.026  19.277  0.00  0.00    +0.000 A 
ATOM      8  N   UNL     1       0.957  10.104  18.579  0.00  0.00    +0.000 NA
ATOM      9  N   UNL     1       1.289   9.149  19.501  0.00  0.00    +0.000 N 
ENDROOT
BRANCH   1  17
ATOM     10  C   UNL     1      -3.383  15.325  23.967  0.00  0.00    +0.000 A 
ATOM     11  C   UNL     1      -4.714  15.000  23.766  0.00  0.00    +0.000 A 
ATOM     12  S   UNL     1      -4.881  13.696  22.661  0.00  0.00    +0.000 S 
ATOM     13  C   UNL     1      -3.205  13.559  22.463  0.00  0.00    +0.000 A 
ATOM     14  C   UNL     1      -2.501  14.503  23.191  0.00  0.00    +0.000 A 
ATOM     15  C   UNL     1      -0.994  14.549  23.135  0.00  0.00    +0.000 C 
ATOM     16  C   UNL     1      -0.465  13.789  21.896  0.00  0.00    +0.000 C 
ATOM     17  N   UNL     1      -1.113  12.478  21.808  0.00  0.00    +0.000 N 
ATOM     18  C   UNL     1      -2.567  12.506  21.586  0.00  0.00    +0.000 C 
BRANCH  11  19
ATOM     19  N   UNL     1      -5.819  15.559  24.305  0.00  0.00    +0.000 N 
ATOM     20  H   UNL     1      -6.637  15.015  24.568  0.00  0.00    +0.000 HD
ATOM     21  H   UNL     1      -6.003  16.547  24.154  0.00  0.00    +0.000 HD
ENDBRANCH  11  19
BRANCH  10  23
ATOM     22  N   UNL     1      -2.608  17.222  25.559  0.00  0.00    +0.000 NA
ATOM     23  C   UNL     1      -2.952  16.366  24.853  0.00  0.00    +0.000 C 
ENDBRANCH  10  23
ENDBRANCH   1  17
BRANCH   9  24
ATOM     24  C   UNL     1       2.077   8.029  19.092  0.00  0.00    +0.000 A 
ATOM     25  C   UNL     1       2.826   8.119  17.903  0.00  0.00    +0.000 A 
ATOM     26  C   UNL     1       3.646   7.065  17.496  0.00  0.00    +0.000 A 
ATOM     27  C   UNL     1       3.724   5.907  18.264  0.00  0.00    +0.000 A 
ATOM     28  C   UNL     1       2.973   5.799  19.433  0.00  0.00    +0.000 A 
ATOM     29  C   UNL     1       2.148   6.852  19.846  0.00  0.00    +0.000 A 
ENDBRANCH   9  24
TORSDOF 4
ENDMDL
