MODEL 1
REMARK VINA RESULT:      -9.3      0.000      0.000
REMARK  Name = 
REMARK  6 active torsions:
REMARK  status: ('A' for Active; 'I' for Inactive)
REMARK    1  A    between atoms: C_1  and  C_2
REMARK    2  A    between atoms: C_4  and  C_5
REMARK    3  A    between atoms: N_14  and  C_15
REMARK    4  A    between atoms: C_19  and  C_20
REMARK    5  A    between atoms: C_21  and  C_22
REMARK    6  A    between atoms: N_26  and  C_27
REMARK                            x       y       z     vdW  Elec       q    Type
REMARK                         _______ _______ _______ _____ _____    ______ ____
ROOT
ATOM      1  C   UNL     1       0.064  13.319  19.281  0.00  0.00    +0.000 C 
ATOM      2  C   UNL     1       0.322  11.917  19.755  0.00  0.00    +0.000 A 
ATOM      3  C   UNL     1      -0.066  11.499  21.033  0.00  0.00    +0.000 A 
ATOM      4  C   UNL     1       0.183  10.176  21.460  0.00  0.00    +0.000 A 
ATOM      5  C   UNL     1       0.817   9.319  20.559  0.00  0.00    +0.000 A 
ATOM      6  C   UNL     1       1.160   9.837  19.328  0.00  0.00    +0.000 A 
ATOM      7  N   UNL     1       0.943  11.091  18.888  0.00  0.00    +0.000 NA
ATOM      8  C   UNL     1       1.859   8.802  18.551  0.00  0.00    +0.000 C 
ATOM      9  O   UNL     1       2.257   8.984  17.414  0.00  0.00    +0.000 OA
ATOM     10  N   UNL     1       1.937   7.655  19.365  0.00  0.00    +0.000 N 
ATOM     11  C   UNL     1       1.241   7.880  20.633  0.00  0.00    +0.000 C 
ENDROOT
BRANCH  10  12
ATOM     12  C   UNL     1       2.648   6.457  19.025  0.00  0.00    +0.000 A 
ATOM     13  C   UNL     1       2.359   5.256  19.692  0.00  0.00    +0.000 A 
ATOM     14  C   UNL     1       3.014   4.063  19.385  0.00  0.00    +0.000 A 
ATOM     15  C   UNL     1       4.009   4.035  18.412  0.00  0.00    +0.000 A 
ATOM     16  C   UNL     1       4.355   5.205  17.735  0.00  0.00    +0.000 A 
ATOM     17  C   UNL     1       3.653   6.406  18.034  0.00  0.00    +0.000 A 
BRANCH  16  18
ATOM     18  C   UNL     1       5.428   5.178  16.763  0.00  0.00    +0.000 C 
ATOM     19  C   UNL     1       5.729   5.111  15.477  0.00  0.00    +0.000 C 
ATOM     20  C   UNL     1       6.785   5.176  16.782  0.00  0.00    +0.000 C 
BRANCH  19  21
ATOM     21  C   UNL     1       6.677   5.068  14.421  0.00  0.00    +0.000 A 
ATOM     22  N   UNL     1       7.846   5.694  14.291  0.00  0.00    +0.000 NA
ATOM     23  N   UNL     1       8.429   5.341  13.103  0.00  0.00    +0.000 NA
ATOM     24  C   UNL     1       7.616   4.507  12.507  0.00  0.00    +0.000 A 
ATOM     25  N   UNL     1       6.503   4.314  13.278  0.00  0.00    +0.000 N 
ATOM     26  C   UNL     1       5.411   3.462  12.884  0.00  0.00    +0.000 C 
ENDBRANCH  19  21
ENDBRANCH  16  18
ENDBRANCH  10  12
BRANCH   4  27
ATOM     27  C   UNL     1      -0.218   9.740  22.840  0.00  0.00    +0.000 C 
ATOM     28  F   UNL     1      -0.921  10.684  23.523  0.00  0.00    +0.000 F 
ATOM     29  F   UNL     1      -0.998   8.626  22.824  0.00  0.00    +0.000 F 
ATOM     30  F   UNL     1       0.857   9.437  23.617  0.00  0.00    +0.000 F 
ENDBRANCH   4  27
TORSDOF 4
ENDMDL
MODEL 2
REMARK VINA RESULT:      -8.8      3.838      8.947
REMARK  Name = 
REMARK  6 active torsions:
REMARK  status: ('A' for Active; 'I' for Inactive)
REMARK    1  A    between atoms: C_1  and  C_2
REMARK    2  A    between atoms: C_4  and  C_5
REMARK    3  A    between atoms: N_14  and  C_15
REMARK    4  A    between atoms: C_19  and  C_20
REMARK    5  A    between atoms: C_21  and  C_22
REMARK    6  A    between atoms: N_26  and  C_27
REMARK                            x       y       z     vdW  Elec       q    Type
REMARK                         _______ _______ _______ _____ _____    ______ ____
ROOT
ATOM      1  C   UNL     1       5.776   4.332  15.252  0.00  0.00    +0.000 C 
ATOM      2  C   UNL     1       4.893   4.552  16.446  0.00  0.00    +0.000 A 
ATOM      3  C   UNL     1       4.468   3.482  17.243  0.00  0.00    +0.000 A 
ATOM      4  C   UNL     1       3.640   3.710  18.365  0.00  0.00    +0.000 A 
ATOM      5  C   UNL     1       3.278   5.029  18.638  0.00  0.00    +0.000 A 
ATOM      6  C   UNL     1       3.748   6.004  17.785  0.00  0.00    +0.000 A 
ATOM      7  N   UNL     1       4.535   5.826  16.706  0.00  0.00    +0.000 NA
ATOM      8  C   UNL     1       3.217   7.309  18.208  0.00  0.00    +0.000 C 
ATOM      9  O   UNL     1       3.492   8.352  17.640  0.00  0.00    +0.000 OA
ATOM     10  N   UNL     1       2.400   7.078  19.332  0.00  0.00    +0.000 N 
ATOM     11  C   UNL     1       2.437   5.664  19.710  0.00  0.00    +0.000 C 
ENDROOT
BRANCH  10  12
ATOM     12  C   UNL     1       1.599   8.075  19.981  0.00  0.00    +0.000 A 
ATOM     13  C   UNL     1       1.743   8.307  21.357  0.00  0.00    +0.000 A 
ATOM     14  C   UNL     1       0.997   9.275  22.027  0.00  0.00    +0.000 A 
ATOM     15  C   UNL     1       0.050  10.034  21.345  0.00  0.00    +0.000 A 
ATOM     16  C   UNL     1      -0.154   9.829  19.980  0.00  0.00    +0.000 A 
ATOM     17  C   UNL     1       0.641   8.862  19.303  0.00  0.00    +0.000 A 
BRANCH  16  18
ATOM     18  C   UNL     1      -1.178  10.584  19.288  0.00  0.00    +0.000 C 
ATOM     19  C   UNL     1      -2.350  10.523  18.680  0.00  0.00    +0.000 C 
ATOM     20  C   UNL     1      -1.363  11.866  18.884  0.00  0.00    +0.000 C 
BRANCH  19  21
ATOM     21  C   UNL     1      -3.423  11.135  17.981  0.00  0.00    +0.000 A 
ATOM     22  N   UNL     1      -4.466  11.826  18.442  0.00  0.00    +0.000 NA
ATOM     23  N   UNL     1      -5.246  12.238  17.395  0.00  0.00    +0.000 NA
ATOM     24  C   UNL     1      -4.685  11.796  16.298  0.00  0.00    +0.000 A 
ATOM     25  N   UNL     1      -3.556  11.090  16.607  0.00  0.00    +0.000 N 
ATOM     26  C   UNL     1      -2.726  10.458  15.614  0.00  0.00    +0.000 C 
ENDBRANCH  19  21
ENDBRANCH  16  18
ENDBRANCH  10  12
BRANCH   4  27
ATOM     27  C   UNL     1       3.171   2.556  19.204  0.00  0.00    +0.000 C 
ATOM     28  F   UNL     1       1.837   2.589  19.473  0.00  0.00    +0.000 F 
ATOM     29  F   UNL     1       3.407   1.356  18.610  0.00  0.00    +0.000 F 
ATOM     30  F   UNL     1       3.796   2.510  20.411  0.00  0.00    +0.000 F 
ENDBRANCH   4  27
TORSDOF 4
ENDMDL
MODEL 3
REMARK VINA RESULT:      -8.6      3.524     10.031
REMARK  Name = 
REMARK  6 active torsions:
REMARK  status: ('A' for Active; 'I' for Inactive)
REMARK    1  A    between atoms: C_1  and  C_2
REMARK    2  A    between atoms: C_4  and  C_5
REMARK    3  A    between atoms: N_14  and  C_15
REMARK    4  A    between atoms: C_19  and  C_20
REMARK    5  A    between atoms: C_21  and  C_22
REMARK    6  A    between atoms: N_26  and  C_27
REMARK                            x       y       z     vdW  Elec       q    Type
REMARK                         _______ _______ _______ _____ _____    ______ ____
ROOT
ATOM      1  C   UNL     1       4.586   3.290  16.664  0.00  0.00    +0.000 C 
ATOM      2  C   UNL     1       3.826   4.121  17.657  0.00  0.00    +0.000 A 
ATOM      3  C   UNL     1       3.302   3.558  18.826  0.00  0.00    +0.000 A 
ATOM      4  C   UNL     1       2.593   4.357  19.751  0.00  0.00    +0.000 A 
ATOM      5  C   UNL     1       2.449   5.712  19.450  0.00  0.00    +0.000 A 
ATOM      6  C   UNL     1       3.001   6.160  18.269  0.00  0.00    +0.000 A 
ATOM      7  N   UNL     1       3.680   5.429  17.363  0.00  0.00    +0.000 NA
ATOM      8  C   UNL     1       2.699   7.592  18.110  0.00  0.00    +0.000 C 
ATOM      9  O   UNL     1       3.086   8.249  17.160  0.00  0.00    +0.000 OA
ATOM     10  N   UNL     1       1.933   7.978  19.228  0.00  0.00    +0.000 N 
ATOM     11  C   UNL     1       1.785   6.858  20.159  0.00  0.00    +0.000 C 
ENDROOT
BRANCH  10  12
ATOM     12  C   UNL     1       1.333   9.269  19.402  0.00  0.00    +0.000 A 
ATOM     13  C   UNL     1       1.587  10.292  18.475  0.00  0.00    +0.000 A 
ATOM     14  C   UNL     1       1.015  11.558  18.595  0.00  0.00    +0.000 A 
ATOM     15  C   UNL     1       0.184  11.858  19.670  0.00  0.00    +0.000 A 
ATOM     16  C   UNL     1      -0.083  10.887  20.636  0.00  0.00    +0.000 A 
ATOM     17  C   UNL     1       0.479   9.589  20.480  0.00  0.00    +0.000 A 
BRANCH  16  18
ATOM     18  C   UNL     1      -0.906  11.223  21.780  0.00  0.00    +0.000 C 
ATOM     19  C   UNL     1      -1.821  12.049  22.256  0.00  0.00    +0.000 C 
ATOM     20  C   UNL     1      -1.072  10.773  23.049  0.00  0.00    +0.000 C 
BRANCH  19  21
ATOM     21  C   UNL     1      -2.675  12.493  23.300  0.00  0.00    +0.000 A 
ATOM     22  N   UNL     1      -3.726  11.896  23.862  0.00  0.00    +0.000 NA
ATOM     23  N   UNL     1      -4.241  12.699  24.845  0.00  0.00    +0.000 NA
ATOM     24  C   UNL     1      -3.512  13.784  24.879  0.00  0.00    +0.000 A 
ATOM     25  N   UNL     1      -2.533  13.715  23.926  0.00  0.00    +0.000 N 
ATOM     26  C   UNL     1      -1.578  14.770  23.700  0.00  0.00    +0.000 C 
ENDBRANCH  19  21
ENDBRANCH  16  18
ENDBRANCH  10  12
BRANCH   4  27
ATOM     27  C   UNL     1       2.015   3.743  20.993  0.00  0.00    +0.000 C 
ATOM     28  F   UNL     1       0.654   3.750  21.018  0.00  0.00    +0.000 F 
ATOM     29  F   UNL     1       2.389   2.445  21.149  0.00  0.00    +0.000 F 
ATOM     30  F   UNL     1       2.414   4.390  22.121  0.00  0.00    +0.000 F 
ENDBRANCH   4  27
TORSDOF 4
ENDMDL
MODEL 4
REMARK VINA RESULT:      -8.5      4.375     10.306
REMARK  Name = 
REMARK  6 active torsions:
REMARK  status: ('A' for Active; 'I' for Inactive)
REMARK    1  A    between atoms: C_1  and  C_2
REMARK    2  A    between atoms: C_4  and  C_5
REMARK    3  A    between atoms: N_14  and  C_15
REMARK    4  A    between atoms: C_19  and  C_20
REMARK    5  A    between atoms: C_21  and  C_22
REMARK    6  A    between atoms: N_26  and  C_27
REMARK                            x       y       z     vdW  Elec       q    Type
REMARK                         _______ _______ _______ _____ _____    ______ ____
ROOT
ATOM      1  C   UNL     1       4.210   2.300  20.101  0.00  0.00    +0.000 C 
ATOM      2  C   UNL     1       4.070   3.641  19.439  0.00  0.00    +0.000 A 
ATOM      3  C   UNL     1       4.854   3.991  18.334  0.00  0.00    +0.000 A 
ATOM      4  C   UNL     1       4.706   5.257  17.723  0.00  0.00    +0.000 A 
ATOM      5  C   UNL     1       3.753   6.122  18.261  0.00  0.00    +0.000 A 
ATOM      6  C   UNL     1       3.040   5.676  19.354  0.00  0.00    +0.000 A 
ATOM      7  N   UNL     1       3.155   4.481  19.964  0.00  0.00    +0.000 NA
ATOM      8  C   UNL     1       2.132   6.744  19.801  0.00  0.00    +0.000 C 
ATOM      9  O   UNL     1       1.366   6.611  20.740  0.00  0.00    +0.000 OA
ATOM     10  N   UNL     1       2.339   7.847  18.950  0.00  0.00    +0.000 N 
ATOM     11  C   UNL     1       3.307   7.511  17.904  0.00  0.00    +0.000 C 
ENDROOT
BRANCH  10  12
ATOM     12  C   UNL     1       1.733   9.136  19.118  0.00  0.00    +0.000 A 
ATOM     13  C   UNL     1       1.991  10.159  18.193  0.00  0.00    +0.000 A 
ATOM     14  C   UNL     1       1.413  11.424  18.308  0.00  0.00    +0.000 A 
ATOM     15  C   UNL     1       0.572  11.721  19.377  0.00  0.00    +0.000 A 
ATOM     16  C   UNL     1       0.301  10.749  20.340  0.00  0.00    +0.000 A 
ATOM     17  C   UNL     1       0.869   9.453  20.190  0.00  0.00    +0.000 A 
BRANCH  16  18
ATOM     18  C   UNL     1      -0.531  11.082  21.478  0.00  0.00    +0.000 C 
ATOM     19  C   UNL     1      -1.467  11.894  21.940  0.00  0.00    +0.000 C 
ATOM     20  C   UNL     1      -0.689  10.648  22.753  0.00  0.00    +0.000 C 
BRANCH  19  21
ATOM     21  C   UNL     1      -2.334  12.333  22.975  0.00  0.00    +0.000 A 
ATOM     22  N   UNL     1      -3.408  11.746  23.503  0.00  0.00    +0.000 NA
ATOM     23  N   UNL     1      -3.927  12.538  24.492  0.00  0.00    +0.000 NA
ATOM     24  C   UNL     1      -3.177  13.607  24.565  0.00  0.00    +0.000 A 
ATOM     25  N   UNL     1      -2.179  13.538  23.632  0.00  0.00    +0.000 N 
ATOM     26  C   UNL     1      -1.199  14.577  23.449  0.00  0.00    +0.000 C 
ENDBRANCH  19  21
ENDBRANCH  16  18
ENDBRANCH  10  12
BRANCH   4  27
ATOM     27  C   UNL     1       5.565   5.634  16.550  0.00  0.00    +0.000 C 
ATOM     28  F   UNL     1       6.362   6.711  16.787  0.00  0.00    +0.000 F 
ATOM     29  F   UNL     1       6.395   4.626  16.172  0.00  0.00    +0.000 F 
ATOM     30  F   UNL     1       4.826   5.948  15.452  0.00  0.00    +0.000 F 
ENDBRANCH   4  27
TORSDOF 4
ENDMDL
MODEL 5
REMARK VINA RESULT:      -8.5      3.261      8.736
REMARK  Name = 
REMARK  6 active torsions:
REMARK  status: ('A' for Active; 'I' for Inactive)
REMARK    1  A    between atoms: C_1  and  C_2
REMARK    2  A    between atoms: C_4  and  C_5
REMARK    3  A    between atoms: N_14  and  C_15
REMARK    4  A    between atoms: C_19  and  C_20
REMARK    5  A    between atoms: C_21  and  C_22
REMARK    6  A    between atoms: N_26  and  C_27
REMARK                            x       y       z     vdW  Elec       q    Type
REMARK                         _______ _______ _______ _____ _____    ______ ____
ROOT
ATOM      1  C   UNL     1       4.527   4.071  16.469  0.00  0.00    +0.000 C 
ATOM      2  C   UNL     1       3.735   4.628  17.617  0.00  0.00    +0.000 A 
ATOM      3  C   UNL     1       3.276   3.805  18.652  0.00  0.00    +0.000 A 
ATOM      4  C   UNL     1       2.536   4.348  19.725  0.00  0.00    +0.000 A 
ATOM      5  C   UNL     1       2.294   5.723  19.708  0.00  0.00    +0.000 A 
ATOM      6  C   UNL     1       2.788   6.438  18.637  0.00  0.00    +0.000 A 
ATOM      7  N   UNL     1       3.494   5.955  17.596  0.00  0.00    +0.000 NA
ATOM      8  C   UNL     1       2.386   7.847  18.776  0.00  0.00    +0.000 C 
ATOM      9  O   UNL     1       2.707   8.708  17.976  0.00  0.00    +0.000 OA
ATOM     10  N   UNL     1       1.622   7.944  19.955  0.00  0.00    +0.000 N 
ATOM     11  C   UNL     1       1.571   6.651  20.640  0.00  0.00    +0.000 C 
ENDROOT
BRANCH  10  12
ATOM     12  C   UNL     1       0.940   9.128  20.392  0.00  0.00    +0.000 A 
ATOM     13  C   UNL     1       0.094   9.078  21.511  0.00  0.00    +0.000 A 
ATOM     14  C   UNL     1      -0.578  10.206  21.981  0.00  0.00    +0.000 A 
ATOM     15  C   UNL     1      -0.449  11.428  21.328  0.00  0.00    +0.000 A 
ATOM     16  C   UNL     1       0.359  11.530  20.195  0.00  0.00    +0.000 A 
ATOM     17  C   UNL     1       1.067  10.379  19.749  0.00  0.00    +0.000 A 
BRANCH  16  18
ATOM     18  C   UNL     1       0.447  12.792  19.489  0.00  0.00    +0.000 C 
ATOM     19  C   UNL     1       0.962  14.010  19.498  0.00  0.00    +0.000 C 
ATOM     20  C   UNL     1      -0.081  13.339  18.366  0.00  0.00    +0.000 C 
BRANCH  19  21
ATOM     21  C   UNL     1       1.128  15.295  18.919  0.00  0.00    +0.000 A 
ATOM     22  N   UNL     1       0.267  16.306  18.811  0.00  0.00    +0.000 NA
ATOM     23  N   UNL     1       0.872  17.362  18.183  0.00  0.00    +0.000 NA
ATOM     24  C   UNL     1       2.096  16.995  17.903  0.00  0.00    +0.000 A 
ATOM     25  N   UNL     1       2.303  15.712  18.325  0.00  0.00    +0.000 N 
ATOM     26  C   UNL     1       3.550  15.014  18.142  0.00  0.00    +0.000 C 
ENDBRANCH  19  21
ENDBRANCH  16  18
ENDBRANCH  10  12
BRANCH   4  27
ATOM     27  C   UNL     1       2.029   3.456  20.822  0.00  0.00    +0.000 C 
ATOM     28  F   UNL     1       0.671   3.407  20.895  0.00  0.00    +0.000 F 
ATOM     29  F   UNL     1       2.446   2.171  20.676  0.00  0.00    +0.000 F 
ATOM     30  F   UNL     1       2.457   3.856  22.050  0.00  0.00    +0.000 F 
ENDBRANCH   4  27
TORSDOF 4
ENDMDL
MODEL 6
REMARK VINA RESULT:      -8.4      4.739      9.545
REMARK  Name = 
REMARK  6 active torsions:
REMARK  status: ('A' for Active; 'I' for Inactive)
REMARK    1  A    between atoms: C_1  and  C_2
REMARK    2  A    between atoms: C_4  and  C_5
REMARK    3  A    between atoms: N_14  and  C_15
REMARK    4  A    between atoms: C_19  and  C_20
REMARK    5  A    between atoms: C_21  and  C_22
REMARK    6  A    between atoms: N_26  and  C_27
REMARK                            x       y       z     vdW  Elec       q    Type
REMARK                         _______ _______ _______ _____ _____    ______ ____
ROOT
ATOM      1  C   UNL     1       9.227   6.118  12.611  0.00  0.00    +0.000 C 
ATOM      2  C   UNL     1       8.033   5.398  13.169  0.00  0.00    +0.000 A 
ATOM      3  C   UNL     1       7.186   4.648  12.345  0.00  0.00    +0.000 A 
ATOM      4  C   UNL     1       6.069   3.975  12.889  0.00  0.00    +0.000 A 
ATOM      5  C   UNL     1       5.859   4.087  14.264  0.00  0.00    +0.000 A 
ATOM      6  C   UNL     1       6.753   4.855  14.980  0.00  0.00    +0.000 A 
ATOM      7  N   UNL     1       7.824   5.513  14.497  0.00  0.00    +0.000 NA
ATOM      8  C   UNL     1       6.332   4.891  16.390  0.00  0.00    +0.000 C 
ATOM      9  O   UNL     1       6.957   5.484  17.251  0.00  0.00    +0.000 OA
ATOM     10  N   UNL     1       5.149   4.133  16.487  0.00  0.00    +0.000 N 
ATOM     11  C   UNL     1       4.817   3.534  15.193  0.00  0.00    +0.000 C 
ENDROOT
BRANCH  10  12
ATOM     12  C   UNL     1       4.350   4.013  17.672  0.00  0.00    +0.000 A 
ATOM     13  C   UNL     1       4.170   2.758  18.274  0.00  0.00    +0.000 A 
ATOM     14  C   UNL     1       3.415   2.595  19.435  0.00  0.00    +0.000 A 
ATOM     15  C   UNL     1       2.782   3.686  20.024  0.00  0.00    +0.000 A 
ATOM     16  C   UNL     1       2.905   4.953  19.454  0.00  0.00    +0.000 A 
ATOM     17  C   UNL     1       3.709   5.110  18.290  0.00  0.00    +0.000 A 
BRANCH  16  18
ATOM     18  C   UNL     1       2.200   6.074  20.042  0.00  0.00    +0.000 C 
ATOM     19  C   UNL     1       2.129   7.391  20.124  0.00  0.00    +0.000 C 
ATOM     20  C   UNL     1       1.182   6.256  20.919  0.00  0.00    +0.000 C 
BRANCH  19  21
ATOM     21  C   UNL     1       1.536   8.576  20.633  0.00  0.00    +0.000 A 
ATOM     22  N   UNL     1       1.369   8.980  21.892  0.00  0.00    +0.000 NA
ATOM     23  N   UNL     1       0.753  10.203  21.907  0.00  0.00    +0.000 NA
ATOM     24  C   UNL     1       0.539  10.542  20.661  0.00  0.00    +0.000 A 
ATOM     25  N   UNL     1       0.993   9.558  19.828  0.00  0.00    +0.000 N 
ATOM     26  C   UNL     1       0.883   9.627  18.394  0.00  0.00    +0.000 C 
ENDBRANCH  19  21
ENDBRANCH  16  18
ENDBRANCH  10  12
BRANCH   4  27
ATOM     27  C   UNL     1       5.153   3.188  11.996  0.00  0.00    +0.000 C 
ATOM     28  F   UNL     1       3.869   3.139  12.447  0.00  0.00    +0.000 F 
ATOM     29  F   UNL     1       5.092   3.700  10.739  0.00  0.00    +0.000 F 
ATOM     30  F   UNL     1       5.552   1.895  11.860  0.00  0.00    +0.000 F 
ENDBRANCH   4  27
TORSDOF 4
ENDMDL
MODEL 7
REMARK VINA RESULT:      -8.4      3.670      9.320
REMARK  Name = 
REMARK  6 active torsions:
REMARK  status: ('A' for Active; 'I' for Inactive)
REMARK    1  A    between atoms: C_1  and  C_2
REMARK    2  A    between atoms: C_4  and  C_5
REMARK    3  A    between atoms: N_14  and  C_15
REMARK    4  A    between atoms: C_19  and  C_20
REMARK    5  A    between atoms: C_21  and  C_22
REMARK    6  A    between atoms: N_26  and  C_27
REMARK                            x       y       z     vdW  Elec       q    Type
REMARK                         _______ _______ _______ _____ _____    ______ ____
ROOT
ATOM      1  C   UNL     1       4.964   3.782  16.276  0.00  0.00    +0.000 C 
ATOM      2  C   UNL     1       4.081   4.237  17.402  0.00  0.00    +0.000 A 
ATOM      3  C   UNL     1       3.517   3.322  18.299  0.00  0.00    +0.000 A 
ATOM      4  C   UNL     1       2.691   3.770  19.354  0.00  0.00    +0.000 A 
ATOM      5  C   UNL     1       2.475   5.145  19.461  0.00  0.00    +0.000 A 
ATOM      6  C   UNL     1       3.076   5.955  18.521  0.00  0.00    +0.000 A 
ATOM      7  N   UNL     1       3.865   5.565  17.501  0.00  0.00    +0.000 NA
ATOM      8  C   UNL     1       2.686   7.351  18.772  0.00  0.00    +0.000 C 
ATOM      9  O   UNL     1       3.093   8.282  18.100  0.00  0.00    +0.000 OA
ATOM     10  N   UNL     1       1.820   7.345  19.883  0.00  0.00    +0.000 N 
ATOM     11  C   UNL     1       1.686   5.990  20.420  0.00  0.00    +0.000 C 
ENDROOT
BRANCH  10  12
ATOM     12  C   UNL     1       1.121   8.494  20.382  0.00  0.00    +0.000 A 
ATOM     13  C   UNL     1       1.367   8.955  21.684  0.00  0.00    +0.000 A 
ATOM     14  C   UNL     1       0.723  10.076  22.207  0.00  0.00    +0.000 A 
ATOM     15  C   UNL     1      -0.220  10.765  21.449  0.00  0.00    +0.000 A 
ATOM     16  C   UNL     1      -0.523  10.336  20.157  0.00  0.00    +0.000 A 
ATOM     17  C   UNL     1       0.170   9.213  19.624  0.00  0.00    +0.000 A 
BRANCH  16  18
ATOM     18  C   UNL     1      -1.543  11.026  19.394  0.00  0.00    +0.000 C 
ATOM     19  C   UNL     1      -2.794  10.988  18.968  0.00  0.00    +0.000 C 
ATOM     20  C   UNL     1      -1.634  12.160  18.657  0.00  0.00    +0.000 C 
BRANCH  19  21
ATOM     21  C   UNL     1      -3.881  11.547  18.247  0.00  0.00    +0.000 A 
ATOM     22  N   UNL     1      -4.152  11.518  16.942  0.00  0.00    +0.000 NA
ATOM     23  N   UNL     1      -5.321  12.188  16.698  0.00  0.00    +0.000 NA
ATOM     24  C   UNL     1      -5.760  12.630  17.849  0.00  0.00    +0.000 A 
ATOM     25  N   UNL     1      -4.893  12.273  18.844  0.00  0.00    +0.000 N 
ATOM     26  C   UNL     1      -5.089  12.631  20.225  0.00  0.00    +0.000 C 
ENDBRANCH  19  21
ENDBRANCH  16  18
ENDBRANCH  10  12
BRANCH   4  27
ATOM     27  C   UNL     1       2.073   2.782  20.301  0.00  0.00    +0.000 C 
ATOM     28  F   UNL     1       2.045   1.511  19.814  0.00  0.00    +0.000 F 
ATOM     29  F   UNL     1       2.735   2.718  21.486  0.00  0.00    +0.000 F 
ATOM     30  F   UNL     1       0.785   3.096  20.604  0.00  0.00    +0.000 F 
ENDBRANCH   4  27
TORSDOF 4
ENDMDL
MODEL 8
REMARK VINA RESULT:      -8.3      3.277      9.029
REMARK  Name = 
REMARK  6 active torsions:
REMARK  status: ('A' for Active; 'I' for Inactive)
REMARK    1  A    between atoms: C_1  and  C_2
REMARK    2  A    between atoms: C_4  and  C_5
REMARK    3  A    between atoms: N_14  and  C_15
REMARK    4  A    between atoms: C_19  and  C_20
REMARK    5  A    between atoms: C_21  and  C_22
REMARK    6  A    between atoms: N_26  and  C_27
REMARK                            x       y       z     vdW  Elec       q    Type
REMARK                         _______ _______ _______ _____ _____    ______ ____
ROOT
ATOM      1  C   UNL     1       4.546   4.083  16.462  0.00  0.00    +0.000 C 
ATOM      2  C   UNL     1       3.749   4.619  17.616  0.00  0.00    +0.000 A 
ATOM      3  C   UNL     1       3.280   3.776  18.630  0.00  0.00    +0.000 A 
ATOM      4  C   UNL     1       2.534   4.299  19.709  0.00  0.00    +0.000 A 
ATOM      5  C   UNL     1       2.298   5.675  19.720  0.00  0.00    +0.000 A 
ATOM      6  C   UNL     1       2.802   6.411  18.668  0.00  0.00    +0.000 A 
ATOM      7  N   UNL     1       3.513   5.947  17.622  0.00  0.00    +0.000 NA
ATOM      8  C   UNL     1       2.406   7.818  18.834  0.00  0.00    +0.000 C 
ATOM      9  O   UNL     1       2.736   8.695  18.056  0.00  0.00    +0.000 OA
ATOM     10  N   UNL     1       1.634   7.893  20.010  0.00  0.00    +0.000 N 
ATOM     11  C   UNL     1       1.572   6.586  20.667  0.00  0.00    +0.000 C 
ENDROOT
BRANCH  10  12
ATOM     12  C   UNL     1       0.954   9.070  20.469  0.00  0.00    +0.000 A 
ATOM     13  C   UNL     1       0.123   9.007  21.598  0.00  0.00    +0.000 A 
ATOM     14  C   UNL     1      -0.546  10.128  22.089  0.00  0.00    +0.000 A 
ATOM     15  C   UNL     1      -0.430  11.357  21.445  0.00  0.00    +0.000 A 
ATOM     16  C   UNL     1       0.362  11.472  20.303  0.00  0.00    +0.000 A 
ATOM     17  C   UNL     1       1.068  10.328  19.835  0.00  0.00    +0.000 A 
BRANCH  16  18
ATOM     18  C   UNL     1       0.435  12.741  19.608  0.00  0.00    +0.000 C 
ATOM     19  C   UNL     1       0.789  14.012  19.698  0.00  0.00    +0.000 C 
ATOM     20  C   UNL     1       0.078  13.230  18.394  0.00  0.00    +0.000 C 
BRANCH  19  21
ATOM     21  C   UNL     1       0.911  15.312  19.143  0.00  0.00    +0.000 A 
ATOM     22  N   UNL     1       1.896  15.850  18.423  0.00  0.00    +0.000 NA
ATOM     23  N   UNL     1       1.575  17.139  18.092  0.00  0.00    +0.000 NA
ATOM     24  C   UNL     1       0.401  17.390  18.612  0.00  0.00    +0.000 A 
ATOM     25  N   UNL     1      -0.050  16.292  19.291  0.00  0.00    +0.000 N 
ATOM     26  C   UNL     1      -1.308  16.262  19.992  0.00  0.00    +0.000 C 
ENDBRANCH  19  21
ENDBRANCH  16  18
ENDBRANCH  10  12
BRANCH   4  27
ATOM     27  C   UNL     1       2.016   3.386  20.783  0.00  0.00    +0.000 C 
ATOM     28  F   UNL     1       2.297   2.073  20.558  0.00  0.00    +0.000 F 
ATOM     29  F   UNL     1       2.534   3.679  22.005  0.00  0.00    +0.000 F 
ATOM     30  F   UNL     1       0.665   3.462  20.916  0.00  0.00    +0.000 F 
ENDBRANCH   4  27
TORSDOF 4
ENDMDL
MODEL 9
REMARK VINA RESULT:      -8.2      3.419      8.718
REMARK  Name = 
REMARK  6 active torsions:
REMARK  status: ('A' for Active; 'I' for Inactive)
REMARK    1  A    between atoms: C_1  and  C_2
REMARK    2  A    between atoms: C_4  and  C_5
REMARK    3  A    between atoms: N_14  and  C_15
REMARK    4  A    between atoms: C_19  and  C_20
REMARK    5  A    between atoms: C_21  and  C_22
REMARK    6  A    between atoms: N_26  and  C_27
REMARK                            x       y       z     vdW  Elec       q    Type
REMARK                         _______ _______ _______ _____ _____    ______ ____
ROOT
ATOM      1  C   UNL     1       4.211   4.323  16.467  0.00  0.00    +0.000 C 
ATOM      2  C   UNL     1       3.502   4.773  17.712  0.00  0.00    +0.000 A 
ATOM      3  C   UNL     1       3.143   3.864  18.714  0.00  0.00    +0.000 A 
ATOM      4  C   UNL     1       2.480   4.307  19.879  0.00  0.00    +0.000 A 
ATOM      5  C   UNL     1       2.211   5.672  19.985  0.00  0.00    +0.000 A 
ATOM      6  C   UNL     1       2.604   6.478  18.937  0.00  0.00    +0.000 A 
ATOM      7  N   UNL     1       3.234   6.092  17.811  0.00  0.00    +0.000 NA
ATOM      8  C   UNL     1       2.187   7.861  19.214  0.00  0.00    +0.000 C 
ATOM      9  O   UNL     1       2.426   8.788  18.459  0.00  0.00    +0.000 OA
ATOM     10  N   UNL     1       1.517   7.851  20.452  0.00  0.00    +0.000 N 
ATOM     11  C   UNL     1       1.545   6.511  21.039  0.00  0.00    +0.000 C 
ENDROOT
BRANCH  10  12
ATOM     12  C   UNL     1       0.849   8.982  21.031  0.00  0.00    +0.000 A 
ATOM     13  C   UNL     1      -0.111   8.792  22.037  0.00  0.00    +0.000 A 
ATOM     14  C   UNL     1      -0.774   9.861  22.638  0.00  0.00    +0.000 A 
ATOM     15  C   UNL     1      -0.522  11.167  22.231  0.00  0.00    +0.000 A 
ATOM     16  C   UNL     1       0.404  11.414  21.216  0.00  0.00    +0.000 A 
ATOM     17  C   UNL     1       1.100  10.315  20.638  0.00  0.00    +0.000 A 
BRANCH  16  18
ATOM     18  C   UNL     1       0.622  12.771  20.761  0.00  0.00    +0.000 C 
ATOM     19  C   UNL     1       0.805  13.549  19.707  0.00  0.00    +0.000 C 
ATOM     20  C   UNL     1       0.791  13.992  21.326  0.00  0.00    +0.000 C 
BRANCH  19  21
ATOM     21  C   UNL     1       1.029  14.823  19.125  0.00  0.00    +0.000 A 
ATOM     22  N   UNL     1       0.202  15.858  18.978  0.00  0.00    +0.000 NA
ATOM     23  N   UNL     1       0.859  16.891  18.365  0.00  0.00    +0.000 NA
ATOM     24  C   UNL     1       2.082  16.487  18.133  0.00  0.00    +0.000 A 
ATOM     25  N   UNL     1       2.237  15.201  18.572  0.00  0.00    +0.000 N 
ATOM     26  C   UNL     1       3.469  14.467  18.440  0.00  0.00    +0.000 C 
ENDBRANCH  19  21
ENDBRANCH  16  18
ENDBRANCH  10  12
BRANCH   4  27
ATOM     27  C   UNL     1       2.079   3.323  20.941  0.00  0.00    +0.000 C 
ATOM     28  F   UNL     1       2.606   2.082  20.754  0.00  0.00    +0.000 F 
ATOM     29  F   UNL     1       2.468   3.716  22.183  0.00  0.00    +0.000 F 
ATOM     30  F   UNL     1       0.731   3.153  21.003  0.00  0.00    +0.000 F 
ENDBRANCH   4  27
TORSDOF 4
ENDMDL
