MODEL 1
REMARK VINA RESULT:      -8.7      0.000      0.000
REMARK  Name = 
REMARK  3 active torsions:
REMARK  status: ('A' for Active; 'I' for Inactive)
REMARK    1  A    between atoms: C_2  and  C_17
REMARK    2  A    between atoms: N_3  and  C_4
REMARK    3  A    between atoms: C_7  and  C_8
REMARK                            x       y       z     vdW  Elec       q    Type
REMARK                         _______ _______ _______ _____ _____    ______ ____
ROOT
ATOM      1  O   UNL     1       1.393  11.527  20.381  0.00  0.00    +0.000 OA
ATOM      2  C   UNL     1       0.514  10.785  20.816  0.00  0.00    +0.000 C 
ATOM      3  N   UNL     1       0.588   9.416  20.748  0.00  0.00    +0.000 N 
ATOM      4  H   UNL     1      -0.246   8.887  21.003  0.00  0.00    +0.000 HD
ENDROOT
BRANCH   2   5
ATOM      5  C   UNL     1      -0.714  11.334  21.475  0.00  0.00    +0.000 A 
ATOM      6  C   UNL     1      -1.521  12.120  20.735  0.00  0.00    +0.000 A 
ATOM      7  C   UNL     1      -2.744  12.696  21.299  0.00  0.00    +0.000 A 
ATOM      8  C   UNL     1      -3.573  13.538  20.553  0.00  0.00    +0.000 A 
ATOM      9  C   UNL     1      -4.740  14.056  21.124  0.00  0.00    +0.000 A 
ATOM     10  C   UNL     1      -5.083  13.730  22.437  0.00  0.00    +0.000 A 
ATOM     11  C   UNL     1      -4.258  12.895  23.190  0.00  0.00    +0.000 A 
ATOM     12  C   UNL     1      -3.091  12.388  22.619  0.00  0.00    +0.000 A 
ATOM     13  N   UNL     1      -2.244  11.569  23.373  0.00  0.00    +0.000 N 
ATOM     14  C   UNL     1      -1.070  11.048  22.897  0.00  0.00    +0.000 A 
ATOM     15  O   UNL     1      -0.340  10.375  23.626  0.00  0.00    +0.000 OA
ATOM     16  H   UNL     1      -2.472  11.352  24.334  0.00  0.00    +0.000 HD
ENDBRANCH   2   5
BRANCH   3  17
ATOM     17  C   UNL     1       1.655   8.715  20.050  0.00  0.00    +0.000 C 
ATOM     18  C   UNL     1       1.487   8.864  18.535  0.00  0.00    +0.000 C 
ATOM     19  C   UNL     1       2.572   8.103  17.776  0.00  0.00    +0.000 C 
ATOM     20  C   UNL     1       2.621   6.618  18.180  0.00  0.00    +0.000 C 
ATOM     21  C   UNL     1       2.762   6.462  19.703  0.00  0.00    +0.000 C 
ATOM     22  C   UNL     1       1.676   7.236  20.453  0.00  0.00    +0.000 C 
BRANCH  20  23
ATOM     23  C   UNL     1       3.716   5.886  17.418  0.00  0.00    +0.000 A 
ATOM     24  C   UNL     1       4.685   6.583  16.676  0.00  0.00    +0.000 A 
ATOM     25  C   UNL     1       5.645   5.894  15.933  0.00  0.00    +0.000 A 
ATOM     26  C   UNL     1       5.645   4.506  15.933  0.00  0.00    +0.000 A 
ATOM     27  F   UNL     1       6.557   3.845  15.208  0.00  0.00    +0.000 F 
ATOM     28  C   UNL     1       4.708   3.793  16.671  0.00  0.00    +0.000 A 
ATOM     29  C   UNL     1       3.745   4.481  17.413  0.00  0.00    +0.000 A 
ENDBRANCH  20  23
ENDBRANCH   3  17
TORSDOF 3
ENDMDL
MODEL 2
REMARK VINA RESULT:      -8.5      1.426      2.166
REMARK  Name = 
REMARK  3 active torsions:
REMARK  status: ('A' for Active; 'I' for Inactive)
REMARK    1  A    between atoms: C_2  and  C_17
REMARK    2  A    between atoms: N_3  and  C_4
REMARK    3  A    between atoms: C_7  and  C_8
REMARK                            x       y       z     vdW  Elec       q    Type
REMARK                         _______ _______ _______ _____ _____    ______ ____
ROOT
ATOM      1  O   UNL     1       0.974  11.571  21.426  0.00  0.00    +0.000 OA
ATOM      2  C   UNL     1      -0.027  11.162  20.841  0.00  0.00    +0.000 C 
ATOM      3  N   UNL     1      -0.018  10.059  20.023  0.00  0.00    +0.000 N 
ATOM      4  H   UNL     1      -0.856   9.878  19.470  0.00  0.00    +0.000 HD
ENDROOT
BRANCH   2   5
ATOM      5  C   UNL     1      -1.353  11.841  20.995  0.00  0.00    +0.000 A 
ATOM      6  C   UNL     1      -1.873  11.923  22.236  0.00  0.00    +0.000 A 
ATOM      7  C   UNL     1      -3.163  12.573  22.477  0.00  0.00    +0.000 A 
ATOM      8  C   UNL     1      -3.728  12.637  23.753  0.00  0.00    +0.000 A 
ATOM      9  C   UNL     1      -4.955  13.280  23.943  0.00  0.00    +0.000 A 
ATOM     10  C   UNL     1      -5.617  13.864  22.862  0.00  0.00    +0.000 A 
ATOM     11  C   UNL     1      -5.062  13.799  21.584  0.00  0.00    +0.000 A 
ATOM     12  C   UNL     1      -3.843  13.150  21.398  0.00  0.00    +0.000 A 
ATOM     13  N   UNL     1      -3.289  13.059  20.116  0.00  0.00    +0.000 N 
ATOM     14  C   UNL     1      -2.107  12.420  19.844  0.00  0.00    +0.000 A 
ATOM     15  O   UNL     1      -1.697  12.328  18.686  0.00  0.00    +0.000 OA
ATOM     16  H   UNL     1      -3.776  13.454  19.324  0.00  0.00    +0.000 HD
ENDBRANCH   2   5
BRANCH   3  17
ATOM     17  C   UNL     1       1.198   9.341  19.676  0.00  0.00    +0.000 C 
ATOM     18  C   UNL     1       1.342   9.244  18.153  0.00  0.00    +0.000 C 
ATOM     19  C   UNL     1       2.591   8.459  17.761  0.00  0.00    +0.000 C 
ATOM     20  C   UNL     1       2.617   7.061  18.405  0.00  0.00    +0.000 C 
ATOM     21  C   UNL     1       2.447   7.151  19.931  0.00  0.00    +0.000 C 
ATOM     22  C   UNL     1       1.198   7.947  20.313  0.00  0.00    +0.000 C 
BRANCH  20  23
ATOM     23  C   UNL     1       3.876   6.305  18.006  0.00  0.00    +0.000 A 
ATOM     24  C   UNL     1       4.438   5.324  18.842  0.00  0.00    +0.000 A 
ATOM     25  C   UNL     1       5.627   4.684  18.489  0.00  0.00    +0.000 A 
ATOM     26  C   UNL     1       6.257   5.016  17.298  0.00  0.00    +0.000 A 
ATOM     27  F   UNL     1       7.406   4.412  16.967  0.00  0.00    +0.000 F 
ATOM     28  C   UNL     1       5.715   5.970  16.447  0.00  0.00    +0.000 A 
ATOM     29  C   UNL     1       4.526   6.614  16.799  0.00  0.00    +0.000 A 
ENDBRANCH  20  23
ENDBRANCH   3  17
TORSDOF 3
ENDMDL
MODEL 3
REMARK VINA RESULT:      -8.4      4.109     10.290
REMARK  Name = 
REMARK  3 active torsions:
REMARK  status: ('A' for Active; 'I' for Inactive)
REMARK    1  A    between atoms: C_2  and  C_17
REMARK    2  A    between atoms: N_3  and  C_4
REMARK    3  A    between atoms: C_7  and  C_8
REMARK                            x       y       z     vdW  Elec       q    Type
REMARK                         _______ _______ _______ _____ _____    ______ ____
ROOT
ATOM      1  O   UNL     1       1.364   9.160  18.780  0.00  0.00    +0.000 OA
ATOM      2  C   UNL     1       1.830   8.270  19.489  0.00  0.00    +0.000 C 
ATOM      3  N   UNL     1       1.708   8.261  20.857  0.00  0.00    +0.000 N 
ATOM      4  H   UNL     1       2.245   7.563  21.372  0.00  0.00    +0.000 HD
ENDROOT
BRANCH   2   5
ATOM      5  C   UNL     1       2.566   7.107  18.899  0.00  0.00    +0.000 A 
ATOM      6  C   UNL     1       3.386   7.350  17.858  0.00  0.00    +0.000 A 
ATOM      7  C   UNL     1       4.145   6.271  17.221  0.00  0.00    +0.000 A 
ATOM      8  C   UNL     1       4.975   6.504  16.122  0.00  0.00    +0.000 A 
ATOM      9  C   UNL     1       5.695   5.449  15.553  0.00  0.00    +0.000 A 
ATOM     10  C   UNL     1       5.592   4.162  16.083  0.00  0.00    +0.000 A 
ATOM     11  C   UNL     1       4.761   3.920  17.177  0.00  0.00    +0.000 A 
ATOM     12  C   UNL     1       4.038   4.974  17.736  0.00  0.00    +0.000 A 
ATOM     13  N   UNL     1       3.185   4.738  18.819  0.00  0.00    +0.000 N 
ATOM     14  C   UNL     1       2.424   5.711  19.411  0.00  0.00    +0.000 A 
ATOM     15  O   UNL     1       1.651   5.431  20.328  0.00  0.00    +0.000 OA
ATOM     16  H   UNL     1       3.083   3.803  19.189  0.00  0.00    +0.000 HD
ENDBRANCH   2   5
BRANCH   3  17
ATOM     17  C   UNL     1       1.119   9.360  21.606  0.00  0.00    +0.000 C 
ATOM     18  C   UNL     1      -0.134   8.886  22.350  0.00  0.00    +0.000 C 
ATOM     19  C   UNL     1      -0.796  10.031  23.113  0.00  0.00    +0.000 C 
ATOM     20  C   UNL     1      -1.120  11.222  22.194  0.00  0.00    +0.000 C 
ATOM     21  C   UNL     1       0.130  11.685  21.425  0.00  0.00    +0.000 C 
ATOM     22  C   UNL     1       0.789  10.529  20.672  0.00  0.00    +0.000 C 
BRANCH  20  23
ATOM     23  C   UNL     1      -1.768  12.352  22.980  0.00  0.00    +0.000 A 
ATOM     24  C   UNL     1      -1.071  13.538  23.270  0.00  0.00    +0.000 A 
ATOM     25  C   UNL     1      -1.658  14.539  24.046  0.00  0.00    +0.000 A 
ATOM     26  C   UNL     1      -2.948  14.362  24.530  0.00  0.00    +0.000 A 
ATOM     27  F   UNL     1      -3.506  15.317  25.286  0.00  0.00    +0.000 F 
ATOM     28  C   UNL     1      -3.665  13.207  24.244  0.00  0.00    +0.000 A 
ATOM     29  C   UNL     1      -3.076  12.203  23.470  0.00  0.00    +0.000 A 
ENDBRANCH  20  23
ENDBRANCH   3  17
TORSDOF 3
ENDMDL
MODEL 4
REMARK VINA RESULT:      -8.3      1.262      1.913
REMARK  Name = 
REMARK  3 active torsions:
REMARK  status: ('A' for Active; 'I' for Inactive)
REMARK    1  A    between atoms: C_2  and  C_17
REMARK    2  A    between atoms: N_3  and  C_4
REMARK    3  A    between atoms: C_7  and  C_8
REMARK                            x       y       z     vdW  Elec       q    Type
REMARK                         _______ _______ _______ _____ _____    ______ ____
ROOT
ATOM      1  O   UNL     1       1.415  11.932  21.171  0.00  0.00    +0.000 OA
ATOM      2  C   UNL     1       0.308  11.457  20.924  0.00  0.00    +0.000 C 
ATOM      3  N   UNL     1       0.134  10.229  20.335  0.00  0.00    +0.000 N 
ATOM      4  H   UNL     1      -0.810   9.979  20.040  0.00  0.00    +0.000 HD
ENDROOT
BRANCH   2   5
ATOM      5  C   UNL     1      -0.951  12.194  21.267  0.00  0.00    +0.000 A 
ATOM      6  C   UNL     1      -1.586  11.848  22.404  0.00  0.00    +0.000 A 
ATOM      7  C   UNL     1      -2.822  12.517  22.816  0.00  0.00    +0.000 A 
ATOM      8  C   UNL     1      -3.507  12.148  23.976  0.00  0.00    +0.000 A 
ATOM      9  C   UNL     1      -4.676  12.823  24.343  0.00  0.00    +0.000 A 
ATOM     10  C   UNL     1      -5.159  13.870  23.556  0.00  0.00    +0.000 A 
ATOM     11  C   UNL     1      -4.483  14.241  22.394  0.00  0.00    +0.000 A 
ATOM     12  C   UNL     1      -3.323  13.560  22.027  0.00  0.00    +0.000 A 
ATOM     13  N   UNL     1      -2.650  13.908  20.851  0.00  0.00    +0.000 N 
ATOM     14  C   UNL     1      -1.518  13.276  20.409  0.00  0.00    +0.000 A 
ATOM     15  O   UNL     1      -1.001  13.594  19.337  0.00  0.00    +0.000 OA
ATOM     16  H   UNL     1      -3.010  14.646  20.261  0.00  0.00    +0.000 HD
ENDBRANCH   2   5
BRANCH   3  17
ATOM     17  C   UNL     1       1.240   9.425  19.841  0.00  0.00    +0.000 C 
ATOM     18  C   UNL     1       1.251   9.420  18.308  0.00  0.00    +0.000 C 
ATOM     19  C   UNL     1       2.379   8.550  17.762  0.00  0.00    +0.000 C 
ATOM     20  C   UNL     1       2.317   7.114  18.314  0.00  0.00    +0.000 C 
ATOM     21  C   UNL     1       2.279   7.113  19.852  0.00  0.00    +0.000 C 
ATOM     22  C   UNL     1       1.151   7.996  20.389  0.00  0.00    +0.000 C 
BRANCH  20  23
ATOM     23  C   UNL     1       3.457   6.272  17.763  0.00  0.00    +0.000 A 
ATOM     24  C   UNL     1       4.596   6.864  17.190  0.00  0.00    +0.000 A 
ATOM     25  C   UNL     1       5.605   6.076  16.632  0.00  0.00    +0.000 A 
ATOM     26  C   UNL     1       5.483   4.693  16.650  0.00  0.00    +0.000 A 
ATOM     27  F   UNL     1       6.445   3.938  16.103  0.00  0.00    +0.000 F 
ATOM     28  C   UNL     1       4.376   4.082  17.225  0.00  0.00    +0.000 A 
ATOM     29  C   UNL     1       3.364   4.869  17.781  0.00  0.00    +0.000 A 
ENDBRANCH  20  23
ENDBRANCH   3  17
TORSDOF 3
ENDMDL
MODEL 5
REMARK VINA RESULT:      -8.0      4.276     10.323
REMARK  Name = 
REMARK  3 active torsions:
REMARK  status: ('A' for Active; 'I' for Inactive)
REMARK    1  A    between atoms: C_2  and  C_17
REMARK    2  A    between atoms: N_3  and  C_4
REMARK    3  A    between atoms: C_7  and  C_8
REMARK                            x       y       z     vdW  Elec       q    Type
REMARK                         _______ _______ _______ _____ _____    ______ ____
ROOT
ATOM      1  O   UNL     1       1.371   5.833  20.815  0.00  0.00    +0.000 OA
ATOM      2  C   UNL     1       2.053   6.475  20.018  0.00  0.00    +0.000 C 
ATOM      3  N   UNL     1       1.943   7.835  19.862  0.00  0.00    +0.000 N 
ATOM      4  H   UNL     1       2.444   8.260  19.082  0.00  0.00    +0.000 HD
ENDROOT
BRANCH   2   5
ATOM      5  C   UNL     1       3.080   5.807  19.156  0.00  0.00    +0.000 A 
ATOM      6  C   UNL     1       3.515   6.476  18.070  0.00  0.00    +0.000 A 
ATOM      7  C   UNL     1       4.519   5.899  17.174  0.00  0.00    +0.000 A 
ATOM      8  C   UNL     1       4.954   6.568  16.027  0.00  0.00    +0.000 A 
ATOM      9  C   UNL     1       5.927   5.989  15.206  0.00  0.00    +0.000 A 
ATOM     10  C   UNL     1       6.469   4.744  15.530  0.00  0.00    +0.000 A 
ATOM     11  C   UNL     1       6.035   4.067  16.670  0.00  0.00    +0.000 A 
ATOM     12  C   UNL     1       5.059   4.645  17.481  0.00  0.00    +0.000 A 
ATOM     13  N   UNL     1       4.600   3.964  18.614  0.00  0.00    +0.000 N 
ATOM     14  C   UNL     1       3.630   4.450  19.451  0.00  0.00    +0.000 A 
ATOM     15  O   UNL     1       3.231   3.781  20.403  0.00  0.00    +0.000 OA
ATOM     16  H   UNL     1       4.967   3.050  18.839  0.00  0.00    +0.000 HD
ENDBRANCH   2   5
BRANCH   3  17
ATOM     17  C   UNL     1       0.929   8.629  20.537  0.00  0.00    +0.000 C 
ATOM     18  C   UNL     1       0.693   9.943  19.785  0.00  0.00    +0.000 C 
ATOM     19  C   UNL     1      -0.339  10.815  20.495  0.00  0.00    +0.000 C 
ATOM     20  C   UNL     1       0.047  11.083  21.961  0.00  0.00    +0.000 C 
ATOM     21  C   UNL     1       0.310   9.768  22.715  0.00  0.00    +0.000 C 
ATOM     22  C   UNL     1       1.338   8.899  21.989  0.00  0.00    +0.000 C 
BRANCH  20  23
ATOM     23  C   UNL     1      -1.003  11.944  22.648  0.00  0.00    +0.000 A 
ATOM     24  C   UNL     1      -2.186  11.387  23.162  0.00  0.00    +0.000 A 
ATOM     25  C   UNL     1      -3.167  12.200  23.734  0.00  0.00    +0.000 A 
ATOM     26  C   UNL     1      -2.965  13.573  23.801  0.00  0.00    +0.000 A 
ATOM     27  F   UNL     1      -3.912  14.354  24.337  0.00  0.00    +0.000 F 
ATOM     28  C   UNL     1      -1.798  14.146  23.315  0.00  0.00    +0.000 A 
ATOM     29  C   UNL     1      -0.817  13.334  22.739  0.00  0.00    +0.000 A 
ENDBRANCH  20  23
ENDBRANCH   3  17
TORSDOF 3
ENDMDL
MODEL 6
REMARK VINA RESULT:      -8.0      1.612      2.021
REMARK  Name = 
REMARK  3 active torsions:
REMARK  status: ('A' for Active; 'I' for Inactive)
REMARK    1  A    between atoms: C_2  and  C_17
REMARK    2  A    between atoms: N_3  and  C_4
REMARK    3  A    between atoms: C_7  and  C_8
REMARK                            x       y       z     vdW  Elec       q    Type
REMARK                         _______ _______ _______ _____ _____    ______ ____
ROOT
ATOM      1  O   UNL     1       1.387  12.160  21.197  0.00  0.00    +0.000 OA
ATOM      2  C   UNL     1       0.268  11.671  21.050  0.00  0.00    +0.000 C 
ATOM      3  N   UNL     1       0.059  10.425  20.511  0.00  0.00    +0.000 N 
ATOM      4  H   UNL     1      -0.902  10.162  20.297  0.00  0.00    +0.000 HD
ENDROOT
BRANCH   2   5
ATOM      5  C   UNL     1      -0.966  12.409  21.468  0.00  0.00    +0.000 A 
ATOM      6  C   UNL     1      -0.939  13.050  22.653  0.00  0.00    +0.000 A 
ATOM      7  C   UNL     1      -2.101  13.797  23.139  0.00  0.00    +0.000 A 
ATOM      8  C   UNL     1      -2.098  14.439  24.380  0.00  0.00    +0.000 A 
ATOM      9  C   UNL     1      -3.223  15.156  24.799  0.00  0.00    +0.000 A 
ATOM     10  C   UNL     1      -4.350  15.238  23.980  0.00  0.00    +0.000 A 
ATOM     11  C   UNL     1      -4.363  14.595  22.742  0.00  0.00    +0.000 A 
ATOM     12  C   UNL     1      -3.242  13.874  22.331  0.00  0.00    +0.000 A 
ATOM     13  N   UNL     1      -3.253  13.207  21.102  0.00  0.00    +0.000 N 
ATOM     14  C   UNL     1      -2.204  12.460  20.634  0.00  0.00    +0.000 A 
ATOM     15  O   UNL     1      -2.294  11.852  19.567  0.00  0.00    +0.000 OA
ATOM     16  H   UNL     1      -4.076  13.237  20.516  0.00  0.00    +0.000 HD
ENDBRANCH   2   5
BRANCH   3  17
ATOM     17  C   UNL     1       1.131   9.614  19.955  0.00  0.00    +0.000 C 
ATOM     18  C   UNL     1       1.002   9.535  18.431  0.00  0.00    +0.000 C 
ATOM     19  C   UNL     1       2.092   8.655  17.824  0.00  0.00    +0.000 C 
ATOM     20  C   UNL     1       2.107   7.247  18.447  0.00  0.00    +0.000 C 
ATOM     21  C   UNL     1       2.209   7.320  19.980  0.00  0.00    +0.000 C 
ATOM     22  C   UNL     1       1.119   8.213  20.576  0.00  0.00    +0.000 C 
BRANCH  20  23
ATOM     23  C   UNL     1       3.207   6.395  17.833  0.00  0.00    +0.000 A 
ATOM     24  C   UNL     1       4.344   6.977  17.246  0.00  0.00    +0.000 A 
ATOM     25  C   UNL     1       5.314   6.183  16.632  0.00  0.00    +0.000 A 
ATOM     26  C   UNL     1       5.157   4.803  16.608  0.00  0.00    +0.000 A 
ATOM     27  F   UNL     1       6.081   4.043  16.007  0.00  0.00    +0.000 F 
ATOM     28  C   UNL     1       4.051   4.202  17.196  0.00  0.00    +0.000 A 
ATOM     29  C   UNL     1       3.077   4.996  17.808  0.00  0.00    +0.000 A 
ENDBRANCH  20  23
ENDBRANCH   3  17
TORSDOF 3
ENDMDL
MODEL 7
REMARK VINA RESULT:      -8.0      4.185     10.324
REMARK  Name = 
REMARK  3 active torsions:
REMARK  status: ('A' for Active; 'I' for Inactive)
REMARK    1  A    between atoms: C_2  and  C_17
REMARK    2  A    between atoms: N_3  and  C_4
REMARK    3  A    between atoms: C_7  and  C_8
REMARK                            x       y       z     vdW  Elec       q    Type
REMARK                         _______ _______ _______ _____ _____    ______ ____
ROOT
ATOM      1  O   UNL     1       1.225   8.518  18.149  0.00  0.00    +0.000 OA
ATOM      2  C   UNL     1       1.797   7.942  19.072  0.00  0.00    +0.000 C 
ATOM      3  N   UNL     1       1.453   8.114  20.391  0.00  0.00    +0.000 N 
ATOM      4  H   UNL     1       2.072   7.709  21.094  0.00  0.00    +0.000 HD
ENDROOT
BRANCH   2   5
ATOM      5  C   UNL     1       2.922   6.986  18.817  0.00  0.00    +0.000 A 
ATOM      6  C   UNL     1       3.725   7.233  17.764  0.00  0.00    +0.000 A 
ATOM      7  C   UNL     1       4.849   6.351  17.443  0.00  0.00    +0.000 A 
ATOM      8  C   UNL     1       5.670   6.577  16.335  0.00  0.00    +0.000 A 
ATOM      9  C   UNL     1       6.743   5.719  16.073  0.00  0.00    +0.000 A 
ATOM     10  C   UNL     1       7.001   4.638  16.917  0.00  0.00    +0.000 A 
ATOM     11  C   UNL     1       6.182   4.402  18.022  0.00  0.00    +0.000 A 
ATOM     12  C   UNL     1       5.108   5.255  18.275  0.00  0.00    +0.000 A 
ATOM     13  N   UNL     1       4.267   5.014  19.366  0.00  0.00    +0.000 N 
ATOM     14  C   UNL     1       3.180   5.789  19.672  0.00  0.00    +0.000 A 
ATOM     15  O   UNL     1       2.446   5.495  20.616  0.00  0.00    +0.000 OA
ATOM     16  H   UNL     1       4.430   4.216  19.965  0.00  0.00    +0.000 HD
ENDBRANCH   2   5
BRANCH   3  17
ATOM     17  C   UNL     1       0.459   9.080  20.830  0.00  0.00    +0.000 C 
ATOM     18  C   UNL     1       0.937  10.506  20.535  0.00  0.00    +0.000 C 
ATOM     19  C   UNL     1      -0.070  11.544  21.022  0.00  0.00    +0.000 C 
ATOM     20  C   UNL     1      -0.394  11.372  22.518  0.00  0.00    +0.000 C 
ATOM     21  C   UNL     1      -0.849   9.935  22.825  0.00  0.00    +0.000 C 
ATOM     22  C   UNL     1       0.163   8.903  22.323  0.00  0.00    +0.000 C 
BRANCH  20  23
ATOM     23  C   UNL     1      -1.407  12.410  22.975  0.00  0.00    +0.000 A 
ATOM     24  C   UNL     1      -1.082  13.777  23.033  0.00  0.00    +0.000 A 
ATOM     25  C   UNL     1      -2.003  14.709  23.514  0.00  0.00    +0.000 A 
ATOM     26  C   UNL     1      -3.256  14.281  23.934  0.00  0.00    +0.000 A 
ATOM     27  F   UNL     1      -4.134  15.174  24.409  0.00  0.00    +0.000 F 
ATOM     28  C   UNL     1      -3.608  12.939  23.871  0.00  0.00    +0.000 A 
ATOM     29  C   UNL     1      -2.686  12.004  23.393  0.00  0.00    +0.000 A 
ENDBRANCH  20  23
ENDBRANCH   3  17
TORSDOF 3
ENDMDL
MODEL 8
REMARK VINA RESULT:      -7.9      4.266     10.310
REMARK  Name = 
REMARK  3 active torsions:
REMARK  status: ('A' for Active; 'I' for Inactive)
REMARK    1  A    between atoms: C_2  and  C_17
REMARK    2  A    between atoms: N_3  and  C_4
REMARK    3  A    between atoms: C_7  and  C_8
REMARK                            x       y       z     vdW  Elec       q    Type
REMARK                         _______ _______ _______ _____ _____    ______ ____
ROOT
ATOM      1  O   UNL     1       1.542   5.726  20.630  0.00  0.00    +0.000 OA
ATOM      2  C   UNL     1       2.225   6.329  19.805  0.00  0.00    +0.000 C 
ATOM      3  N   UNL     1       2.126   7.683  19.597  0.00  0.00    +0.000 N 
ATOM      4  H   UNL     1       2.625   8.073  18.797  0.00  0.00    +0.000 HD
ENDROOT
BRANCH   2   5
ATOM      5  C   UNL     1       3.241   5.619  18.964  0.00  0.00    +0.000 A 
ATOM      6  C   UNL     1       3.678   6.243  17.853  0.00  0.00    +0.000 A 
ATOM      7  C   UNL     1       4.672   5.622  16.974  0.00  0.00    +0.000 A 
ATOM      8  C   UNL     1       5.110   6.244  15.803  0.00  0.00    +0.000 A 
ATOM      9  C   UNL     1       6.073   5.624  14.999  0.00  0.00    +0.000 A 
ATOM     10  C   UNL     1       6.602   4.386  15.367  0.00  0.00    +0.000 A 
ATOM     11  C   UNL     1       6.165   3.756  16.532  0.00  0.00    +0.000 A 
ATOM     12  C   UNL     1       5.199   4.374  17.325  0.00  0.00    +0.000 A 
ATOM     13  N   UNL     1       4.737   3.740  18.484  0.00  0.00    +0.000 N 
ATOM     14  C   UNL     1       3.776   4.268  19.306  0.00  0.00    +0.000 A 
ATOM     15  O   UNL     1       3.373   3.637  20.283  0.00  0.00    +0.000 OA
ATOM     16  H   UNL     1       5.095   2.830  18.740  0.00  0.00    +0.000 HD
ENDBRANCH   2   5
BRANCH   3  17
ATOM     17  C   UNL     1       1.123   8.512  20.246  0.00  0.00    +0.000 C 
ATOM     18  C   UNL     1       0.971   9.844  19.503  0.00  0.00    +0.000 C 
ATOM     19  C   UNL     1      -0.048  10.751  20.188  0.00  0.00    +0.000 C 
ATOM     20  C   UNL     1       0.296  10.985  21.670  0.00  0.00    +0.000 C 
ATOM     21  C   UNL     1       0.475   9.651  22.415  0.00  0.00    +0.000 C 
ATOM     22  C   UNL     1       1.490   8.746  21.715  0.00  0.00    +0.000 C 
BRANCH  20  23
ATOM     23  C   UNL     1      -0.740  11.882  22.331  0.00  0.00    +0.000 A 
ATOM     24  C   UNL     1      -0.599  13.281  22.341  0.00  0.00    +0.000 A 
ATOM     25  C   UNL     1      -1.526  14.086  23.006  0.00  0.00    +0.000 A 
ATOM     26  C   UNL     1      -2.602  13.498  23.658  0.00  0.00    +0.000 A 
ATOM     27  F   UNL     1      -3.483  14.269  24.307  0.00  0.00    +0.000 F 
ATOM     28  C   UNL     1      -2.773  12.119  23.649  0.00  0.00    +0.000 A 
ATOM     29  C   UNL     1      -1.844  11.312  22.987  0.00  0.00    +0.000 A 
ENDBRANCH  20  23
ENDBRANCH   3  17
TORSDOF 3
ENDMDL
MODEL 9
REMARK VINA RESULT:      -7.9      4.326     10.396
REMARK  Name = 
REMARK  3 active torsions:
REMARK  status: ('A' for Active; 'I' for Inactive)
REMARK    1  A    between atoms: C_2  and  C_17
REMARK    2  A    between atoms: N_3  and  C_4
REMARK    3  A    between atoms: C_7  and  C_8
REMARK                            x       y       z     vdW  Elec       q    Type
REMARK                         _______ _______ _______ _____ _____    ______ ____
ROOT
ATOM      1  O   UNL     1       1.934   8.450  22.085  0.00  0.00    +0.000 OA
ATOM      2  C   UNL     1       1.431   8.321  20.971  0.00  0.00    +0.000 C 
ATOM      3  N   UNL     1       0.576   9.246  20.423  0.00  0.00    +0.000 N 
ATOM      4  H   UNL     1       0.097   8.989  19.560  0.00  0.00    +0.000 HD
ENDROOT
BRANCH   2   5
ATOM      5  C   UNL     1       1.731   7.131  20.112  0.00  0.00    +0.000 A 
ATOM      6  C   UNL     1       1.436   5.913  20.608  0.00  0.00    +0.000 A 
ATOM      7  C   UNL     1       1.695   4.696  19.836  0.00  0.00    +0.000 A 
ATOM      8  C   UNL     1       1.424   3.425  20.351  0.00  0.00    +0.000 A 
ATOM      9  C   UNL     1       1.671   2.289  19.574  0.00  0.00    +0.000 A 
ATOM     10  C   UNL     1       2.183   2.418  18.282  0.00  0.00    +0.000 A 
ATOM     11  C   UNL     1       2.462   3.683  17.764  0.00  0.00    +0.000 A 
ATOM     12  C   UNL     1       2.222   4.813  18.545  0.00  0.00    +0.000 A 
ATOM     13  N   UNL     1       2.520   6.084  18.043  0.00  0.00    +0.000 N 
ATOM     14  C   UNL     1       2.335   7.242  18.751  0.00  0.00    +0.000 A 
ATOM     15  O   UNL     1       2.665   8.328  18.275  0.00  0.00    +0.000 OA
ATOM     16  H   UNL     1       2.918   6.184  17.119  0.00  0.00    +0.000 HD
ENDBRANCH   2   5
BRANCH   3  17
ATOM     17  C   UNL     1       0.092  10.406  21.154  0.00  0.00    +0.000 C 
ATOM     18  C   UNL     1      -0.675   9.965  22.405  0.00  0.00    +0.000 C 
ATOM     19  C   UNL     1      -1.230  11.164  23.170  0.00  0.00    +0.000 C 
ATOM     20  C   UNL     1      -2.106  12.060  22.277  0.00  0.00    +0.000 C 
ATOM     21  C   UNL     1      -1.350  12.485  21.006  0.00  0.00    +0.000 C 
ATOM     22  C   UNL     1      -0.791  11.277  20.253  0.00  0.00    +0.000 C 
BRANCH  20  23
ATOM     23  C   UNL     1      -2.637  13.252  23.060  0.00  0.00    +0.000 A 
ATOM     24  C   UNL     1      -1.775  14.103  23.775  0.00  0.00    +0.000 A 
ATOM     25  C   UNL     1      -2.284  15.154  24.539  0.00  0.00    +0.000 A 
ATOM     26  C   UNL     1      -3.656  15.365  24.587  0.00  0.00    +0.000 A 
ATOM     27  F   UNL     1      -4.145  16.365  25.331  0.00  0.00    +0.000 F 
ATOM     28  C   UNL     1      -4.528  14.549  23.877  0.00  0.00    +0.000 A 
ATOM     29  C   UNL     1      -4.020  13.494  23.114  0.00  0.00    +0.000 A 
ENDBRANCH  20  23
ENDBRANCH   3  17
TORSDOF 3
ENDMDL
