MODEL 1
REMARK VINA RESULT:      -9.8      0.000      0.000
REMARK  Name = 
REMARK  5 active torsions:
REMARK  status: ('A' for Active; 'I' for Inactive)
REMARK    1  A    between atoms: C_1  and  S_2
REMARK    2  A    between atoms: S_2  and  C_5
REMARK    3  A    between atoms: C_8  and  N_9
REMARK    4  A    between atoms: C_10  and  C_12
REMARK    5  A    between atoms: C_14  and  C_15
REMARK                            x       y       z     vdW  Elec       q    Type
REMARK                         _______ _______ _______ _____ _____    ______ ____
ROOT
ATOM      1  C   UNL     1       2.840   6.218  18.790  0.00  0.00    +0.000 A 
ATOM      2  C   UNL     1       3.643   6.210  17.624  0.00  0.00    +0.000 A 
ATOM      3  C   UNL     1       4.212   5.019  17.175  0.00  0.00    +0.000 A 
ATOM      4  N   UNL     1       3.874   3.852  17.767  0.00  0.00    +0.000 NA
ATOM      5  C   UNL     1       3.004   3.831  18.781  0.00  0.00    +0.000 A 
ATOM      6  C   UNL     1       2.541   2.586  19.179  0.00  0.00    +0.000 A 
ATOM      7  C   UNL     1       1.593   2.448  20.191  0.00  0.00    +0.000 A 
ATOM      8  C   UNL     1       1.158   3.570  20.877  0.00  0.00    +0.000 A 
ATOM      9  C   UNL     1       1.612   4.833  20.496  0.00  0.00    +0.000 A 
ATOM     10  C   UNL     1       2.496   4.990  19.400  0.00  0.00    +0.000 A 
ENDROOT
BRANCH   3  11
ATOM     11  C   UNL     1       5.208   4.886  16.066  0.00  0.00    +0.000 A 
ATOM     12  C   UNL     1       4.966   4.146  14.891  0.00  0.00    +0.000 A 
ATOM     13  C   UNL     1       5.902   4.100  13.844  0.00  0.00    +0.000 A 
ATOM     14  C   UNL     1       7.102   4.789  13.950  0.00  0.00    +0.000 A 
ATOM     15  F   UNL     1       7.981   4.754  12.940  0.00  0.00    +0.000 F 
ATOM     16  C   UNL     1       7.393   5.514  15.091  0.00  0.00    +0.000 A 
ATOM     17  C   UNL     1       6.457   5.556  16.135  0.00  0.00    +0.000 A 
ENDBRANCH   3  11
BRANCH   1  19
ATOM     18  N   UNL     1       1.912   7.789  20.495  0.00  0.00    +0.000 N 
ATOM     19  C   UNL     1       2.162   7.506  19.147  0.00  0.00    +0.000 C 
ATOM     20  O   UNL     1       1.889   8.257  18.207  0.00  0.00    +0.000 OA
ATOM     21  H   UNL     1       2.380   7.217  21.186  0.00  0.00    +0.000 HD
BRANCH  18  25
ATOM     22  C   UNL     1      -0.522  10.930  22.065  0.00  0.00    +0.000 A 
ATOM     23  C   UNL     1      -0.124  10.969  20.732  0.00  0.00    +0.000 A 
ATOM     24  C   UNL     1       0.676   9.938  20.204  0.00  0.00    +0.000 A 
ATOM     25  C   UNL     1       1.106   8.860  20.994  0.00  0.00    +0.000 A 
ATOM     26  C   UNL     1       0.689   8.837  22.336  0.00  0.00    +0.000 A 
ATOM     27  C   UNL     1      -0.110   9.868  22.875  0.00  0.00    +0.000 A 
BRANCH  22  29
ATOM     28  C   UNL     1      -2.196  13.095  21.340  0.00  0.00    +0.000 C 
ATOM     29  S   UNL     1      -1.480  12.274  22.741  0.00  0.00    +0.000 S 
ATOM     30  O   UNL     1      -0.545  13.190  23.366  0.00  0.00    +0.000 OA
ATOM     31  O   UNL     1      -2.574  11.695  23.502  0.00  0.00    +0.000 OA
ENDBRANCH  22  29
ENDBRANCH  18  25
ENDBRANCH   1  19
TORSDOF 4
ENDMDL
MODEL 2
REMARK VINA RESULT:      -9.6      0.370      1.262
REMARK  Name = 
REMARK  5 active torsions:
REMARK  status: ('A' for Active; 'I' for Inactive)
REMARK    1  A    between atoms: C_1  and  S_2
REMARK    2  A    between atoms: S_2  and  C_5
REMARK    3  A    between atoms: C_8  and  N_9
REMARK    4  A    between atoms: C_10  and  C_12
REMARK    5  A    between atoms: C_14  and  C_15
REMARK                            x       y       z     vdW  Elec       q    Type
REMARK                         _______ _______ _______ _____ _____    ______ ____
ROOT
ATOM      1  C   UNL     1       2.799   6.329  19.075  0.00  0.00    +0.000 A 
ATOM      2  C   UNL     1       3.566   6.355  17.885  0.00  0.00    +0.000 A 
ATOM      3  C   UNL     1       4.182   5.192  17.426  0.00  0.00    +0.000 A 
ATOM      4  N   UNL     1       3.924   4.012  18.034  0.00  0.00    +0.000 NA
ATOM      5  C   UNL     1       3.087   3.954  19.075  0.00  0.00    +0.000 A 
ATOM      6  C   UNL     1       2.702   2.690  19.494  0.00  0.00    +0.000 A 
ATOM      7  C   UNL     1       1.794   2.510  20.536  0.00  0.00    +0.000 A 
ATOM      8  C   UNL     1       1.323   3.613  21.229  0.00  0.00    +0.000 A 
ATOM      9  C   UNL     1       1.698   4.895  20.827  0.00  0.00    +0.000 A 
ATOM     10  C   UNL     1       2.539   5.090  19.703  0.00  0.00    +0.000 A 
ENDROOT
BRANCH   3  11
ATOM     11  C   UNL     1       5.149   5.102  16.287  0.00  0.00    +0.000 A 
ATOM     12  C   UNL     1       6.447   5.649  16.326  0.00  0.00    +0.000 A 
ATOM     13  C   UNL     1       7.348   5.485  15.260  0.00  0.00    +0.000 A 
ATOM     14  C   UNL     1       6.969   4.774  14.130  0.00  0.00    +0.000 A 
ATOM     15  F   UNL     1       7.840   4.608  13.125  0.00  0.00    +0.000 F 
ATOM     16  C   UNL     1       5.700   4.234  14.036  0.00  0.00    +0.000 A 
ATOM     17  C   UNL     1       4.803   4.401  15.102  0.00  0.00    +0.000 A 
ENDBRANCH   3  11
BRANCH   1  19
ATOM     18  N   UNL     1       1.837   7.859  20.798  0.00  0.00    +0.000 N 
ATOM     19  C   UNL     1       2.067   7.584  19.446  0.00  0.00    +0.000 C 
ATOM     20  O   UNL     1       1.732   8.315  18.510  0.00  0.00    +0.000 OA
ATOM     21  H   UNL     1       2.352   7.314  21.479  0.00  0.00    +0.000 HD
BRANCH  18  25
ATOM     22  C   UNL     1      -0.633  11.009  22.292  0.00  0.00    +0.000 A 
ATOM     23  C   UNL     1      -0.686   9.751  22.888  0.00  0.00    +0.000 A 
ATOM     24  C   UNL     1       0.125   8.707  22.404  0.00  0.00    +0.000 A 
ATOM     25  C   UNL     1       0.991   8.891  21.315  0.00  0.00    +0.000 A 
ATOM     26  C   UNL     1       1.035  10.169  20.732  0.00  0.00    +0.000 A 
ATOM     27  C   UNL     1       0.221  11.221  21.207  0.00  0.00    +0.000 A 
BRANCH  22  29
ATOM     28  C   UNL     1      -2.357  13.072  21.405  0.00  0.00    +0.000 C 
ATOM     29  S   UNL     1      -1.713  12.306  22.870  0.00  0.00    +0.000 S 
ATOM     30  O   UNL     1      -0.881  13.278  23.553  0.00  0.00    +0.000 OA
ATOM     31  O   UNL     1      -2.831  11.677  23.551  0.00  0.00    +0.000 OA
ENDBRANCH  22  29
ENDBRANCH  18  25
ENDBRANCH   1  19
TORSDOF 4
ENDMDL
MODEL 3
REMARK VINA RESULT:      -9.5      0.692      1.191
REMARK  Name = 
REMARK  5 active torsions:
REMARK  status: ('A' for Active; 'I' for Inactive)
REMARK    1  A    between atoms: C_1  and  S_2
REMARK    2  A    between atoms: S_2  and  C_5
REMARK    3  A    between atoms: C_8  and  N_9
REMARK    4  A    between atoms: C_10  and  C_12
REMARK    5  A    between atoms: C_14  and  C_15
REMARK                            x       y       z     vdW  Elec       q    Type
REMARK                         _______ _______ _______ _____ _____    ______ ____
ROOT
ATOM      1  C   UNL     1       2.837   6.296  18.858  0.00  0.00    +0.000 A 
ATOM      2  C   UNL     1       3.634   6.273  17.689  0.00  0.00    +0.000 A 
ATOM      3  C   UNL     1       4.189   5.074  17.244  0.00  0.00    +0.000 A 
ATOM      4  N   UNL     1       3.843   3.913  17.844  0.00  0.00    +0.000 NA
ATOM      5  C   UNL     1       2.977   3.907  18.863  0.00  0.00    +0.000 A 
ATOM      6  C   UNL     1       2.505   2.669  19.271  0.00  0.00    +0.000 A 
ATOM      7  C   UNL     1       1.561   2.547  20.289  0.00  0.00    +0.000 A 
ATOM      8  C   UNL     1       1.140   3.678  20.970  0.00  0.00    +0.000 A 
ATOM      9  C   UNL     1       1.605   4.933  20.580  0.00  0.00    +0.000 A 
ATOM     10  C   UNL     1       2.485   5.075  19.478  0.00  0.00    +0.000 A 
ENDROOT
BRANCH   3  11
ATOM     11  C   UNL     1       5.178   4.924  16.130  0.00  0.00    +0.000 A 
ATOM     12  C   UNL     1       4.928   4.167  14.968  0.00  0.00    +0.000 A 
ATOM     13  C   UNL     1       5.857   4.106  13.916  0.00  0.00    +0.000 A 
ATOM     14  C   UNL     1       7.058   4.796  14.004  0.00  0.00    +0.000 A 
ATOM     15  F   UNL     1       7.931   4.746  12.989  0.00  0.00    +0.000 F 
ATOM     16  C   UNL     1       7.357   5.537  15.133  0.00  0.00    +0.000 A 
ATOM     17  C   UNL     1       6.427   5.595  16.182  0.00  0.00    +0.000 A 
ENDBRANCH   3  11
BRANCH   1  19
ATOM     18  N   UNL     1       1.950   7.895  20.559  0.00  0.00    +0.000 N 
ATOM     19  C   UNL     1       2.174   7.593  19.211  0.00  0.00    +0.000 C 
ATOM     20  O   UNL     1       1.889   8.333  18.266  0.00  0.00    +0.000 OA
ATOM     21  H   UNL     1       2.427   7.328  21.249  0.00  0.00    +0.000 HD
BRANCH  18  25
ATOM     22  C   UNL     1      -0.362  11.191  21.988  0.00  0.00    +0.000 A 
ATOM     23  C   UNL     1      -0.306  10.016  22.733  0.00  0.00    +0.000 A 
ATOM     24  C   UNL     1       0.455   8.925  22.271  0.00  0.00    +0.000 A 
ATOM     25  C   UNL     1       1.159   8.977  21.059  0.00  0.00    +0.000 A 
ATOM     26  C   UNL     1       1.094  10.175  20.325  0.00  0.00    +0.000 A 
ATOM     27  C   UNL     1       0.330  11.272  20.777  0.00  0.00    +0.000 A 
BRANCH  22  29
ATOM     28  C   UNL     1      -2.687  11.794  23.489  0.00  0.00    +0.000 C 
ATOM     29  S   UNL     1      -1.382  12.544  22.548  0.00  0.00    +0.000 S 
ATOM     30  O   UNL     1      -1.972  13.147  21.368  0.00  0.00    +0.000 OA
ATOM     31  O   UNL     1      -0.590  13.338  23.472  0.00  0.00    +0.000 OA
ENDBRANCH  22  29
ENDBRANCH  18  25
ENDBRANCH   1  19
TORSDOF 4
ENDMDL
MODEL 4
REMARK VINA RESULT:      -9.1      1.931      2.287
REMARK  Name = 
REMARK  5 active torsions:
REMARK  status: ('A' for Active; 'I' for Inactive)
REMARK    1  A    between atoms: C_1  and  S_2
REMARK    2  A    between atoms: S_2  and  C_5
REMARK    3  A    between atoms: C_8  and  N_9
REMARK    4  A    between atoms: C_10  and  C_12
REMARK    5  A    between atoms: C_14  and  C_15
REMARK                            x       y       z     vdW  Elec       q    Type
REMARK                         _______ _______ _______ _____ _____    ______ ____
ROOT
ATOM      1  C   UNL     1       2.877   5.954  18.599  0.00  0.00    +0.000 A 
ATOM      2  C   UNL     1       3.751   6.034  17.488  0.00  0.00    +0.000 A 
ATOM      3  C   UNL     1       4.218   4.870  16.881  0.00  0.00    +0.000 A 
ATOM      4  N   UNL     1       3.719   3.672  17.259  0.00  0.00    +0.000 NA
ATOM      5  C   UNL     1       2.785   3.595  18.213  0.00  0.00    +0.000 A 
ATOM      6  C   UNL     1       2.167   2.365  18.381  0.00  0.00    +0.000 A 
ATOM      7  C   UNL     1       1.144   2.183  19.310  0.00  0.00    +0.000 A 
ATOM      8  C   UNL     1       0.787   3.228  20.146  0.00  0.00    +0.000 A 
ATOM      9  C   UNL     1       1.397   4.473  19.997  0.00  0.00    +0.000 A 
ATOM     10  C   UNL     1       2.364   4.695  18.986  0.00  0.00    +0.000 A 
ENDROOT
BRANCH   3  11
ATOM     11  C   UNL     1       5.266   4.795  15.815  0.00  0.00    +0.000 A 
ATOM     12  C   UNL     1       5.111   4.055  14.625  0.00  0.00    +0.000 A 
ATOM     13  C   UNL     1       6.092   4.065  13.619  0.00  0.00    +0.000 A 
ATOM     14  C   UNL     1       7.251   4.811  13.782  0.00  0.00    +0.000 A 
ATOM     15  F   UNL     1       8.173   4.828  12.810  0.00  0.00    +0.000 F 
ATOM     16  C   UNL     1       7.457   5.538  14.940  0.00  0.00    +0.000 A 
ATOM     17  C   UNL     1       6.476   5.525  15.943  0.00  0.00    +0.000 A 
ENDBRANCH   3  11
BRANCH   1  19
ATOM     18  N   UNL     1       1.836   8.193  18.219  0.00  0.00    +0.000 N 
ATOM     19  C   UNL     1       2.318   7.242  19.126  0.00  0.00    +0.000 C 
ATOM     20  O   UNL     1       2.298   7.364  20.353  0.00  0.00    +0.000 OA
ATOM     21  H   UNL     1       1.691   7.893  17.263  0.00  0.00    +0.000 HD
BRANCH  18  25
ATOM     22  C   UNL     1       0.623  12.178  19.166  0.00  0.00    +0.000 A 
ATOM     23  C   UNL     1       1.816  11.967  18.481  0.00  0.00    +0.000 A 
ATOM     24  C   UNL     1       2.224  10.657  18.163  0.00  0.00    +0.000 A 
ATOM     25  C   UNL     1       1.462   9.538  18.530  0.00  0.00    +0.000 A 
ATOM     26  C   UNL     1       0.258   9.773  19.216  0.00  0.00    +0.000 A 
ATOM     27  C   UNL     1      -0.157  11.082  19.544  0.00  0.00    +0.000 A 
BRANCH  22  29
ATOM     28  C   UNL     1       0.916  14.131  21.196  0.00  0.00    +0.000 C 
ATOM     29  S   UNL     1       0.148  13.836  19.623  0.00  0.00    +0.000 S 
ATOM     30  O   UNL     1      -1.288  13.827  19.822  0.00  0.00    +0.000 OA
ATOM     31  O   UNL     1       0.760  14.747  18.671  0.00  0.00    +0.000 OA
ENDBRANCH  22  29
ENDBRANCH  18  25
ENDBRANCH   1  19
TORSDOF 4
ENDMDL
MODEL 5
REMARK VINA RESULT:      -9.0      5.091     10.617
REMARK  Name = 
REMARK  5 active torsions:
REMARK  status: ('A' for Active; 'I' for Inactive)
REMARK    1  A    between atoms: C_1  and  S_2
REMARK    2  A    between atoms: S_2  and  C_5
REMARK    3  A    between atoms: C_8  and  N_9
REMARK    4  A    between atoms: C_10  and  C_12
REMARK    5  A    between atoms: C_14  and  C_15
REMARK                            x       y       z     vdW  Elec       q    Type
REMARK                         _______ _______ _______ _____ _____    ______ ____
ROOT
ATOM      1  C   UNL     1      -0.300  10.412  20.250  0.00  0.00    +0.000 A 
ATOM      2  C   UNL     1      -0.595  11.083  21.461  0.00  0.00    +0.000 A 
ATOM      3  C   UNL     1      -1.579  12.070  21.491  0.00  0.00    +0.000 A 
ATOM      4  N   UNL     1      -2.350  12.281  20.402  0.00  0.00    +0.000 NA
ATOM      5  C   UNL     1      -2.174  11.552  19.294  0.00  0.00    +0.000 A 
ATOM      6  C   UNL     1      -3.144  11.671  18.310  0.00  0.00    +0.000 A 
ATOM      7  C   UNL     1      -3.090  10.922  17.137  0.00  0.00    +0.000 A 
ATOM      8  C   UNL     1      -2.001  10.097  16.903  0.00  0.00    +0.000 A 
ATOM      9  C   UNL     1      -1.012   9.963  17.877  0.00  0.00    +0.000 A 
ATOM     10  C   UNL     1      -1.113  10.643  19.116  0.00  0.00    +0.000 A 
ENDROOT
BRANCH   3  11
ATOM     11  C   UNL     1      -1.882  12.971  22.648  0.00  0.00    +0.000 A 
ATOM     12  C   UNL     1      -1.010  13.985  23.091  0.00  0.00    +0.000 A 
ATOM     13  C   UNL     1      -1.362  14.853  24.138  0.00  0.00    +0.000 A 
ATOM     14  C   UNL     1      -2.592  14.723  24.768  0.00  0.00    +0.000 A 
ATOM     15  F   UNL     1      -2.926  15.566  25.755  0.00  0.00    +0.000 F 
ATOM     16  C   UNL     1      -3.474  13.732  24.382  0.00  0.00    +0.000 A 
ATOM     17  C   UNL     1      -3.119  12.866  23.336  0.00  0.00    +0.000 A 
ENDBRANCH   3  11
BRANCH   1  19
ATOM     18  N   UNL     1       1.431   8.969  19.174  0.00  0.00    +0.000 N 
ATOM     19  C   UNL     1       0.680   9.280  20.314  0.00  0.00    +0.000 C 
ATOM     20  O   UNL     1       0.777   8.705  21.401  0.00  0.00    +0.000 OA
ATOM     21  H   UNL     1       1.437   9.645  18.421  0.00  0.00    +0.000 HD
BRANCH  18  25
ATOM     22  C   UNL     1       3.897   5.536  18.551  0.00  0.00    +0.000 A 
ATOM     23  C   UNL     1       3.066   5.593  19.667  0.00  0.00    +0.000 A 
ATOM     24  C   UNL     1       2.249   6.719  19.881  0.00  0.00    +0.000 A 
ATOM     25  C   UNL     1       2.252   7.810  18.998  0.00  0.00    +0.000 A 
ATOM     26  C   UNL     1       3.093   7.730  17.875  0.00  0.00    +0.000 A 
ATOM     27  C   UNL     1       3.919   6.607  17.655  0.00  0.00    +0.000 A 
BRANCH  22  29
ATOM     28  C   UNL     1       4.197   2.792  19.186  0.00  0.00    +0.000 C 
ATOM     29  S   UNL     1       4.977   4.134  18.325  0.00  0.00    +0.000 S 
ATOM     30  O   UNL     1       6.219   4.441  19.008  0.00  0.00    +0.000 OA
ATOM     31  O   UNL     1       4.970   3.797  16.912  0.00  0.00    +0.000 OA
ENDBRANCH  22  29
ENDBRANCH  18  25
ENDBRANCH   1  19
TORSDOF 4
ENDMDL
MODEL 6
REMARK VINA RESULT:      -8.9      5.091     10.577
REMARK  Name = 
REMARK  5 active torsions:
REMARK  status: ('A' for Active; 'I' for Inactive)
REMARK    1  A    between atoms: C_1  and  S_2
REMARK    2  A    between atoms: S_2  and  C_5
REMARK    3  A    between atoms: C_8  and  N_9
REMARK    4  A    between atoms: C_10  and  C_12
REMARK    5  A    between atoms: C_14  and  C_15
REMARK                            x       y       z     vdW  Elec       q    Type
REMARK                         _______ _______ _______ _____ _____    ______ ____
ROOT
ATOM      1  C   UNL     1      -0.329  10.410  20.156  0.00  0.00    +0.000 A 
ATOM      2  C   UNL     1      -0.612  11.066  21.378  0.00  0.00    +0.000 A 
ATOM      3  C   UNL     1      -1.607  12.041  21.434  0.00  0.00    +0.000 A 
ATOM      4  N   UNL     1      -2.399  12.252  20.360  0.00  0.00    +0.000 NA
ATOM      5  C   UNL     1      -2.233  11.536  19.242  0.00  0.00    +0.000 A 
ATOM      6  C   UNL     1      -3.220  11.652  18.276  0.00  0.00    +0.000 A 
ATOM      7  C   UNL     1      -3.177  10.914  17.095  0.00  0.00    +0.000 A 
ATOM      8  C   UNL     1      -2.082  10.105  16.835  0.00  0.00    +0.000 A 
ATOM      9  C   UNL     1      -1.075   9.975  17.791  0.00  0.00    +0.000 A 
ATOM     10  C   UNL     1      -1.164  10.642  19.038  0.00  0.00    +0.000 A 
ENDROOT
BRANCH   3  11
ATOM     11  C   UNL     1      -1.902  12.927  22.604  0.00  0.00    +0.000 A 
ATOM     12  C   UNL     1      -1.011  13.913  23.075  0.00  0.00    +0.000 A 
ATOM     13  C   UNL     1      -1.355  14.769  24.135  0.00  0.00    +0.000 A 
ATOM     14  C   UNL     1      -2.594  14.656  24.750  0.00  0.00    +0.000 A 
ATOM     15  F   UNL     1      -2.919  15.488  25.749  0.00  0.00    +0.000 F 
ATOM     16  C   UNL     1      -3.494  13.692  24.336  0.00  0.00    +0.000 A 
ATOM     17  C   UNL     1      -3.148  12.838  23.278  0.00  0.00    +0.000 A 
ENDBRANCH   3  11
BRANCH   1  19
ATOM     18  N   UNL     1       1.445   9.038  19.058  0.00  0.00    +0.000 N 
ATOM     19  C   UNL     1       0.666   9.290  20.193  0.00  0.00    +0.000 C 
ATOM     20  O   UNL     1       0.749   8.671  21.256  0.00  0.00    +0.000 OA
ATOM     21  H   UNL     1       1.456   9.745  18.334  0.00  0.00    +0.000 HD
BRANCH  18  25
ATOM     22  C   UNL     1       3.942   5.611  18.537  0.00  0.00    +0.000 A 
ATOM     23  C   UNL     1       3.986   6.642  17.602  0.00  0.00    +0.000 A 
ATOM     24  C   UNL     1       3.168   7.777  17.766  0.00  0.00    +0.000 A 
ATOM     25  C   UNL     1       2.286   7.899  18.850  0.00  0.00    +0.000 A 
ATOM     26  C   UNL     1       2.261   6.850  19.785  0.00  0.00    +0.000 A 
ATOM     27  C   UNL     1       3.074   5.706  19.627  0.00  0.00    +0.000 A 
BRANCH  22  29
ATOM     28  C   UNL     1       5.185   4.045  16.531  0.00  0.00    +0.000 C 
ATOM     29  S   UNL     1       4.933   4.149  18.285  0.00  0.00    +0.000 S 
ATOM     30  O   UNL     1       4.125   3.014  18.688  0.00  0.00    +0.000 OA
ATOM     31  O   UNL     1       6.232   4.389  18.889  0.00  0.00    +0.000 OA
ENDBRANCH  22  29
ENDBRANCH  18  25
ENDBRANCH   1  19
TORSDOF 4
ENDMDL
MODEL 7
REMARK VINA RESULT:      -8.9      1.882      2.335
REMARK  Name = 
REMARK  5 active torsions:
REMARK  status: ('A' for Active; 'I' for Inactive)
REMARK    1  A    between atoms: C_1  and  S_2
REMARK    2  A    between atoms: S_2  and  C_5
REMARK    3  A    between atoms: C_8  and  N_9
REMARK    4  A    between atoms: C_10  and  C_12
REMARK    5  A    between atoms: C_14  and  C_15
REMARK                            x       y       z     vdW  Elec       q    Type
REMARK                         _______ _______ _______ _____ _____    ______ ____
ROOT
ATOM      1  C   UNL     1       2.795   6.227  18.857  0.00  0.00    +0.000 A 
ATOM      2  C   UNL     1       3.623   6.297  17.711  0.00  0.00    +0.000 A 
ATOM      3  C   UNL     1       4.139   5.130  17.149  0.00  0.00    +0.000 A 
ATOM      4  N   UNL     1       3.728   3.927  17.610  0.00  0.00    +0.000 NA
ATOM      5  C   UNL     1       2.835   3.848  18.602  0.00  0.00    +0.000 A 
ATOM      6  C   UNL     1       2.299   2.596  18.860  0.00  0.00    +0.000 A 
ATOM      7  C   UNL     1       1.324   2.405  19.836  0.00  0.00    +0.000 A 
ATOM      8  C   UNL     1       0.933   3.472  20.629  0.00  0.00    +0.000 A 
ATOM      9  C   UNL     1       1.460   4.741  20.389  0.00  0.00    +0.000 A 
ATOM     10  C   UNL     1       2.375   4.963  19.331  0.00  0.00    +0.000 A 
ENDROOT
BRANCH   3  11
ATOM     11  C   UNL     1       5.150   5.058  16.048  0.00  0.00    +0.000 A 
ATOM     12  C   UNL     1       6.444   5.608  16.147  0.00  0.00    +0.000 A 
ATOM     13  C   UNL     1       7.387   5.461  15.116  0.00  0.00    +0.000 A 
ATOM     14  C   UNL     1       7.056   4.765  13.962  0.00  0.00    +0.000 A 
ATOM     15  F   UNL     1       7.966   4.616  12.990  0.00  0.00    +0.000 F 
ATOM     16  C   UNL     1       5.793   4.224  13.810  0.00  0.00    +0.000 A 
ATOM     17  C   UNL     1       4.853   4.374  14.841  0.00  0.00    +0.000 A 
ENDBRANCH   3  11
BRANCH   1  19
ATOM     18  N   UNL     1       1.751   8.448  18.392  0.00  0.00    +0.000 N 
ATOM     19  C   UNL     1       2.178   7.507  19.336  0.00  0.00    +0.000 C 
ATOM     20  O   UNL     1       2.063   7.632  20.558  0.00  0.00    +0.000 OA
ATOM     21  H   UNL     1       1.683   8.143  17.429  0.00  0.00    +0.000 HD
BRANCH  18  25
ATOM     22  C   UNL     1       0.405  12.415  19.229  0.00  0.00    +0.000 A 
ATOM     23  C   UNL     1       1.655  12.221  18.647  0.00  0.00    +0.000 A 
ATOM     24  C   UNL     1       2.107  10.917  18.365  0.00  0.00    +0.000 A 
ATOM     25  C   UNL     1       1.332   9.787  18.669  0.00  0.00    +0.000 A 
ATOM     26  C   UNL     1       0.072  10.005  19.251  0.00  0.00    +0.000 A 
ATOM     27  C   UNL     1      -0.388  11.308  19.542  0.00  0.00    +0.000 A 
BRANCH  22  29
ATOM     28  C   UNL     1      -1.705  13.867  20.435  0.00  0.00    +0.000 C 
ATOM     29  S   UNL     1      -0.130  14.066  19.643  0.00  0.00    +0.000 S 
ATOM     30  O   UNL     1      -0.344  14.768  18.392  0.00  0.00    +0.000 OA
ATOM     31  O   UNL     1       0.788  14.589  20.641  0.00  0.00    +0.000 OA
ENDBRANCH  22  29
ENDBRANCH  18  25
ENDBRANCH   1  19
TORSDOF 4
ENDMDL
MODEL 8
REMARK VINA RESULT:      -8.9      1.868      2.504
REMARK  Name = 
REMARK  5 active torsions:
REMARK  status: ('A' for Active; 'I' for Inactive)
REMARK    1  A    between atoms: C_1  and  S_2
REMARK    2  A    between atoms: S_2  and  C_5
REMARK    3  A    between atoms: C_8  and  N_9
REMARK    4  A    between atoms: C_10  and  C_12
REMARK    5  A    between atoms: C_14  and  C_15
REMARK                            x       y       z     vdW  Elec       q    Type
REMARK                         _______ _______ _______ _____ _____    ______ ____
ROOT
ATOM      1  C   UNL     1       2.882   6.030  18.724  0.00  0.00    +0.000 A 
ATOM      2  C   UNL     1       3.717   6.143  17.587  0.00  0.00    +0.000 A 
ATOM      3  C   UNL     1       4.222   4.999  16.973  0.00  0.00    +0.000 A 
ATOM      4  N   UNL     1       3.794   3.780  17.373  0.00  0.00    +0.000 NA
ATOM      5  C   UNL     1       2.894   3.665  18.356  0.00  0.00    +0.000 A 
ATOM      6  C   UNL     1       2.343   2.409  18.551  0.00  0.00    +0.000 A 
ATOM      7  C   UNL     1       1.359   2.184  19.512  0.00  0.00    +0.000 A 
ATOM      8  C   UNL     1       0.976   3.216  20.352  0.00  0.00    +0.000 A 
ATOM      9  C   UNL     1       1.519   4.489  20.176  0.00  0.00    +0.000 A 
ATOM     10  C   UNL     1       2.444   4.749  19.134  0.00  0.00    +0.000 A 
ENDROOT
BRANCH   3  11
ATOM     11  C   UNL     1       5.239   4.967  15.876  0.00  0.00    +0.000 A 
ATOM     12  C   UNL     1       6.515   5.557  15.983  0.00  0.00    +0.000 A 
ATOM     13  C   UNL     1       7.466   5.447  14.955  0.00  0.00    +0.000 A 
ATOM     14  C   UNL     1       7.160   4.750  13.794  0.00  0.00    +0.000 A 
ATOM     15  F   UNL     1       8.079   4.637  12.824  0.00  0.00    +0.000 F 
ATOM     16  C   UNL     1       5.915   4.170  13.633  0.00  0.00    +0.000 A 
ATOM     17  C   UNL     1       4.968   4.282  14.662  0.00  0.00    +0.000 A 
ENDBRANCH   3  11
BRANCH   1  19
ATOM     18  N   UNL     1       1.812   8.257  18.358  0.00  0.00    +0.000 N 
ATOM     19  C   UNL     1       2.276   7.292  19.260  0.00  0.00    +0.000 C 
ATOM     20  O   UNL     1       2.206   7.383  20.488  0.00  0.00    +0.000 OA
ATOM     21  H   UNL     1       1.711   7.979  17.390  0.00  0.00    +0.000 HD
BRANCH  18  25
ATOM     22  C   UNL     1       0.671  12.260  19.317  0.00  0.00    +0.000 A 
ATOM     23  C   UNL     1      -0.103  11.197  19.772  0.00  0.00    +0.000 A 
ATOM     24  C   UNL     1       0.265   9.873  19.463  0.00  0.00    +0.000 A 
ATOM     25  C   UNL     1       1.398   9.586  18.688  0.00  0.00    +0.000 A 
ATOM     26  C   UNL     1       2.170  10.674  18.243  0.00  0.00    +0.000 A 
ATOM     27  C   UNL     1       1.805  12.004  18.543  0.00  0.00    +0.000 A 
BRANCH  22  29
ATOM     28  C   UNL     1       0.894  14.345  21.220  0.00  0.00    +0.000 C 
ATOM     29  S   UNL     1       0.158  13.935  19.658  0.00  0.00    +0.000 S 
ATOM     30  O   UNL     1      -1.281  13.911  19.834  0.00  0.00    +0.000 OA
ATOM     31  O   UNL     1       0.770  14.794  18.659  0.00  0.00    +0.000 OA
ENDBRANCH  22  29
ENDBRANCH  18  25
ENDBRANCH   1  19
TORSDOF 4
ENDMDL
MODEL 9
REMARK VINA RESULT:      -8.9      5.074     10.565
REMARK  Name = 
REMARK  5 active torsions:
REMARK  status: ('A' for Active; 'I' for Inactive)
REMARK    1  A    between atoms: C_1  and  S_2
REMARK    2  A    between atoms: S_2  and  C_5
REMARK    3  A    between atoms: C_8  and  N_9
REMARK    4  A    between atoms: C_10  and  C_12
REMARK    5  A    between atoms: C_14  and  C_15
REMARK                            x       y       z     vdW  Elec       q    Type
REMARK                         _______ _______ _______ _____ _____    ______ ____
ROOT
ATOM      1  C   UNL     1      -0.308  10.504  20.047  0.00  0.00    +0.000 A 
ATOM      2  C   UNL     1      -0.605  11.178  21.256  0.00  0.00    +0.000 A 
ATOM      3  C   UNL     1      -1.652  12.097  21.305  0.00  0.00    +0.000 A 
ATOM      4  N   UNL     1      -2.475  12.231  20.241  0.00  0.00    +0.000 NA
ATOM      5  C   UNL     1      -2.289  11.494  19.141  0.00  0.00    +0.000 A 
ATOM      6  C   UNL     1      -3.299  11.525  18.192  0.00  0.00    +0.000 A 
ATOM      7  C   UNL     1      -3.236  10.757  17.031  0.00  0.00    +0.000 A 
ATOM      8  C   UNL     1      -2.103  10.004  16.772  0.00  0.00    +0.000 A 
ATOM      9  C   UNL     1      -1.072   9.958  17.711  0.00  0.00    +0.000 A 
ATOM     10  C   UNL     1      -1.175  10.655  18.940  0.00  0.00    +0.000 A 
ENDROOT
BRANCH   3  11
ATOM     11  C   UNL     1      -1.975  12.999  22.455  0.00  0.00    +0.000 A 
ATOM     12  C   UNL     1      -3.218  12.993  23.119  0.00  0.00    +0.000 A 
ATOM     13  C   UNL     1      -3.458  13.809  24.238  0.00  0.00    +0.000 A 
ATOM     14  C   UNL     1      -2.463  14.652  24.713  0.00  0.00    +0.000 A 
ATOM     15  F   UNL     1      -2.696  15.414  25.790  0.00  0.00    +0.000 F 
ATOM     16  C   UNL     1      -1.234  14.707  24.083  0.00  0.00    +0.000 A 
ATOM     17  C   UNL     1      -0.997  13.891  22.966  0.00  0.00    +0.000 A 
ENDBRANCH   3  11
BRANCH   1  19
ATOM     18  N   UNL     1       1.401   9.080  18.910  0.00  0.00    +0.000 N 
ATOM     19  C   UNL     1       0.750   9.443  20.095  0.00  0.00    +0.000 C 
ATOM     20  O   UNL     1       0.996   8.970  21.207  0.00  0.00    +0.000 OA
ATOM     21  H   UNL     1       1.283   9.688  18.109  0.00  0.00    +0.000 HD
BRANCH  18  25
ATOM     22  C   UNL     1       4.037   5.773  18.304  0.00  0.00    +0.000 A 
ATOM     23  C   UNL     1       3.150   5.759  19.378  0.00  0.00    +0.000 A 
ATOM     24  C   UNL     1       2.276   6.843  19.585  0.00  0.00    +0.000 A 
ATOM     25  C   UNL     1       2.278   7.963  18.739  0.00  0.00    +0.000 A 
ATOM     26  C   UNL     1       3.176   7.955  17.658  0.00  0.00    +0.000 A 
ATOM     27  C   UNL     1       4.059   6.874  17.445  0.00  0.00    +0.000 A 
BRANCH  22  29
ATOM     28  C   UNL     1       6.364   4.995  16.891  0.00  0.00    +0.000 C 
ATOM     29  S   UNL     1       5.185   4.425  18.089  0.00  0.00    +0.000 S 
ATOM     30  O   UNL     1       4.444   3.327  17.500  0.00  0.00    +0.000 OA
ATOM     31  O   UNL     1       5.899   4.252  19.342  0.00  0.00    +0.000 OA
ENDBRANCH  22  29
ENDBRANCH  18  25
ENDBRANCH   1  19
TORSDOF 4
ENDMDL
