MODEL 1
REMARK VINA RESULT:     -10.0      0.000      0.000
REMARK  Name = 
REMARK  7 active torsions:
REMARK  status: ('A' for Active; 'I' for Inactive)
REMARK    1  A    between atoms: C_2  and  C_14
REMARK    2  A    between atoms: N_3  and  C_4
REMARK    3  A    between atoms: C_8  and  C_9
REMARK    4  A    between atoms: C_18  and  N_19
REMARK    5  A    between atoms: C_20  and  C_22
REMARK    6  A    between atoms: N_27  and  C_28
REMARK    7  A    between atoms: C_28  and  C_29
REMARK                            x       y       z     vdW  Elec       q    Type
REMARK                         _______ _______ _______ _____ _____    ______ ____
ROOT
ATOM      1  C   UNL     1       3.656   4.353  19.296  0.00  0.00    +0.000 A 
ATOM      2  C   UNL     1       3.094   3.127  19.678  0.00  0.00    +0.000 A 
ATOM      3  C   UNL     1       1.977   3.097  20.494  0.00  0.00    +0.000 A 
ATOM      4  C   UNL     1       1.421   4.293  20.939  0.00  0.00    +0.000 A 
ATOM      5  C   UNL     1       1.970   5.536  20.589  0.00  0.00    +0.000 A 
ATOM      6  C   UNL     1       3.097   5.563  19.747  0.00  0.00    +0.000 A 
ENDROOT
BRANCH   1   8
ATOM      7  O   UNL     1       5.909   4.117  18.843  0.00  0.00    +0.000 OA
ATOM      8  C   UNL     1       4.797   4.262  18.347  0.00  0.00    +0.000 C 
ATOM      9  N   UNL     1       4.518   4.436  17.000  0.00  0.00    +0.000 N 
ATOM     10  H   UNL     1       3.577   4.704  16.746  0.00  0.00    +0.000 HD
BRANCH   9  11
ATOM     11  C   UNL     1       5.501   4.502  15.976  0.00  0.00    +0.000 A 
ATOM     12  C   UNL     1       6.738   5.133  16.145  0.00  0.00    +0.000 A 
ATOM     13  C   UNL     1       7.646   5.243  15.092  0.00  0.00    +0.000 A 
ATOM     14  C   UNL     1       7.338   4.701  13.850  0.00  0.00    +0.000 A 
ATOM     15  C   UNL     1       6.124   4.027  13.657  0.00  0.00    +0.000 A 
ATOM     16  C   UNL     1       5.212   3.930  14.730  0.00  0.00    +0.000 A 
BRANCH  15  17
ATOM     17  C   UNL     1       5.797   3.422  12.315  0.00  0.00    +0.000 C 
ATOM     18  F   UNL     1       5.996   2.075  12.258  0.00  0.00    +0.000 F 
ATOM     19  F   UNL     1       4.497   3.621  11.961  0.00  0.00    +0.000 F 
ATOM     20  F   UNL     1       6.543   3.951  11.307  0.00  0.00    +0.000 F 
ENDBRANCH  15  17
ENDBRANCH   9  11
ENDBRANCH   1   8
BRANCH   5  21
ATOM     21  N   UNL     1       1.422   6.758  21.058  0.00  0.00    +0.000 N 
ATOM     22  C   UNL     1       1.475   7.975  20.393  0.00  0.00    +0.000 C 
ATOM     23  O   UNL     1       2.014   8.216  19.321  0.00  0.00    +0.000 OA
ATOM     24  H   UNL     1       0.924   6.766  21.944  0.00  0.00    +0.000 HD
BRANCH  22  25
ATOM     25  C   UNL     1       0.747   9.132  21.073  0.00  0.00    +0.000 A 
ATOM     26  C   UNL     1       0.313   8.871  22.463  0.00  0.00    +0.000 A 
ATOM     27  C   UNL     1      -0.307   9.855  23.107  0.00  0.00    +0.000 A 
ATOM     28  C   UNL     1      -0.563  11.143  22.437  0.00  0.00    +0.000 A 
ATOM     29  O   UNL     1      -1.150  12.022  23.064  0.00  0.00    +0.000 OA
ATOM     30  N   UNL     1      -0.120  11.251  21.121  0.00  0.00    +0.000 N 
ATOM     31  N   UNL     1       0.554  10.243  20.428  0.00  0.00    +0.000 NA
BRANCH  30  32
ATOM     32  C   UNL     1      -0.495  12.439  20.363  0.00  0.00    +0.000 C 
BRANCH  32  33
ATOM     33  C   UNL     1      -1.702  12.176  19.491  0.00  0.00    +0.000 A 
ATOM     34  C   UNL     1      -2.999  12.390  19.980  0.00  0.00    +0.000 A 
ATOM     35  C   UNL     1      -4.111  12.104  19.187  0.00  0.00    +0.000 A 
ATOM     36  C   UNL     1      -3.938  11.596  17.901  0.00  0.00    +0.000 A 
ATOM     37  C   UNL     1      -2.655  11.371  17.408  0.00  0.00    +0.000 A 
ATOM     38  C   UNL     1      -1.542  11.656  18.199  0.00  0.00    +0.000 A 
ENDBRANCH  32  33
ENDBRANCH  30  32
ENDBRANCH  22  25
ENDBRANCH   5  21
TORSDOF 7
ENDMDL
MODEL 2
REMARK VINA RESULT:      -9.7      4.820     10.380
REMARK  Name = 
REMARK  7 active torsions:
REMARK  status: ('A' for Active; 'I' for Inactive)
REMARK    1  A    between atoms: C_2  and  C_14
REMARK    2  A    between atoms: N_3  and  C_4
REMARK    3  A    between atoms: C_8  and  C_9
REMARK    4  A    between atoms: C_18  and  N_19
REMARK    5  A    between atoms: C_20  and  C_22
REMARK    6  A    between atoms: N_27  and  C_28
REMARK    7  A    between atoms: C_28  and  C_29
REMARK                            x       y       z     vdW  Elec       q    Type
REMARK                         _______ _______ _______ _____ _____    ______ ____
ROOT
ATOM      1  C   UNL     1      -0.028  11.218  20.849  0.00  0.00    +0.000 A 
ATOM      2  C   UNL     1      -0.557  11.405  22.133  0.00  0.00    +0.000 A 
ATOM      3  C   UNL     1      -0.478  10.393  23.073  0.00  0.00    +0.000 A 
ATOM      4  C   UNL     1       0.126   9.186  22.732  0.00  0.00    +0.000 A 
ATOM      5  C   UNL     1       0.650   8.962  21.450  0.00  0.00    +0.000 A 
ATOM      6  C   UNL     1       0.579   9.998  20.501  0.00  0.00    +0.000 A 
ENDROOT
BRANCH   1   8
ATOM      7  O   UNL     1      -0.396  12.191  18.786  0.00  0.00    +0.000 OA
ATOM      8  C   UNL     1      -0.092  12.405  19.955  0.00  0.00    +0.000 C 
ATOM      9  N   UNL     1       0.278  13.627  20.495  0.00  0.00    +0.000 N 
ATOM     10  H   UNL     1       0.657  13.631  21.432  0.00  0.00    +0.000 HD
BRANCH   9  11
ATOM     11  C   UNL     1       0.393  14.833  19.753  0.00  0.00    +0.000 A 
ATOM     12  C   UNL     1      -0.654  15.752  19.625  0.00  0.00    +0.000 A 
ATOM     13  C   UNL     1      -0.527  16.889  18.825  0.00  0.00    +0.000 A 
ATOM     14  C   UNL     1       0.664  17.136  18.153  0.00  0.00    +0.000 A 
ATOM     15  C   UNL     1       1.747  16.256  18.292  0.00  0.00    +0.000 A 
ATOM     16  C   UNL     1       1.602  15.106  19.099  0.00  0.00    +0.000 A 
BRANCH  15  17
ATOM     17  C   UNL     1       3.046  16.533  17.579  0.00  0.00    +0.000 C 
ATOM     18  F   UNL     1       4.021  17.033  18.390  0.00  0.00    +0.000 F 
ATOM     19  F   UNL     1       3.575  15.413  17.011  0.00  0.00    +0.000 F 
ATOM     20  F   UNL     1       2.906  17.433  16.567  0.00  0.00    +0.000 F 
ENDBRANCH  15  17
ENDBRANCH   9  11
ENDBRANCH   1   8
BRANCH   5  21
ATOM     21  N   UNL     1       1.245   7.725  21.088  0.00  0.00    +0.000 N 
ATOM     22  C   UNL     1       1.913   7.469  19.899  0.00  0.00    +0.000 C 
ATOM     23  O   UNL     1       2.083   8.233  18.959  0.00  0.00    +0.000 OA
ATOM     24  H   UNL     1       1.212   6.952  21.746  0.00  0.00    +0.000 HD
BRANCH  22  25
ATOM     25  C   UNL     1       2.530   6.077  19.774  0.00  0.00    +0.000 A 
ATOM     26  C   UNL     1       2.081   5.098  20.789  0.00  0.00    +0.000 A 
ATOM     27  C   UNL     1       2.573   3.865  20.711  0.00  0.00    +0.000 A 
ATOM     28  C   UNL     1       3.544   3.512  19.660  0.00  0.00    +0.000 A 
ATOM     29  O   UNL     1       3.983   2.365  19.631  0.00  0.00    +0.000 OA
ATOM     30  N   UNL     1       3.897   4.532  18.780  0.00  0.00    +0.000 N 
ATOM     31  N   UNL     1       3.379   5.829  18.823  0.00  0.00    +0.000 NA
BRANCH  30  32
ATOM     32  C   UNL     1       4.975   4.281  17.830  0.00  0.00    +0.000 C 
BRANCH  32  33
ATOM     33  C   UNL     1       6.090   5.290  17.985  0.00  0.00    +0.000 A 
ATOM     34  C   UNL     1       6.977   5.215  19.069  0.00  0.00    +0.000 A 
ATOM     35  C   UNL     1       7.978   6.174  19.232  0.00  0.00    +0.000 A 
ATOM     36  C   UNL     1       8.098   7.220  18.319  0.00  0.00    +0.000 A 
ATOM     37  C   UNL     1       7.216   7.310  17.244  0.00  0.00    +0.000 A 
ATOM     38  C   UNL     1       6.215   6.352  17.079  0.00  0.00    +0.000 A 
ENDBRANCH  32  33
ENDBRANCH  30  32
ENDBRANCH  22  25
ENDBRANCH   5  21
TORSDOF 7
ENDMDL
MODEL 3
REMARK VINA RESULT:      -9.7      4.729     10.412
REMARK  Name = 
REMARK  7 active torsions:
REMARK  status: ('A' for Active; 'I' for Inactive)
REMARK    1  A    between atoms: C_2  and  C_14
REMARK    2  A    between atoms: N_3  and  C_4
REMARK    3  A    between atoms: C_8  and  C_9
REMARK    4  A    between atoms: C_18  and  N_19
REMARK    5  A    between atoms: C_20  and  C_22
REMARK    6  A    between atoms: N_27  and  C_28
REMARK    7  A    between atoms: C_28  and  C_29
REMARK                            x       y       z     vdW  Elec       q    Type
REMARK                         _______ _______ _______ _____ _____    ______ ____
ROOT
ATOM      1  C   UNL     1       0.049  11.178  20.779  0.00  0.00    +0.000 A 
ATOM      2  C   UNL     1      -0.561  11.378  22.025  0.00  0.00    +0.000 A 
ATOM      3  C   UNL     1      -0.539  10.377  22.980  0.00  0.00    +0.000 A 
ATOM      4  C   UNL     1       0.089   9.169  22.692  0.00  0.00    +0.000 A 
ATOM      5  C   UNL     1       0.694   8.931  21.449  0.00  0.00    +0.000 A 
ATOM      6  C   UNL     1       0.681   9.956  20.485  0.00  0.00    +0.000 A 
ENDROOT
BRANCH   1   8
ATOM      7  O   UNL     1      -0.050  12.114  18.669  0.00  0.00    +0.000 OA
ATOM      8  C   UNL     1       0.038  12.354  19.869  0.00  0.00    +0.000 C 
ATOM      9  N   UNL     1       0.215  13.603  20.443  0.00  0.00    +0.000 N 
ATOM     10  H   UNL     1       0.432  13.640  21.431  0.00  0.00    +0.000 HD
BRANCH   9  11
ATOM     11  C   UNL     1       0.353  14.813  19.712  0.00  0.00    +0.000 A 
ATOM     12  C   UNL     1      -0.681  15.745  19.575  0.00  0.00    +0.000 A 
ATOM     13  C   UNL     1      -0.530  16.886  18.786  0.00  0.00    +0.000 A 
ATOM     14  C   UNL     1       0.673  17.125  18.134  0.00  0.00    +0.000 A 
ATOM     15  C   UNL     1       1.744  16.232  18.281  0.00  0.00    +0.000 A 
ATOM     16  C   UNL     1       1.574  15.078  19.078  0.00  0.00    +0.000 A 
BRANCH  15  17
ATOM     17  C   UNL     1       3.057  16.500  17.590  0.00  0.00    +0.000 C 
ATOM     18  F   UNL     1       3.689  15.373  17.157  0.00  0.00    +0.000 F 
ATOM     19  F   UNL     1       2.910  17.289  16.489  0.00  0.00    +0.000 F 
ATOM     20  F   UNL     1       3.949  17.143  18.393  0.00  0.00    +0.000 F 
ENDBRANCH  15  17
ENDBRANCH   9  11
ENDBRANCH   1   8
BRANCH   5  21
ATOM     21  N   UNL     1       1.314   7.692  21.140  0.00  0.00    +0.000 N 
ATOM     22  C   UNL     1       1.995   7.401  19.966  0.00  0.00    +0.000 C 
ATOM     23  O   UNL     1       2.156   8.131  18.997  0.00  0.00    +0.000 OA
ATOM     24  H   UNL     1       1.292   6.945  21.828  0.00  0.00    +0.000 HD
BRANCH  22  25
ATOM     25  C   UNL     1       2.638   6.018  19.901  0.00  0.00    +0.000 A 
ATOM     26  C   UNL     1       1.814   4.916  20.444  0.00  0.00    +0.000 A 
ATOM     27  C   UNL     1       2.320   3.687  20.391  0.00  0.00    +0.000 A 
ATOM     28  C   UNL     1       3.663   3.455  19.829  0.00  0.00    +0.000 A 
ATOM     29  O   UNL     1       4.098   2.307  19.810  0.00  0.00    +0.000 OA
ATOM     30  N   UNL     1       4.340   4.582  19.370  0.00  0.00    +0.000 N 
ATOM     31  N   UNL     1       3.824   5.880  19.391  0.00  0.00    +0.000 NA
BRANCH  30  32
ATOM     32  C   UNL     1       5.733   4.430  18.961  0.00  0.00    +0.000 C 
BRANCH  32  33
ATOM     33  C   UNL     1       5.878   4.528  17.459  0.00  0.00    +0.000 A 
ATOM     34  C   UNL     1       4.856   4.078  16.610  0.00  0.00    +0.000 A 
ATOM     35  C   UNL     1       5.011   4.129  15.225  0.00  0.00    +0.000 A 
ATOM     36  C   UNL     1       6.192   4.625  14.674  0.00  0.00    +0.000 A 
ATOM     37  C   UNL     1       7.217   5.067  15.507  0.00  0.00    +0.000 A 
ATOM     38  C   UNL     1       7.064   5.015  16.893  0.00  0.00    +0.000 A 
ENDBRANCH  32  33
ENDBRANCH  30  32
ENDBRANCH  22  25
ENDBRANCH   5  21
TORSDOF 7
ENDMDL
MODEL 4
REMARK VINA RESULT:      -9.6      0.886      1.111
REMARK  Name = 
REMARK  7 active torsions:
REMARK  status: ('A' for Active; 'I' for Inactive)
REMARK    1  A    between atoms: C_2  and  C_14
REMARK    2  A    between atoms: N_3  and  C_4
REMARK    3  A    between atoms: C_8  and  C_9
REMARK    4  A    between atoms: C_18  and  N_19
REMARK    5  A    between atoms: C_20  and  C_22
REMARK    6  A    between atoms: N_27  and  C_28
REMARK    7  A    between atoms: C_28  and  C_29
REMARK                            x       y       z     vdW  Elec       q    Type
REMARK                         _______ _______ _______ _____ _____    ______ ____
ROOT
ATOM      1  C   UNL     1       3.575   3.810  18.870  0.00  0.00    +0.000 A 
ATOM      2  C   UNL     1       3.467   2.701  19.720  0.00  0.00    +0.000 A 
ATOM      3  C   UNL     1       2.778   2.805  20.916  0.00  0.00    +0.000 A 
ATOM      4  C   UNL     1       2.199   4.020  21.270  0.00  0.00    +0.000 A 
ATOM      5  C   UNL     1       2.304   5.153  20.449  0.00  0.00    +0.000 A 
ATOM      6  C   UNL     1       2.993   5.040  19.228  0.00  0.00    +0.000 A 
ENDROOT
BRANCH   1   8
ATOM      7  O   UNL     1       4.354   2.381  17.230  0.00  0.00    +0.000 OA
ATOM      8  C   UNL     1       4.260   3.555  17.575  0.00  0.00    +0.000 C 
ATOM      9  N   UNL     1       4.806   4.647  16.918  0.00  0.00    +0.000 N 
ATOM     10  H   UNL     1       4.789   5.538  17.395  0.00  0.00    +0.000 HD
BRANCH   9  11
ATOM     11  C   UNL     1       5.596   4.566  15.740  0.00  0.00    +0.000 A 
ATOM     12  C   UNL     1       6.897   5.074  15.658  0.00  0.00    +0.000 A 
ATOM     13  C   UNL     1       7.613   5.043  14.460  0.00  0.00    +0.000 A 
ATOM     14  C   UNL     1       7.043   4.481  13.324  0.00  0.00    +0.000 A 
ATOM     15  C   UNL     1       5.757   3.927  13.383  0.00  0.00    +0.000 A 
ATOM     16  C   UNL     1       5.041   3.971  14.599  0.00  0.00    +0.000 A 
BRANCH  15  17
ATOM     17  C   UNL     1       5.145   3.299  12.156  0.00  0.00    +0.000 C 
ATOM     18  F   UNL     1       5.360   4.008  11.012  0.00  0.00    +0.000 F 
ATOM     19  F   UNL     1       5.633   2.050  11.915  0.00  0.00    +0.000 F 
ATOM     20  F   UNL     1       3.795   3.158  12.259  0.00  0.00    +0.000 F 
ENDBRANCH  15  17
ENDBRANCH   9  11
ENDBRANCH   1   8
BRANCH   5  21
ATOM     21  N   UNL     1       1.737   6.401  20.816  0.00  0.00    +0.000 N 
ATOM     22  C   UNL     1       1.816   7.572  20.075  0.00  0.00    +0.000 C 
ATOM     23  O   UNL     1       2.398   7.744  19.013  0.00  0.00    +0.000 OA
ATOM     24  H   UNL     1       1.204   6.465  21.678  0.00  0.00    +0.000 HD
BRANCH  22  25
ATOM     25  C   UNL     1       1.061   8.769  20.648  0.00  0.00    +0.000 A 
ATOM     26  C   UNL     1       0.710   8.662  22.082  0.00  0.00    +0.000 A 
ATOM     27  C   UNL     1       0.069   9.688  22.634  0.00  0.00    +0.000 A 
ATOM     28  C   UNL     1      -0.288  10.869  21.828  0.00  0.00    +0.000 A 
ATOM     29  O   UNL     1      -0.891  11.789  22.375  0.00  0.00    +0.000 OA
ATOM     30  N   UNL     1       0.084  10.834  20.487  0.00  0.00    +0.000 N 
ATOM     31  N   UNL     1       0.777   9.780  19.885  0.00  0.00    +0.000 NA
BRANCH  30  32
ATOM     32  C   UNL     1      -0.392  11.899  19.611  0.00  0.00    +0.000 C 
BRANCH  32  33
ATOM     33  C   UNL     1      -1.684  11.513  18.928  0.00  0.00    +0.000 A 
ATOM     34  C   UNL     1      -2.892  12.136  19.276  0.00  0.00    +0.000 A 
ATOM     35  C   UNL     1      -4.089  11.747  18.675  0.00  0.00    +0.000 A 
ATOM     36  C   UNL     1      -4.093  10.727  17.726  0.00  0.00    +0.000 A 
ATOM     37  C   UNL     1      -2.901  10.094  17.378  0.00  0.00    +0.000 A 
ATOM     38  C   UNL     1      -1.703  10.482  17.978  0.00  0.00    +0.000 A 
ENDBRANCH  32  33
ENDBRANCH  30  32
ENDBRANCH  22  25
ENDBRANCH   5  21
TORSDOF 7
ENDMDL
MODEL 5
REMARK VINA RESULT:      -9.6      4.812     10.274
REMARK  Name = 
REMARK  7 active torsions:
REMARK  status: ('A' for Active; 'I' for Inactive)
REMARK    1  A    between atoms: C_2  and  C_14
REMARK    2  A    between atoms: N_3  and  C_4
REMARK    3  A    between atoms: C_8  and  C_9
REMARK    4  A    between atoms: C_18  and  N_19
REMARK    5  A    between atoms: C_20  and  C_22
REMARK    6  A    between atoms: N_27  and  C_28
REMARK    7  A    between atoms: C_28  and  C_29
REMARK                            x       y       z     vdW  Elec       q    Type
REMARK                         _______ _______ _______ _____ _____    ______ ____
ROOT
ATOM      1  C   UNL     1       0.508  10.748  20.260  0.00  0.00    +0.000 A 
ATOM      2  C   UNL     1      -0.055  10.428  21.503  0.00  0.00    +0.000 A 
ATOM      3  C   UNL     1       0.141   9.174  22.055  0.00  0.00    +0.000 A 
ATOM      4  C   UNL     1       0.896   8.232  21.363  0.00  0.00    +0.000 A 
ATOM      5  C   UNL     1       1.459   8.515  20.110  0.00  0.00    +0.000 A 
ATOM      6  C   UNL     1       1.269   9.795  19.558  0.00  0.00    +0.000 A 
ENDROOT
BRANCH   1   8
ATOM      7  O   UNL     1      -0.533  12.326  18.931  0.00  0.00    +0.000 OA
ATOM      8  C   UNL     1       0.305  12.150  19.811  0.00  0.00    +0.000 C 
ATOM      9  N   UNL     1       1.132  13.119  20.357  0.00  0.00    +0.000 N 
ATOM     10  H   UNL     1       1.885  12.809  20.958  0.00  0.00    +0.000 HD
BRANCH   9  11
ATOM     11  C   UNL     1       1.156  14.480  19.952  0.00  0.00    +0.000 A 
ATOM     12  C   UNL     1       0.273  15.442  20.453  0.00  0.00    +0.000 A 
ATOM     13  C   UNL     1       0.278  16.752  19.974  0.00  0.00    +0.000 A 
ATOM     14  C   UNL     1       1.188  17.130  18.993  0.00  0.00    +0.000 A 
ATOM     15  C   UNL     1       2.114  16.201  18.497  0.00  0.00    +0.000 A 
ATOM     16  C   UNL     1       2.092  14.877  18.987  0.00  0.00    +0.000 A 
BRANCH  15  17
ATOM     17  C   UNL     1       3.115  16.614  17.448  0.00  0.00    +0.000 C 
ATOM     18  F   UNL     1       3.489  15.599  16.618  0.00  0.00    +0.000 F 
ATOM     19  F   UNL     1       2.637  17.599  16.636  0.00  0.00    +0.000 F 
ATOM     20  F   UNL     1       4.267  17.100  17.986  0.00  0.00    +0.000 F 
ENDBRANCH  15  17
ENDBRANCH   9  11
ENDBRANCH   1   8
BRANCH   5  21
ATOM     21  N   UNL     1       2.210   7.550  19.388  0.00  0.00    +0.000 N 
ATOM     22  C   UNL     1       2.682   7.700  18.092  0.00  0.00    +0.000 C 
ATOM     23  O   UNL     1       2.518   8.654  17.345  0.00  0.00    +0.000 OA
ATOM     24  H   UNL     1       2.454   6.676  19.844  0.00  0.00    +0.000 HD
BRANCH  22  25
ATOM     25  C   UNL     1       3.528   6.545  17.560  0.00  0.00    +0.000 A 
ATOM     26  C   UNL     1       4.586   6.933  16.600  0.00  0.00    +0.000 A 
ATOM     27  C   UNL     1       5.365   5.966  16.123  0.00  0.00    +0.000 A 
ATOM     28  C   UNL     1       5.153   4.565  16.530  0.00  0.00    +0.000 A 
ATOM     29  O   UNL     1       5.886   3.701  16.056  0.00  0.00    +0.000 OA
ATOM     30  N   UNL     1       4.110   4.335  17.424  0.00  0.00    +0.000 N 
ATOM     31  N   UNL     1       3.292   5.333  17.959  0.00  0.00    +0.000 NA
BRANCH  30  32
ATOM     32  C   UNL     1       3.753   2.953  17.726  0.00  0.00    +0.000 C 
BRANCH  32  33
ATOM     33  C   UNL     1       2.890   2.867  18.964  0.00  0.00    +0.000 A 
ATOM     34  C   UNL     1       1.496   3.001  18.875  0.00  0.00    +0.000 A 
ATOM     35  C   UNL     1       0.706   2.964  20.024  0.00  0.00    +0.000 A 
ATOM     36  C   UNL     1       1.301   2.799  21.274  0.00  0.00    +0.000 A 
ATOM     37  C   UNL     1       2.685   2.674  21.376  0.00  0.00    +0.000 A 
ATOM     38  C   UNL     1       3.477   2.711  20.227  0.00  0.00    +0.000 A 
ENDBRANCH  32  33
ENDBRANCH  30  32
ENDBRANCH  22  25
ENDBRANCH   5  21
TORSDOF 7
ENDMDL
MODEL 6
REMARK VINA RESULT:      -9.5      3.452      5.792
REMARK  Name = 
REMARK  7 active torsions:
REMARK  status: ('A' for Active; 'I' for Inactive)
REMARK    1  A    between atoms: C_2  and  C_14
REMARK    2  A    between atoms: N_3  and  C_4
REMARK    3  A    between atoms: C_8  and  C_9
REMARK    4  A    between atoms: C_18  and  N_19
REMARK    5  A    between atoms: C_20  and  C_22
REMARK    6  A    between atoms: N_27  and  C_28
REMARK    7  A    between atoms: C_28  and  C_29
REMARK                            x       y       z     vdW  Elec       q    Type
REMARK                         _______ _______ _______ _____ _____    ______ ____
ROOT
ATOM      1  C   UNL     1       1.096   9.756  19.364  0.00  0.00    +0.000 A 
ATOM      2  C   UNL     1       1.808  10.756  18.687  0.00  0.00    +0.000 A 
ATOM      3  C   UNL     1       1.376  12.070  18.730  0.00  0.00    +0.000 A 
ATOM      4  C   UNL     1       0.226  12.389  19.446  0.00  0.00    +0.000 A 
ATOM      5  C   UNL     1      -0.519  11.409  20.121  0.00  0.00    +0.000 A 
ATOM      6  C   UNL     1      -0.069  10.077  20.085  0.00  0.00    +0.000 A 
ENDROOT
BRANCH   1   8
ATOM      7  O   UNL     1       1.829   7.822  20.394  0.00  0.00    +0.000 OA
ATOM      8  C   UNL     1       1.704   8.400  19.319  0.00  0.00    +0.000 C 
ATOM      9  N   UNL     1       2.155   7.946  18.089  0.00  0.00    +0.000 N 
ATOM     10  H   UNL     1       2.129   8.593  17.312  0.00  0.00    +0.000 HD
BRANCH   9  11
ATOM     11  C   UNL     1       2.868   6.734  17.890  0.00  0.00    +0.000 A 
ATOM     12  C   UNL     1       4.179   6.691  17.405  0.00  0.00    +0.000 A 
ATOM     13  C   UNL     1       4.819   5.477  17.151  0.00  0.00    +0.000 A 
ATOM     14  C   UNL     1       4.161   4.279  17.400  0.00  0.00    +0.000 A 
ATOM     15  C   UNL     1       2.860   4.286  17.924  0.00  0.00    +0.000 A 
ATOM     16  C   UNL     1       2.222   5.522  18.169  0.00  0.00    +0.000 A 
BRANCH  15  17
ATOM     17  C   UNL     1       2.152   2.987  18.213  0.00  0.00    +0.000 C 
ATOM     18  F   UNL     1       0.793   3.075  18.142  0.00  0.00    +0.000 F 
ATOM     19  F   UNL     1       2.505   1.999  17.344  0.00  0.00    +0.000 F 
ATOM     20  F   UNL     1       2.429   2.505  19.456  0.00  0.00    +0.000 F 
ENDBRANCH  15  17
ENDBRANCH   9  11
ENDBRANCH   1   8
BRANCH   5  21
ATOM     21  N   UNL     1      -1.706  11.725  20.832  0.00  0.00    +0.000 N 
ATOM     22  C   UNL     1      -1.772  12.094  22.168  0.00  0.00    +0.000 C 
ATOM     23  O   UNL     1      -0.847  12.186  22.963  0.00  0.00    +0.000 OA
ATOM     24  H   UNL     1      -2.594  11.708  20.339  0.00  0.00    +0.000 HD
BRANCH  22  25
ATOM     25  C   UNL     1      -3.162  12.455  22.686  0.00  0.00    +0.000 A 
ATOM     26  C   UNL     1      -3.388  12.181  24.122  0.00  0.00    +0.000 A 
ATOM     27  C   UNL     1      -4.577  12.498  24.627  0.00  0.00    +0.000 A 
ATOM     28  C   UNL     1      -5.625  13.078  23.767  0.00  0.00    +0.000 A 
ATOM     29  O   UNL     1      -6.713  13.344  24.271  0.00  0.00    +0.000 OA
ATOM     30  N   UNL     1      -5.288  13.267  22.429  0.00  0.00    +0.000 N 
ATOM     31  N   UNL     1      -4.041  12.965  21.877  0.00  0.00    +0.000 NA
BRANCH  30  32
ATOM     32  C   UNL     1      -6.339  13.679  21.506  0.00  0.00    +0.000 C 
BRANCH  32  33
ATOM     33  C   UNL     1      -6.466  12.712  20.351  0.00  0.00    +0.000 A 
ATOM     34  C   UNL     1      -6.172  13.120  19.041  0.00  0.00    +0.000 A 
ATOM     35  C   UNL     1      -6.333  12.237  17.972  0.00  0.00    +0.000 A 
ATOM     36  C   UNL     1      -6.794  10.942  18.200  0.00  0.00    +0.000 A 
ATOM     37  C   UNL     1      -7.097  10.529  19.495  0.00  0.00    +0.000 A 
ATOM     38  C   UNL     1      -6.938  11.410  20.566  0.00  0.00    +0.000 A 
ENDBRANCH  32  33
ENDBRANCH  30  32
ENDBRANCH  22  25
ENDBRANCH   5  21
TORSDOF 7
ENDMDL
MODEL 7
REMARK VINA RESULT:      -9.4      3.177      5.379
REMARK  Name = 
REMARK  7 active torsions:
REMARK  status: ('A' for Active; 'I' for Inactive)
REMARK    1  A    between atoms: C_2  and  C_14
REMARK    2  A    between atoms: N_3  and  C_4
REMARK    3  A    between atoms: C_8  and  C_9
REMARK    4  A    between atoms: C_18  and  N_19
REMARK    5  A    between atoms: C_20  and  C_22
REMARK    6  A    between atoms: N_27  and  C_28
REMARK    7  A    between atoms: C_28  and  C_29
REMARK                            x       y       z     vdW  Elec       q    Type
REMARK                         _______ _______ _______ _____ _____    ______ ____
ROOT
ATOM      1  C   UNL     1       1.353   9.533  19.136  0.00  0.00    +0.000 A 
ATOM      2  C   UNL     1       2.052  10.497  18.396  0.00  0.00    +0.000 A 
ATOM      3  C   UNL     1       1.632  11.816  18.398  0.00  0.00    +0.000 A 
ATOM      4  C   UNL     1       0.506  12.175  19.134  0.00  0.00    +0.000 A 
ATOM      5  C   UNL     1      -0.225  11.231  19.871  0.00  0.00    +0.000 A 
ATOM      6  C   UNL     1       0.214   9.894  19.877  0.00  0.00    +0.000 A 
ENDROOT
BRANCH   1   8
ATOM      7  O   UNL     1       1.958   7.574  20.201  0.00  0.00    +0.000 OA
ATOM      8  C   UNL     1       1.949   8.171  19.129  0.00  0.00    +0.000 C 
ATOM      9  N   UNL     1       2.518   7.731  17.944  0.00  0.00    +0.000 N 
ATOM     10  H   UNL     1       2.578   8.391  17.179  0.00  0.00    +0.000 HD
BRANCH   9  11
ATOM     11  C   UNL     1       3.235   6.514  17.797  0.00  0.00    +0.000 A 
ATOM     12  C   UNL     1       2.634   5.256  17.908  0.00  0.00    +0.000 A 
ATOM     13  C   UNL     1       3.387   4.083  17.833  0.00  0.00    +0.000 A 
ATOM     14  C   UNL     1       4.759   4.151  17.623  0.00  0.00    +0.000 A 
ATOM     15  C   UNL     1       5.387   5.394  17.468  0.00  0.00    +0.000 A 
ATOM     16  C   UNL     1       4.614   6.573  17.553  0.00  0.00    +0.000 A 
BRANCH  15  17
ATOM     17  C   UNL     1       6.873   5.469  17.221  0.00  0.00    +0.000 C 
ATOM     18  F   UNL     1       7.223   5.269  15.918  0.00  0.00    +0.000 F 
ATOM     19  F   UNL     1       7.395   6.679  17.563  0.00  0.00    +0.000 F 
ATOM     20  F   UNL     1       7.569   4.546  17.939  0.00  0.00    +0.000 F 
ENDBRANCH  15  17
ENDBRANCH   9  11
ENDBRANCH   1   8
BRANCH   5  21
ATOM     21  N   UNL     1      -1.387  11.587  20.603  0.00  0.00    +0.000 N 
ATOM     22  C   UNL     1      -1.413  11.983  21.933  0.00  0.00    +0.000 C 
ATOM     23  O   UNL     1      -0.467  12.069  22.704  0.00  0.00    +0.000 OA
ATOM     24  H   UNL     1      -2.287  11.580  20.131  0.00  0.00    +0.000 HD
BRANCH  22  25
ATOM     25  C   UNL     1      -2.783  12.385  22.476  0.00  0.00    +0.000 A 
ATOM     26  C   UNL     1      -2.998  12.097  23.911  0.00  0.00    +0.000 A 
ATOM     27  C   UNL     1      -4.168  12.448  24.438  0.00  0.00    +0.000 A 
ATOM     28  C   UNL     1      -5.206  13.077  23.602  0.00  0.00    +0.000 A 
ATOM     29  O   UNL     1      -6.277  13.374  24.126  0.00  0.00    +0.000 OA
ATOM     30  N   UNL     1      -4.882  13.274  22.263  0.00  0.00    +0.000 N 
ATOM     31  N   UNL     1      -3.654  12.938  21.688  0.00  0.00    +0.000 NA
BRANCH  30  32
ATOM     32  C   UNL     1      -5.931  13.737  21.360  0.00  0.00    +0.000 C 
BRANCH  32  33
ATOM     33  C   UNL     1      -6.206  12.725  20.272  0.00  0.00    +0.000 A 
ATOM     34  C   UNL     1      -5.923  13.021  18.930  0.00  0.00    +0.000 A 
ATOM     35  C   UNL     1      -6.219  12.101  17.924  0.00  0.00    +0.000 A 
ATOM     36  C   UNL     1      -6.806  10.879  18.248  0.00  0.00    +0.000 A 
ATOM     37  C   UNL     1      -7.100  10.577  19.575  0.00  0.00    +0.000 A 
ATOM     38  C   UNL     1      -6.805  11.496  20.583  0.00  0.00    +0.000 A 
ENDBRANCH  32  33
ENDBRANCH  30  32
ENDBRANCH  22  25
ENDBRANCH   5  21
TORSDOF 7
ENDMDL
MODEL 8
REMARK VINA RESULT:      -9.4      1.923      2.866
REMARK  Name = 
REMARK  7 active torsions:
REMARK  status: ('A' for Active; 'I' for Inactive)
REMARK    1  A    between atoms: C_2  and  C_14
REMARK    2  A    between atoms: N_3  and  C_4
REMARK    3  A    between atoms: C_8  and  C_9
REMARK    4  A    between atoms: C_18  and  N_19
REMARK    5  A    between atoms: C_20  and  C_22
REMARK    6  A    between atoms: N_27  and  C_28
REMARK    7  A    between atoms: C_28  and  C_29
REMARK                            x       y       z     vdW  Elec       q    Type
REMARK                         _______ _______ _______ _____ _____    ______ ____
ROOT
ATOM      1  C   UNL     1       3.928   5.522  18.092  0.00  0.00    +0.000 A 
ATOM      2  C   UNL     1       3.853   4.234  18.640  0.00  0.00    +0.000 A 
ATOM      3  C   UNL     1       3.127   4.010  19.797  0.00  0.00    +0.000 A 
ATOM      4  C   UNL     1       2.478   5.074  20.415  0.00  0.00    +0.000 A 
ATOM      5  C   UNL     1       2.547   6.378  19.901  0.00  0.00    +0.000 A 
ATOM      6  C   UNL     1       3.274   6.599  18.718  0.00  0.00    +0.000 A 
ENDROOT
BRANCH   1   8
ATOM      7  O   UNL     1       4.740   6.743  16.306  0.00  0.00    +0.000 OA
ATOM      8  C   UNL     1       4.660   5.623  16.802  0.00  0.00    +0.000 C 
ATOM      9  N   UNL     1       5.110   4.442  16.232  0.00  0.00    +0.000 N 
ATOM     10  H   UNL     1       4.838   3.574  16.674  0.00  0.00    +0.000 HD
BRANCH   9  11
ATOM     11  C   UNL     1       5.715   4.346  14.951  0.00  0.00    +0.000 A 
ATOM     12  C   UNL     1       7.007   4.808  14.680  0.00  0.00    +0.000 A 
ATOM     13  C   UNL     1       7.538   4.764  13.390  0.00  0.00    +0.000 A 
ATOM     14  C   UNL     1       6.788   4.234  12.348  0.00  0.00    +0.000 A 
ATOM     15  C   UNL     1       5.504   3.726  12.592  0.00  0.00    +0.000 A 
ATOM     16  C   UNL     1       4.977   3.783  13.901  0.00  0.00    +0.000 A 
BRANCH  15  17
ATOM     17  C   UNL     1       4.696   3.133  11.465  0.00  0.00    +0.000 C 
ATOM     18  F   UNL     1       4.605   3.941  10.371  0.00  0.00    +0.000 F 
ATOM     19  F   UNL     1       5.218   1.958  11.016  0.00  0.00    +0.000 F 
ATOM     20  F   UNL     1       3.414   2.856  11.831  0.00  0.00    +0.000 F 
ENDBRANCH  15  17
ENDBRANCH   9  11
ENDBRANCH   1   8
BRANCH   5  21
ATOM     21  N   UNL     1       1.907   7.472  20.541  0.00  0.00    +0.000 N 
ATOM     22  C   UNL     1       1.438   8.615  19.907  0.00  0.00    +0.000 C 
ATOM     23  O   UNL     1       1.514   8.892  18.719  0.00  0.00    +0.000 OA
ATOM     24  H   UNL     1       1.747   7.431  21.543  0.00  0.00    +0.000 HD
BRANCH  22  25
ATOM     25  C   UNL     1       0.720   9.620  20.805  0.00  0.00    +0.000 A 
ATOM     26  C   UNL     1       0.140   9.054  22.043  0.00  0.00    +0.000 A 
ATOM     27  C   UNL     1      -0.477   9.893  22.870  0.00  0.00    +0.000 A 
ATOM     28  C   UNL     1      -0.590  11.324  22.538  0.00  0.00    +0.000 A 
ATOM     29  O   UNL     1      -1.179  12.062  23.323  0.00  0.00    +0.000 OA
ATOM     30  N   UNL     1      -0.017  11.723  21.333  0.00  0.00    +0.000 N 
ATOM     31  N   UNL     1       0.658  10.869  20.456  0.00  0.00    +0.000 NA
BRANCH  30  32
ATOM     32  C   UNL     1      -0.246  13.090  20.879  0.00  0.00    +0.000 C 
BRANCH  32  33
ATOM     33  C   UNL     1       1.019  13.705  20.327  0.00  0.00    +0.000 A 
ATOM     34  C   UNL     1       2.113  13.968  21.166  0.00  0.00    +0.000 A 
ATOM     35  C   UNL     1       3.263  14.576  20.662  0.00  0.00    +0.000 A 
ATOM     36  C   UNL     1       3.330  14.933  19.316  0.00  0.00    +0.000 A 
ATOM     37  C   UNL     1       2.247  14.685  18.475  0.00  0.00    +0.000 A 
ATOM     38  C   UNL     1       1.096  14.077  18.978  0.00  0.00    +0.000 A 
ENDBRANCH  32  33
ENDBRANCH  30  32
ENDBRANCH  22  25
ENDBRANCH   5  21
TORSDOF 7
ENDMDL
MODEL 9
REMARK VINA RESULT:      -9.4      1.175      1.545
REMARK  Name = 
REMARK  7 active torsions:
REMARK  status: ('A' for Active; 'I' for Inactive)
REMARK    1  A    between atoms: C_2  and  C_14
REMARK    2  A    between atoms: N_3  and  C_4
REMARK    3  A    between atoms: C_8  and  C_9
REMARK    4  A    between atoms: C_18  and  N_19
REMARK    5  A    between atoms: C_20  and  C_22
REMARK    6  A    between atoms: N_27  and  C_28
REMARK    7  A    between atoms: C_28  and  C_29
REMARK                            x       y       z     vdW  Elec       q    Type
REMARK                         _______ _______ _______ _____ _____    ______ ____
ROOT
ATOM      1  C   UNL     1       4.218   5.296  17.778  0.00  0.00    +0.000 A 
ATOM      2  C   UNL     1       4.220   4.000  18.312  0.00  0.00    +0.000 A 
ATOM      3  C   UNL     1       3.519   3.723  19.472  0.00  0.00    +0.000 A 
ATOM      4  C   UNL     1       2.816   4.743  20.108  0.00  0.00    +0.000 A 
ATOM      5  C   UNL     1       2.808   6.054  19.608  0.00  0.00    +0.000 A 
ATOM      6  C   UNL     1       3.511   6.329  18.421  0.00  0.00    +0.000 A 
ENDROOT
BRANCH   1   8
ATOM      7  O   UNL     1       4.870   6.558  15.956  0.00  0.00    +0.000 OA
ATOM      8  C   UNL     1       4.932   5.452  16.483  0.00  0.00    +0.000 C 
ATOM      9  N   UNL     1       5.528   4.322  15.946  0.00  0.00    +0.000 N 
ATOM     10  H   UNL     1       5.368   3.439  16.413  0.00  0.00    +0.000 HD
BRANCH   9  11
ATOM     11  C   UNL     1       6.141   4.266  14.666  0.00  0.00    +0.000 A 
ATOM     12  C   UNL     1       7.146   5.150  14.262  0.00  0.00    +0.000 A 
ATOM     13  C   UNL     1       7.671   5.111  12.969  0.00  0.00    +0.000 A 
ATOM     14  C   UNL     1       7.209   4.167  12.060  0.00  0.00    +0.000 A 
ATOM     15  C   UNL     1       6.230   3.240  12.445  0.00  0.00    +0.000 A 
ATOM     16  C   UNL     1       5.704   3.295  13.754  0.00  0.00    +0.000 A 
BRANCH  15  17
ATOM     17  C   UNL     1       5.742   2.202  11.466  0.00  0.00    +0.000 C 
ATOM     18  F   UNL     1       6.529   2.078  10.360  0.00  0.00    +0.000 F 
ATOM     19  F   UNL     1       5.679   0.958  12.018  0.00  0.00    +0.000 F 
ATOM     20  F   UNL     1       4.489   2.468  11.003  0.00  0.00    +0.000 F 
ENDBRANCH  15  17
ENDBRANCH   9  11
ENDBRANCH   1   8
BRANCH   5  21
ATOM     21  N   UNL     1       2.114   7.104  20.265  0.00  0.00    +0.000 N 
ATOM     22  C   UNL     1       1.789   8.331  19.704  0.00  0.00    +0.000 C 
ATOM     23  O   UNL     1       2.059   8.732  18.581  0.00  0.00    +0.000 OA
ATOM     24  H   UNL     1       1.798   6.962  21.220  0.00  0.00    +0.000 HD
BRANCH  22  25
ATOM     25  C   UNL     1       0.974   9.269  20.593  0.00  0.00    +0.000 A 
ATOM     26  C   UNL     1       0.743   8.784  21.972  0.00  0.00    +0.000 A 
ATOM     27  C   UNL     1       0.057   9.574  22.792  0.00  0.00    +0.000 A 
ATOM     28  C   UNL     1      -0.465  10.869  22.321  0.00  0.00    +0.000 A 
ATOM     29  O   UNL     1      -1.105  11.562  23.108  0.00  0.00    +0.000 OA
ATOM     30  N   UNL     1      -0.194  11.196  20.995  0.00  0.00    +0.000 N 
ATOM     31  N   UNL     1       0.544  10.398  20.118  0.00  0.00    +0.000 NA
BRANCH  30  32
ATOM     32  C   UNL     1      -0.829  12.384  20.435  0.00  0.00    +0.000 C 
BRANCH  32  33
ATOM     33  C   UNL     1      -2.054  12.023  19.627  0.00  0.00    +0.000 A 
ATOM     34  C   UNL     1      -3.325  12.477  20.012  0.00  0.00    +0.000 A 
ATOM     35  C   UNL     1      -4.459  12.106  19.289  0.00  0.00    +0.000 A 
ATOM     36  C   UNL     1      -4.336  11.272  18.179  0.00  0.00    +0.000 A 
ATOM     37  C   UNL     1      -3.081  10.807  17.793  0.00  0.00    +0.000 A 
ATOM     38  C   UNL     1      -1.945  11.177  18.514  0.00  0.00    +0.000 A 
ENDBRANCH  32  33
ENDBRANCH  30  32
ENDBRANCH  22  25
ENDBRANCH   5  21
TORSDOF 7
ENDMDL
