MODEL 1
REMARK VINA RESULT:      -9.8      0.000      0.000
REMARK  Name = 
REMARK  5 active torsions:
REMARK  status: ('A' for Active; 'I' for Inactive)
REMARK    1  A    between atoms: C_2  and  C_9
REMARK    2  A    between atoms: C_11  and  O_12
REMARK    3  A    between atoms: C_17  and  S_18
REMARK    4  A    between atoms: S_18  and  N_21
REMARK    5  A    between atoms: N_21  and  C_22
REMARK                            x       y       z     vdW  Elec       q    Type
REMARK                         _______ _______ _______ _____ _____    ______ ____
ROOT
ATOM      1  C   UNL     1       2.531   5.822  20.072  0.00  0.00    +0.000 A 
ATOM      2  C   UNL     1       1.877   4.995  20.986  0.00  0.00    +0.000 A 
ATOM      3  C   UNL     1       2.318   3.698  21.099  0.00  0.00    +0.000 A 
ATOM      4  N   UNL     1       3.323   3.179  20.375  0.00  0.00    +0.000 NA
ATOM      5  C   UNL     1       3.972   3.972  19.511  0.00  0.00    +0.000 A 
ATOM      6  C   UNL     1       5.017   3.434  18.757  0.00  0.00    +0.000 A 
ATOM      7  C   UNL     1       5.739   4.193  17.826  0.00  0.00    +0.000 A 
ATOM      8  C   UNL     1       5.443   5.541  17.696  0.00  0.00    +0.000 A 
ATOM      9  C   UNL     1       4.424   6.104  18.461  0.00  0.00    +0.000 A 
ATOM     10  C   UNL     1       3.637   5.330  19.335  0.00  0.00    +0.000 A 
ENDROOT
BRANCH   1  12
ATOM     11  O   UNL     1       1.999   7.722  18.850  0.00  0.00    +0.000 OA
ATOM     12  C   UNL     1       2.012   7.219  19.968  0.00  0.00    +0.000 C 
ATOM     13  N   UNL     1       1.618   7.813  21.152  0.00  0.00    +0.000 N 
ATOM     14  C   UNL     1       0.996   9.039  21.169  0.00  0.00    +0.000 A 
ATOM     15  N   UNL     1       0.785   9.893  20.194  0.00  0.00    +0.000 NA
ATOM     16  N   UNL     1       0.146  10.996  20.712  0.00  0.00    +0.000 NA
ATOM     17  C   UNL     1      -0.046  10.777  21.989  0.00  0.00    +0.000 A 
ATOM     18  N   UNL     1       0.453   9.554  22.318  0.00  0.00    +0.000 N 
ATOM     19  H   UNL     1       1.748   7.337  22.034  0.00  0.00    +0.000 HD
ATOM     20  H   UNL     1       0.404   9.107  23.220  0.00  0.00    +0.000 HD
ENDBRANCH   1  12
BRANCH   8  21
ATOM     21  S   UNL     1       6.205   6.570  16.468  0.00  0.00    +0.000 S 
ATOM     22  O   UNL     1       5.192   6.902  15.489  0.00  0.00    +0.000 OA
ATOM     23  O   UNL     1       6.930   7.608  17.173  0.00  0.00    +0.000 OA
BRANCH  21  24
ATOM     24  N   UNL     1       7.284   5.514  15.703  0.00  0.00    +0.000 N 
ATOM     25  H   UNL     1       7.737   4.919  16.399  0.00  0.00    +0.000 HD
BRANCH  24  26
ATOM     26  C   UNL     1       6.847   4.881  14.504  0.00  0.00    +0.000 A 
ATOM     27  C   UNL     1       5.714   4.066  14.517  0.00  0.00    +0.000 A 
ATOM     28  C   UNL     1       5.359   3.350  13.372  0.00  0.00    +0.000 A 
ATOM     29  C   UNL     1       6.131   3.471  12.221  0.00  0.00    +0.000 A 
ATOM     30  F   UNL     1       5.794   2.785  11.123  0.00  0.00    +0.000 F 
ATOM     31  C   UNL     1       7.250   4.296  12.195  0.00  0.00    +0.000 A 
ATOM     32  C   UNL     1       7.616   5.001  13.343  0.00  0.00    +0.000 A 
ENDBRANCH  24  26
ENDBRANCH  21  24
ENDBRANCH   8  21
BRANCH   3  33
ATOM     33  O   UNL     1       1.735   2.830  21.974  0.00  0.00    +0.000 OA
ATOM     34  H   UNL     1       0.773   2.872  21.856  0.00  0.00    +0.000 HD
ENDBRANCH   3  33
TORSDOF 5
ENDMDL
MODEL 2
REMARK VINA RESULT:      -9.2      2.842      5.766
REMARK  Name = 
REMARK  5 active torsions:
REMARK  status: ('A' for Active; 'I' for Inactive)
REMARK    1  A    between atoms: C_2  and  C_9
REMARK    2  A    between atoms: C_11  and  O_12
REMARK    3  A    between atoms: C_17  and  S_18
REMARK    4  A    between atoms: S_18  and  N_21
REMARK    5  A    between atoms: N_21  and  C_22
REMARK                            x       y       z     vdW  Elec       q    Type
REMARK                         _______ _______ _______ _____ _____    ______ ____
ROOT
ATOM      1  C   UNL     1       3.508   2.881  19.565  0.00  0.00    +0.000 A 
ATOM      2  C   UNL     1       2.212   2.859  20.081  0.00  0.00    +0.000 A 
ATOM      3  C   UNL     1       1.457   4.001  19.951  0.00  0.00    +0.000 A 
ATOM      4  N   UNL     1       1.896   5.133  19.377  0.00  0.00    +0.000 NA
ATOM      5  C   UNL     1       3.131   5.154  18.857  0.00  0.00    +0.000 A 
ATOM      6  C   UNL     1       3.589   6.330  18.259  0.00  0.00    +0.000 A 
ATOM      7  C   UNL     1       4.871   6.439  17.701  0.00  0.00    +0.000 A 
ATOM      8  C   UNL     1       5.687   5.319  17.690  0.00  0.00    +0.000 A 
ATOM      9  C   UNL     1       5.237   4.127  18.255  0.00  0.00    +0.000 A 
ATOM     10  C   UNL     1       3.986   4.034  18.894  0.00  0.00    +0.000 A 
ENDROOT
BRANCH   1  12
ATOM     11  O   UNL     1       4.353   0.868  18.778  0.00  0.00    +0.000 OA
ATOM     12  C   UNL     1       4.301   1.627  19.739  0.00  0.00    +0.000 C 
ATOM     13  N   UNL     1       4.879   1.437  20.980  0.00  0.00    +0.000 N 
ATOM     14  C   UNL     1       5.744   0.395  21.219  0.00  0.00    +0.000 A 
ATOM     15  N   UNL     1       6.071  -0.622  20.456  0.00  0.00    +0.000 NA
ATOM     16  N   UNL     1       6.956  -1.418  21.148  0.00  0.00    +0.000 NA
ATOM     17  C   UNL     1       7.172  -0.849  22.309  0.00  0.00    +0.000 A 
ATOM     18  N   UNL     1       6.449   0.300  22.391  0.00  0.00    +0.000 N 
ATOM     19  H   UNL     1       4.704   2.088  21.733  0.00  0.00    +0.000 HD
ATOM     20  H   UNL     1       6.456   0.962  23.151  0.00  0.00    +0.000 HD
ENDBRANCH   1  12
BRANCH   8  21
ATOM     21  S   UNL     1       7.368   5.369  17.123  0.00  0.00    +0.000 S 
ATOM     22  O   UNL     1       8.053   6.391  17.886  0.00  0.00    +0.000 OA
ATOM     23  O   UNL     1       7.851   4.004  17.101  0.00  0.00    +0.000 OA
BRANCH  21  24
ATOM     24  N   UNL     1       7.218   5.967  15.546  0.00  0.00    +0.000 N 
ATOM     25  H   UNL     1       8.006   6.580  15.333  0.00  0.00    +0.000 HD
BRANCH  24  26
ATOM     26  C   UNL     1       6.825   5.050  14.529  0.00  0.00    +0.000 A 
ATOM     27  C   UNL     1       7.623   4.880  13.396  0.00  0.00    +0.000 A 
ATOM     28  C   UNL     1       7.177   4.075  12.346  0.00  0.00    +0.000 A 
ATOM     29  C   UNL     1       5.947   3.436  12.447  0.00  0.00    +0.000 A 
ATOM     30  F   UNL     1       5.515   2.665  11.442  0.00  0.00    +0.000 F 
ATOM     31  C   UNL     1       5.155   3.585  13.581  0.00  0.00    +0.000 A 
ATOM     32  C   UNL     1       5.592   4.401  14.626  0.00  0.00    +0.000 A 
ENDBRANCH  24  26
ENDBRANCH  21  24
ENDBRANCH   8  21
BRANCH   3  33
ATOM     33  O   UNL     1       0.180   4.057  20.426  0.00  0.00    +0.000 OA
ATOM     34  H   UNL     1       0.203   3.950  21.389  0.00  0.00    +0.000 HD
ENDBRANCH   3  33
TORSDOF 5
ENDMDL
MODEL 3
REMARK VINA RESULT:      -9.2      0.826      1.272
REMARK  Name = 
REMARK  5 active torsions:
REMARK  status: ('A' for Active; 'I' for Inactive)
REMARK    1  A    between atoms: C_2  and  C_9
REMARK    2  A    between atoms: C_11  and  O_12
REMARK    3  A    between atoms: C_17  and  S_18
REMARK    4  A    between atoms: S_18  and  N_21
REMARK    5  A    between atoms: N_21  and  C_22
REMARK                            x       y       z     vdW  Elec       q    Type
REMARK                         _______ _______ _______ _____ _____    ______ ____
ROOT
ATOM      1  C   UNL     1       2.316   5.667  19.959  0.00  0.00    +0.000 A 
ATOM      2  C   UNL     1       1.411   4.913  20.707  0.00  0.00    +0.000 A 
ATOM      3  C   UNL     1       1.634   3.559  20.796  0.00  0.00    +0.000 A 
ATOM      4  N   UNL     1       2.654   2.922  20.197  0.00  0.00    +0.000 NA
ATOM      5  C   UNL     1       3.541   3.643  19.497  0.00  0.00    +0.000 A 
ATOM      6  C   UNL     1       4.602   2.983  18.874  0.00  0.00    +0.000 A 
ATOM      7  C   UNL     1       5.566   3.661  18.116  0.00  0.00    +0.000 A 
ATOM      8  C   UNL     1       5.496   5.043  18.035  0.00  0.00    +0.000 A 
ATOM      9  C   UNL     1       4.462   5.723  18.675  0.00  0.00    +0.000 A 
ATOM     10  C   UNL     1       3.441   5.043  19.366  0.00  0.00    +0.000 A 
ENDROOT
BRANCH   1  12
ATOM     11  O   UNL     1       2.305   7.687  18.816  0.00  0.00    +0.000 OA
ATOM     12  C   UNL     1       2.031   7.131  19.874  0.00  0.00    +0.000 C 
ATOM     13  N   UNL     1       1.506   7.718  21.009  0.00  0.00    +0.000 N 
ATOM     14  C   UNL     1       1.073   9.023  21.010  0.00  0.00    +0.000 A 
ATOM     15  N   UNL     1       1.177   9.947  20.084  0.00  0.00    +0.000 NA
ATOM     16  N   UNL     1       0.614  11.109  20.563  0.00  0.00    +0.000 NA
ATOM     17  C   UNL     1       0.152  10.856  21.763  0.00  0.00    +0.000 A 
ATOM     18  N   UNL     1       0.399   9.557  22.078  0.00  0.00    +0.000 N 
ATOM     19  H   UNL     1       1.396   7.183  21.860  0.00  0.00    +0.000 HD
ATOM     20  H   UNL     1       0.115   9.077  22.918  0.00  0.00    +0.000 HD
ENDBRANCH   1  12
BRANCH   8  21
ATOM     21  S   UNL     1       6.587   5.994  17.008  0.00  0.00    +0.000 S 
ATOM     22  O   UNL     1       6.605   7.345  17.529  0.00  0.00    +0.000 OA
ATOM     23  O   UNL     1       7.811   5.232  16.867  0.00  0.00    +0.000 OA
BRANCH  21  24
ATOM     24  N   UNL     1       5.760   6.059  15.533  0.00  0.00    +0.000 N 
ATOM     25  H   UNL     1       5.566   7.031  15.288  0.00  0.00    +0.000 HD
BRANCH  24  26
ATOM     26  C   UNL     1       6.218   5.212  14.483  0.00  0.00    +0.000 A 
ATOM     27  C   UNL     1       7.375   5.541  13.775  0.00  0.00    +0.000 A 
ATOM     28  C   UNL     1       7.753   4.777  12.669  0.00  0.00    +0.000 A 
ATOM     29  C   UNL     1       6.981   3.683  12.294  0.00  0.00    +0.000 A 
ATOM     30  F   UNL     1       7.341   2.951  11.234  0.00  0.00    +0.000 F 
ATOM     31  C   UNL     1       5.838   3.338  13.007  0.00  0.00    +0.000 A 
ATOM     32  C   UNL     1       5.449   4.109  14.104  0.00  0.00    +0.000 A 
ENDBRANCH  24  26
ENDBRANCH  21  24
ENDBRANCH   8  21
BRANCH   3  33
ATOM     33  O   UNL     1       0.798   2.754  21.511  0.00  0.00    +0.000 OA
ATOM     34  H   UNL     1       0.620   1.954  20.993  0.00  0.00    +0.000 HD
ENDBRANCH   3  33
TORSDOF 5
ENDMDL
MODEL 4
REMARK VINA RESULT:      -9.0      1.288      1.526
REMARK  Name = 
REMARK  5 active torsions:
REMARK  status: ('A' for Active; 'I' for Inactive)
REMARK    1  A    between atoms: C_2  and  C_9
REMARK    2  A    between atoms: C_11  and  O_12
REMARK    3  A    between atoms: C_17  and  S_18
REMARK    4  A    between atoms: S_18  and  N_21
REMARK    5  A    between atoms: N_21  and  C_22
REMARK                            x       y       z     vdW  Elec       q    Type
REMARK                         _______ _______ _______ _____ _____    ______ ____
ROOT
ATOM      1  C   UNL     1       2.179   5.802  20.033  0.00  0.00    +0.000 A 
ATOM      2  C   UNL     1       1.404   4.951  20.821  0.00  0.00    +0.000 A 
ATOM      3  C   UNL     1       1.695   3.608  20.782  0.00  0.00    +0.000 A 
ATOM      4  N   UNL     1       2.663   3.069  20.023  0.00  0.00    +0.000 NA
ATOM      5  C   UNL     1       3.428   3.882  19.281  0.00  0.00    +0.000 A 
ATOM      6  C   UNL     1       4.435   3.324  18.491  0.00  0.00    +0.000 A 
ATOM      7  C   UNL     1       5.271   4.103  17.679  0.00  0.00    +0.000 A 
ATOM      8  C   UNL     1       5.131   5.482  17.711  0.00  0.00    +0.000 A 
ATOM      9  C   UNL     1       4.152   6.060  18.516  0.00  0.00    +0.000 A 
ATOM     10  C   UNL     1       3.251   5.280  19.268  0.00  0.00    +0.000 A 
ENDROOT
BRANCH   1  12
ATOM     11  O   UNL     1       1.471   7.690  21.181  0.00  0.00    +0.000 OA
ATOM     12  C   UNL     1       1.822   7.252  20.092  0.00  0.00    +0.000 C 
ATOM     13  N   UNL     1       1.901   7.949  18.902  0.00  0.00    +0.000 N 
ATOM     14  C   UNL     1       1.734   9.313  18.855  0.00  0.00    +0.000 A 
ATOM     15  N   UNL     1       1.362  10.151  19.794  0.00  0.00    +0.000 NA
ATOM     16  N   UNL     1       1.312  11.416  19.254  0.00  0.00    +0.000 NA
ATOM     17  C   UNL     1       1.686  11.325  18.002  0.00  0.00    +0.000 A 
ATOM     18  N   UNL     1       1.979  10.029  17.711  0.00  0.00    +0.000 N 
ATOM     19  H   UNL     1       2.123   7.470  18.039  0.00  0.00    +0.000 HD
ATOM     20  H   UNL     1       2.333   9.674  16.836  0.00  0.00    +0.000 HD
ENDBRANCH   1  12
BRANCH   8  21
ATOM     21  S   UNL     1       6.048   6.558  16.640  0.00  0.00    +0.000 S 
ATOM     22  O   UNL     1       5.172   6.936  15.551  0.00  0.00    +0.000 OA
ATOM     23  O   UNL     1       6.672   7.562  17.478  0.00  0.00    +0.000 OA
BRANCH  21  24
ATOM     24  N   UNL     1       7.219   5.530  15.980  0.00  0.00    +0.000 N 
ATOM     25  H   UNL     1       7.556   4.885  16.696  0.00  0.00    +0.000 HD
BRANCH  24  26
ATOM     26  C   UNL     1       6.962   4.980  14.691  0.00  0.00    +0.000 A 
ATOM     27  C   UNL     1       6.007   3.974  14.539  0.00  0.00    +0.000 A 
ATOM     28  C   UNL     1       5.844   3.352  13.300  0.00  0.00    +0.000 A 
ATOM     29  C   UNL     1       6.624   3.755  12.222  0.00  0.00    +0.000 A 
ATOM     30  F   UNL     1       6.471   3.160  11.034  0.00  0.00    +0.000 F 
ATOM     31  C   UNL     1       7.565   4.770  12.361  0.00  0.00    +0.000 A 
ATOM     32  C   UNL     1       7.740   5.383  13.603  0.00  0.00    +0.000 A 
ENDBRANCH  24  26
ENDBRANCH  21  24
ENDBRANCH   8  21
BRANCH   3  33
ATOM     33  O   UNL     1       0.987   2.712  21.527  0.00  0.00    +0.000 OA
ATOM     34  H   UNL     1       1.188   1.818  21.210  0.00  0.00    +0.000 HD
ENDBRANCH   3  33
TORSDOF 5
ENDMDL
MODEL 5
REMARK VINA RESULT:      -8.9      3.728      7.433
REMARK  Name = 
REMARK  5 active torsions:
REMARK  status: ('A' for Active; 'I' for Inactive)
REMARK    1  A    between atoms: C_2  and  C_9
REMARK    2  A    between atoms: C_11  and  O_12
REMARK    3  A    between atoms: C_17  and  S_18
REMARK    4  A    between atoms: S_18  and  N_21
REMARK    5  A    between atoms: N_21  and  C_22
REMARK                            x       y       z     vdW  Elec       q    Type
REMARK                         _______ _______ _______ _____ _____    ______ ____
ROOT
ATOM      1  C   UNL     1       6.563   5.524  16.586  0.00  0.00    +0.000 A 
ATOM      2  C   UNL     1       7.197   5.253  15.373  0.00  0.00    +0.000 A 
ATOM      3  C   UNL     1       6.565   4.395  14.503  0.00  0.00    +0.000 A 
ATOM      4  N   UNL     1       5.391   3.794  14.758  0.00  0.00    +0.000 NA
ATOM      5  C   UNL     1       4.764   4.068  15.911  0.00  0.00    +0.000 A 
ATOM      6  C   UNL     1       3.543   3.445  16.177  0.00  0.00    +0.000 A 
ATOM      7  C   UNL     1       2.829   3.669  17.362  0.00  0.00    +0.000 A 
ATOM      8  C   UNL     1       3.325   4.590  18.272  0.00  0.00    +0.000 A 
ATOM      9  C   UNL     1       4.526   5.245  18.011  0.00  0.00    +0.000 A 
ATOM     10  C   UNL     1       5.293   4.961  16.864  0.00  0.00    +0.000 A 
ENDROOT
BRANCH   1  12
ATOM     11  O   UNL     1       7.823   5.943  18.489  0.00  0.00    +0.000 OA
ATOM     12  C   UNL     1       7.289   6.448  17.509  0.00  0.00    +0.000 C 
ATOM     13  N   UNL     1       7.265   7.788  17.173  0.00  0.00    +0.000 N 
ATOM     14  C   UNL     1       8.010   8.716  17.863  0.00  0.00    +0.000 A 
ATOM     15  N   UNL     1       8.720   8.582  18.959  0.00  0.00    +0.000 NA
ATOM     16  N   UNL     1       9.261   9.807  19.279  0.00  0.00    +0.000 NA
ATOM     17  C   UNL     1       8.892  10.655  18.350  0.00  0.00    +0.000 A 
ATOM     18  N   UNL     1       8.122  10.013  17.431  0.00  0.00    +0.000 N 
ATOM     19  H   UNL     1       6.723   8.111  16.383  0.00  0.00    +0.000 HD
ATOM     20  H   UNL     1       7.738  10.408  16.587  0.00  0.00    +0.000 HD
ENDBRANCH   1  12
BRANCH   8  21
ATOM     21  S   UNL     1       2.573   4.865  19.856  0.00  0.00    +0.000 S 
ATOM     22  O   UNL     1       1.139   4.898  19.656  0.00  0.00    +0.000 OA
ATOM     23  O   UNL     1       3.176   3.928  20.782  0.00  0.00    +0.000 OA
BRANCH  21  24
ATOM     24  N   UNL     1       3.042   6.448  20.229  0.00  0.00    +0.000 N 
ATOM     25  H   UNL     1       4.048   6.552  20.090  0.00  0.00    +0.000 HD
BRANCH  24  26
ATOM     26  C   UNL     1       2.216   7.508  19.758  0.00  0.00    +0.000 A 
ATOM     27  C   UNL     1       2.278   7.901  18.420  0.00  0.00    +0.000 A 
ATOM     28  C   UNL     1       1.560   9.019  17.989  0.00  0.00    +0.000 A 
ATOM     29  C   UNL     1       0.773   9.720  18.896  0.00  0.00    +0.000 A 
ATOM     30  F   UNL     1       0.085  10.791  18.487  0.00  0.00    +0.000 F 
ATOM     31  C   UNL     1       0.691   9.322  20.227  0.00  0.00    +0.000 A 
ATOM     32  C   UNL     1       1.420   8.214  20.664  0.00  0.00    +0.000 A 
ENDBRANCH  24  26
ENDBRANCH  21  24
ENDBRANCH   8  21
BRANCH   3  33
ATOM     33  O   UNL     1       7.118   4.083  13.297  0.00  0.00    +0.000 OA
ATOM     34  H   UNL     1       6.403   3.924  12.661  0.00  0.00    +0.000 HD
ENDBRANCH   3  33
TORSDOF 5
ENDMDL
MODEL 6
REMARK VINA RESULT:      -8.7      3.747      7.402
REMARK  Name = 
REMARK  5 active torsions:
REMARK  status: ('A' for Active; 'I' for Inactive)
REMARK    1  A    between atoms: C_2  and  C_9
REMARK    2  A    between atoms: C_11  and  O_12
REMARK    3  A    between atoms: C_17  and  S_18
REMARK    4  A    between atoms: S_18  and  N_21
REMARK    5  A    between atoms: N_21  and  C_22
REMARK                            x       y       z     vdW  Elec       q    Type
REMARK                         _______ _______ _______ _____ _____    ______ ____
ROOT
ATOM      1  C   UNL     1       6.338   5.448  16.914  0.00  0.00    +0.000 A 
ATOM      2  C   UNL     1       6.959   5.009  15.745  0.00  0.00    +0.000 A 
ATOM      3  C   UNL     1       6.272   4.117  14.956  0.00  0.00    +0.000 A 
ATOM      4  N   UNL     1       5.054   3.634  15.252  0.00  0.00    +0.000 NA
ATOM      5  C   UNL     1       4.440   4.069  16.361  0.00  0.00    +0.000 A 
ATOM      6  C   UNL     1       3.173   3.568  16.670  0.00  0.00    +0.000 A 
ATOM      7  C   UNL     1       2.468   3.964  17.815  0.00  0.00    +0.000 A 
ATOM      8  C   UNL     1       3.025   4.933  18.635  0.00  0.00    +0.000 A 
ATOM      9  C   UNL     1       4.274   5.468  18.328  0.00  0.00    +0.000 A 
ATOM     10  C   UNL     1       5.027   5.013  17.228  0.00  0.00    +0.000 A 
ENDROOT
BRANCH   1  12
ATOM     11  O   UNL     1       7.653   5.953  18.758  0.00  0.00    +0.000 OA
ATOM     12  C   UNL     1       7.123   6.406  17.750  0.00  0.00    +0.000 C 
ATOM     13  N   UNL     1       7.154   7.716  17.312  0.00  0.00    +0.000 N 
ATOM     14  C   UNL     1       7.953   8.657  17.916  0.00  0.00    +0.000 A 
ATOM     15  N   UNL     1       8.679   8.575  19.007  0.00  0.00    +0.000 NA
ATOM     16  N   UNL     1       9.282   9.794  19.222  0.00  0.00    +0.000 NA
ATOM     17  C   UNL     1       8.933  10.585  18.237  0.00  0.00    +0.000 A 
ATOM     18  N   UNL     1       8.116   9.911  17.383  0.00  0.00    +0.000 N 
ATOM     19  H   UNL     1       6.611   8.002  16.509  0.00  0.00    +0.000 HD
ATOM     20  H   UNL     1       7.734  10.258  16.517  0.00  0.00    +0.000 HD
ENDBRANCH   1  12
BRANCH   8  21
ATOM     21  S   UNL     1       2.282   5.423  20.171  0.00  0.00    +0.000 S 
ATOM     22  O   UNL     1       0.852   5.485  19.961  0.00  0.00    +0.000 OA
ATOM     23  O   UNL     1       2.850   4.582  21.205  0.00  0.00    +0.000 OA
BRANCH  21  24
ATOM     24  N   UNL     1       2.810   7.020  20.355  0.00  0.00    +0.000 N 
ATOM     25  H   UNL     1       3.811   7.078  20.162  0.00  0.00    +0.000 HD
BRANCH  24  26
ATOM     26  C   UNL     1       1.991   8.052  19.812  0.00  0.00    +0.000 A 
ATOM     27  C   UNL     1       1.059   8.702  20.621  0.00  0.00    +0.000 A 
ATOM     28  C   UNL     1       0.174   9.625  20.059  0.00  0.00    +0.000 A 
ATOM     29  C   UNL     1       0.244   9.901  18.698  0.00  0.00    +0.000 A 
ATOM     30  F   UNL     1      -0.603  10.784  18.157  0.00  0.00    +0.000 F 
ATOM     31  C   UNL     1       1.184   9.271  17.889  0.00  0.00    +0.000 A 
ATOM     32  C   UNL     1       2.059   8.337  18.446  0.00  0.00    +0.000 A 
ENDBRANCH  24  26
ENDBRANCH  21  24
ENDBRANCH   8  21
BRANCH   3  33
ATOM     33  O   UNL     1       6.809   3.644  13.796  0.00  0.00    +0.000 OA
ATOM     34  H   UNL     1       7.498   2.997  14.015  0.00  0.00    +0.000 HD
ENDBRANCH   3  33
TORSDOF 5
ENDMDL
MODEL 7
REMARK VINA RESULT:      -8.4      2.706      3.344
REMARK  Name = 
REMARK  5 active torsions:
REMARK  status: ('A' for Active; 'I' for Inactive)
REMARK    1  A    between atoms: C_2  and  C_9
REMARK    2  A    between atoms: C_11  and  O_12
REMARK    3  A    between atoms: C_17  and  S_18
REMARK    4  A    between atoms: S_18  and  N_21
REMARK    5  A    between atoms: N_21  and  C_22
REMARK                            x       y       z     vdW  Elec       q    Type
REMARK                         _______ _______ _______ _____ _____    ______ ____
ROOT
ATOM      1  C   UNL     1       2.476   5.610  19.577  0.00  0.00    +0.000 A 
ATOM      2  C   UNL     1       1.925   4.936  20.667  0.00  0.00    +0.000 A 
ATOM      3  C   UNL     1       2.164   3.586  20.766  0.00  0.00    +0.000 A 
ATOM      4  N   UNL     1       2.876   2.880  19.873  0.00  0.00    +0.000 NA
ATOM      5  C   UNL     1       3.429   3.524  18.835  0.00  0.00    +0.000 A 
ATOM      6  C   UNL     1       4.169   2.792  17.905  0.00  0.00    +0.000 A 
ATOM      7  C   UNL     1       4.771   3.387  16.788  0.00  0.00    +0.000 A 
ATOM      8  C   UNL     1       4.677   4.762  16.637  0.00  0.00    +0.000 A 
ATOM      9  C   UNL     1       3.968   5.515  17.571  0.00  0.00    +0.000 A 
ATOM     10  C   UNL     1       3.287   4.914  18.648  0.00  0.00    +0.000 A 
ENDROOT
BRANCH   1  12
ATOM     11  O   UNL     1       2.434   7.631  18.436  0.00  0.00    +0.000 OA
ATOM     12  C   UNL     1       2.182   7.073  19.498  0.00  0.00    +0.000 C 
ATOM     13  N   UNL     1       1.674   7.656  20.643  0.00  0.00    +0.000 N 
ATOM     14  C   UNL     1       1.234   8.959  20.653  0.00  0.00    +0.000 A 
ATOM     15  N   UNL     1       1.317   9.885  19.725  0.00  0.00    +0.000 NA
ATOM     16  N   UNL     1       0.756  11.043  20.216  0.00  0.00    +0.000 NA
ATOM     17  C   UNL     1       0.316  10.787  21.423  0.00  0.00    +0.000 A 
ATOM     18  N   UNL     1       0.575   9.488  21.733  0.00  0.00    +0.000 N 
ATOM     19  H   UNL     1       1.581   7.120  21.495  0.00  0.00    +0.000 HD
ATOM     20  H   UNL     1       0.308   9.006  22.578  0.00  0.00    +0.000 HD
ENDBRANCH   1  12
BRANCH   8  21
ATOM     21  S   UNL     1       5.293   5.609  15.204  0.00  0.00    +0.000 S 
ATOM     22  O   UNL     1       5.068   4.749  14.062  0.00  0.00    +0.000 OA
ATOM     23  O   UNL     1       4.758   6.955  15.243  0.00  0.00    +0.000 OA
BRANCH  21  24
ATOM     24  N   UNL     1       6.964   5.632  15.466  0.00  0.00    +0.000 N 
ATOM     25  H   UNL     1       7.409   6.271  14.805  0.00  0.00    +0.000 HD
BRANCH  24  26
ATOM     26  C   UNL     1       7.420   5.685  16.815  0.00  0.00    +0.000 A 
ATOM     27  C   UNL     1       7.657   4.504  17.519  0.00  0.00    +0.000 A 
ATOM     28  C   UNL     1       7.984   4.557  18.876  0.00  0.00    +0.000 A 
ATOM     29  C   UNL     1       8.088   5.790  19.508  0.00  0.00    +0.000 A 
ATOM     30  F   UNL     1       8.401   5.845  20.808  0.00  0.00    +0.000 F 
ATOM     31  C   UNL     1       7.873   6.973  18.808  0.00  0.00    +0.000 A 
ATOM     32  C   UNL     1       7.530   6.922  17.455  0.00  0.00    +0.000 A 
ENDBRANCH  24  26
ENDBRANCH  21  24
ENDBRANCH   8  21
BRANCH   3  33
ATOM     33  O   UNL     1       1.664   2.857  21.804  0.00  0.00    +0.000 OA
ATOM     34  H   UNL     1       2.353   2.770  22.481  0.00  0.00    +0.000 HD
ENDBRANCH   3  33
TORSDOF 5
ENDMDL
MODEL 8
REMARK VINA RESULT:      -8.4      8.253     11.535
REMARK  Name = 
REMARK  5 active torsions:
REMARK  status: ('A' for Active; 'I' for Inactive)
REMARK    1  A    between atoms: C_2  and  C_9
REMARK    2  A    between atoms: C_11  and  O_12
REMARK    3  A    between atoms: C_17  and  S_18
REMARK    4  A    between atoms: S_18  and  N_21
REMARK    5  A    between atoms: N_21  and  C_22
REMARK                            x       y       z     vdW  Elec       q    Type
REMARK                         _______ _______ _______ _____ _____    ______ ____
ROOT
ATOM      1  C   UNL     1      -3.420  13.670  22.562  0.00  0.00    +0.000 A 
ATOM      2  C   UNL     1      -3.324  14.498  23.681  0.00  0.00    +0.000 A 
ATOM      3  C   UNL     1      -4.436  15.228  24.028  0.00  0.00    +0.000 A 
ATOM      4  N   UNL     1      -5.595  15.204  23.349  0.00  0.00    +0.000 NA
ATOM      5  C   UNL     1      -5.703  14.393  22.287  0.00  0.00    +0.000 A 
ATOM      6  C   UNL     1      -6.907  14.367  21.580  0.00  0.00    +0.000 A 
ATOM      7  C   UNL     1      -7.099  13.554  20.454  0.00  0.00    +0.000 A 
ATOM      8  C   UNL     1      -6.075  12.703  20.068  0.00  0.00    +0.000 A 
ATOM      9  C   UNL     1      -4.877  12.692  20.778  0.00  0.00    +0.000 A 
ATOM     10  C   UNL     1      -4.645  13.567  21.857  0.00  0.00    +0.000 A 
ENDROOT
BRANCH   1  12
ATOM     11  O   UNL     1      -1.412  13.438  21.421  0.00  0.00    +0.000 OA
ATOM     12  C   UNL     1      -2.186  12.905  22.209  0.00  0.00    +0.000 C 
ATOM     13  N   UNL     1      -2.052  11.660  22.791  0.00  0.00    +0.000 N 
ATOM     14  C   UNL     1      -0.900  10.922  22.655  0.00  0.00    +0.000 A 
ATOM     15  N   UNL     1       0.160  11.141  21.912  0.00  0.00    +0.000 NA
ATOM     16  N   UNL     1       1.042  10.100  22.096  0.00  0.00    +0.000 NA
ATOM     17  C   UNL     1       0.512   9.284  22.973  0.00  0.00    +0.000 A 
ATOM     18  N   UNL     1      -0.697   9.767  23.367  0.00  0.00    +0.000 N 
ATOM     19  H   UNL     1      -2.793  11.278  23.364  0.00  0.00    +0.000 HD
ATOM     20  H   UNL     1      -1.305   9.369  24.065  0.00  0.00    +0.000 HD
ENDBRANCH   1  12
BRANCH   8  21
ATOM     21  S   UNL     1      -6.157  11.721  18.592  0.00  0.00    +0.000 S 
ATOM     22  O   UNL     1      -5.744  10.379  18.940  0.00  0.00    +0.000 OA
ATOM     23  O   UNL     1      -7.450  11.971  17.986  0.00  0.00    +0.000 OA
BRANCH  21  24
ATOM     24  N   UNL     1      -4.923  12.371  17.634  0.00  0.00    +0.000 N 
ATOM     25  H   UNL     1      -4.829  13.370  17.822  0.00  0.00    +0.000 HD
BRANCH  24  26
ATOM     26  C   UNL     1      -3.716  11.623  17.518  0.00  0.00    +0.000 A 
ATOM     27  C   UNL     1      -3.560  10.704  16.479  0.00  0.00    +0.000 A 
ATOM     28  C   UNL     1      -2.430   9.886  16.438  0.00  0.00    +0.000 A 
ATOM     29  C   UNL     1      -1.459  10.008  17.426  0.00  0.00    +0.000 A 
ATOM     30  F   UNL     1      -0.375   9.224  17.390  0.00  0.00    +0.000 F 
ATOM     31  C   UNL     1      -1.598  10.935  18.454  0.00  0.00    +0.000 A 
ATOM     32  C   UNL     1      -2.734  11.744  18.505  0.00  0.00    +0.000 A 
ENDBRANCH  24  26
ENDBRANCH  21  24
ENDBRANCH   8  21
BRANCH   3  33
ATOM     33  O   UNL     1      -4.424  16.057  25.110  0.00  0.00    +0.000 OA
ATOM     34  H   UNL     1      -4.364  16.973  24.798  0.00  0.00    +0.000 HD
ENDBRANCH   3  33
TORSDOF 5
ENDMDL
MODEL 9
REMARK VINA RESULT:      -8.4      2.919      3.595
REMARK  Name = 
REMARK  5 active torsions:
REMARK  status: ('A' for Active; 'I' for Inactive)
REMARK    1  A    between atoms: C_2  and  C_9
REMARK    2  A    between atoms: C_11  and  O_12
REMARK    3  A    between atoms: C_17  and  S_18
REMARK    4  A    between atoms: S_18  and  N_21
REMARK    5  A    between atoms: N_21  and  C_22
REMARK                            x       y       z     vdW  Elec       q    Type
REMARK                         _______ _______ _______ _____ _____    ______ ____
ROOT
ATOM      1  C   UNL     1       2.150   5.170  20.004  0.00  0.00    +0.000 A 
ATOM      2  C   UNL     1       1.469   4.533  21.042  0.00  0.00    +0.000 A 
ATOM      3  C   UNL     1       1.574   3.165  21.125  0.00  0.00    +0.000 A 
ATOM      4  N   UNL     1       2.274   2.409  20.263  0.00  0.00    +0.000 NA
ATOM      5  C   UNL     1       2.951   3.016  19.278  0.00  0.00    +0.000 A 
ATOM      6  C   UNL     1       3.680   2.232  18.380  0.00  0.00    +0.000 A 
ATOM      7  C   UNL     1       4.406   2.787  17.317  0.00  0.00    +0.000 A 
ATOM      8  C   UNL     1       4.450   4.167  17.192  0.00  0.00    +0.000 A 
ATOM      9  C   UNL     1       3.754   4.967  18.095  0.00  0.00    +0.000 A 
ATOM     10  C   UNL     1       2.952   4.415  19.113  0.00  0.00    +0.000 A 
ENDROOT
BRANCH   1  12
ATOM     11  O   UNL     1       2.417   7.210  18.930  0.00  0.00    +0.000 OA
ATOM     12  C   UNL     1       1.999   6.655  19.940  0.00  0.00    +0.000 C 
ATOM     13  N   UNL     1       1.421   7.258  21.040  0.00  0.00    +0.000 N 
ATOM     14  C   UNL     1       1.101   8.595  21.042  0.00  0.00    +0.000 A 
ATOM     15  N   UNL     1       1.370   9.529  20.159  0.00  0.00    +0.000 NA
ATOM     16  N   UNL     1       0.864  10.723  20.622  0.00  0.00    +0.000 NA
ATOM     17  C   UNL     1       0.270  10.484  21.765  0.00  0.00    +0.000 A 
ATOM     18  N   UNL     1       0.376   9.160  22.061  0.00  0.00    +0.000 N 
ATOM     19  H   UNL     1       1.185   6.715  21.860  0.00  0.00    +0.000 HD
ATOM     20  H   UNL     1      -0.025   8.687  22.855  0.00  0.00    +0.000 HD
ENDBRANCH   1  12
BRANCH   8  21
ATOM     21  S   UNL     1       5.234   4.975  15.821  0.00  0.00    +0.000 S 
ATOM     22  O   UNL     1       5.120   4.096  14.676  0.00  0.00    +0.000 OA
ATOM     23  O   UNL     1       4.722   6.329  15.775  0.00  0.00    +0.000 OA
BRANCH  21  24
ATOM     24  N   UNL     1       6.867   4.976  16.264  0.00  0.00    +0.000 N 
ATOM     25  H   UNL     1       7.447   4.765  15.450  0.00  0.00    +0.000 HD
BRANCH  24  26
ATOM     26  C   UNL     1       7.317   6.025  17.117  0.00  0.00    +0.000 A 
ATOM     27  C   UNL     1       7.431   7.326  16.624  0.00  0.00    +0.000 A 
ATOM     28  C   UNL     1       7.988   8.326  17.424  0.00  0.00    +0.000 A 
ATOM     29  C   UNL     1       8.407   8.019  18.714  0.00  0.00    +0.000 A 
ATOM     30  F   UNL     1       8.941   8.974  19.482  0.00  0.00    +0.000 F 
ATOM     31  C   UNL     1       8.278   6.729  19.219  0.00  0.00    +0.000 A 
ATOM     32  C   UNL     1       7.736   5.724  18.415  0.00  0.00    +0.000 A 
ENDBRANCH  24  26
ENDBRANCH  21  24
ENDBRANCH   8  21
BRANCH   3  33
ATOM     33  O   UNL     1       0.942   2.469  22.113  0.00  0.00    +0.000 OA
ATOM     34  H   UNL     1       1.593   2.235  22.792  0.00  0.00    +0.000 HD
ENDBRANCH   3  33
TORSDOF 5
ENDMDL
