MODEL 1
REMARK VINA RESULT:      -9.3      0.000      0.000
REMARK  Name = 
REMARK  8 active torsions:
REMARK  status: ('A' for Active; 'I' for Inactive)
REMARK    1  A    between atoms: C_1  and  C_2
REMARK    2  A    between atoms: C_2  and  C_3
REMARK    3  A    between atoms: C_6  and  C_7
REMARK    4  A    between atoms: C_12  and  N_13
REMARK    5  A    between atoms: C_14  and  C_16
REMARK    6  A    between atoms: C_16  and  C_17
REMARK    7  A    between atoms: C_17  and  C_18
REMARK    8  A    between atoms: C_18  and  C_19
REMARK                            x       y       z     vdW  Elec       q    Type
REMARK                         _______ _______ _______ _____ _____    ______ ____
ROOT
ATOM      1  N   UNL     1       2.635   5.927  17.694  0.00  0.00    +0.000 N 
ATOM      2  C   UNL     1       2.598   6.998  18.565  0.00  0.00    +0.000 C 
ATOM      3  O   UNL     1       2.532   6.931  19.791  0.00  0.00    +0.000 OA
ATOM      4  H   UNL     1       2.800   6.104  16.702  0.00  0.00    +0.000 HD
ENDROOT
BRANCH   1  10
ATOM      5  C   UNL     1       3.779   3.788  18.111  0.00  0.00    +0.000 A 
ATOM      6  C   UNL     1       3.694   2.416  18.432  0.00  0.00    +0.000 A 
ATOM      7  C   UNL     1       2.475   1.819  18.753  0.00  0.00    +0.000 A 
ATOM      8  C   UNL     1       1.317   2.579  18.733  0.00  0.00    +0.000 A 
ATOM      9  C   UNL     1       1.372   3.924  18.370  0.00  0.00    +0.000 A 
ATOM     10  C   UNL     1       2.587   4.551  18.054  0.00  0.00    +0.000 A 
BRANCH   5  14
ATOM     11  C   UNL     1       6.914   5.489  18.105  0.00  0.00    +0.000 A 
ATOM     12  N   UNL     1       7.230   4.545  17.215  0.00  0.00    +0.000 NA
ATOM     13  N   UNL     1       6.081   3.864  17.133  0.00  0.00    +0.000 N 
ATOM     14  C   UNL     1       5.104   4.397  17.935  0.00  0.00    +0.000 A 
ATOM     15  N   UNL     1       5.620   5.436  18.571  0.00  0.00    +0.000 NA
ATOM     16  H   UNL     1       6.048   3.023  16.571  0.00  0.00    +0.000 HD
BRANCH  11  18
ATOM     17  C   UNL     1       7.903   7.745  17.891  0.00  0.00    +0.000 C 
ATOM     18  C   UNL     1       7.923   6.427  18.651  0.00  0.00    +0.000 C 
ENDBRANCH  11  18
ENDBRANCH   5  14
ENDBRANCH   1  10
BRANCH   2  19
ATOM     19  C   UNL     1       2.652   8.352  17.887  0.00  0.00    +0.000 C 
BRANCH  19  20
ATOM     20  C   UNL     1       1.265   9.001  17.871  0.00  0.00    +0.000 C 
BRANCH  20  21
ATOM     21  C   UNL     1       1.052   9.956  19.054  0.00  0.00    +0.000 C 
BRANCH  21  22
ATOM     22  C   UNL     1      -0.346  10.523  19.019  0.00  0.00    +0.000 A 
ATOM     23  C   UNL     1      -0.722  11.532  19.936  0.00  0.00    +0.000 A 
ATOM     24  C   UNL     1      -1.968  12.158  19.846  0.00  0.00    +0.000 A 
ATOM     25  C   UNL     1      -2.802  11.757  18.827  0.00  0.00    +0.000 A 
ATOM     26  C   UNL     1      -2.459  10.754  17.924  0.00  0.00    +0.000 A 
ATOM     27  C   UNL     1      -1.237  10.117  18.010  0.00  0.00    +0.000 A 
ATOM     28  C   UNL     1      -3.561  10.583  16.923  0.00  0.00    +0.000 C 
ATOM     29  C   UNL     1      -4.584  11.635  17.383  0.00  0.00    +0.000 C 
ATOM     30  O   UNL     1      -5.655  11.889  16.859  0.00  0.00    +0.000 OA
ATOM     31  N   UNL     1      -4.050  12.264  18.508  0.00  0.00    +0.000 N 
ATOM     32  H   UNL     1      -4.527  13.010  18.988  0.00  0.00    +0.000 HD
ENDBRANCH  21  22
ENDBRANCH  20  21
ENDBRANCH  19  20
ENDBRANCH   2  19
TORSDOF 7
ENDMDL
MODEL 2
REMARK VINA RESULT:      -9.1      1.328      1.779
REMARK  Name = 
REMARK  8 active torsions:
REMARK  status: ('A' for Active; 'I' for Inactive)
REMARK    1  A    between atoms: C_1  and  C_2
REMARK    2  A    between atoms: C_2  and  C_3
REMARK    3  A    between atoms: C_6  and  C_7
REMARK    4  A    between atoms: C_12  and  N_13
REMARK    5  A    between atoms: C_14  and  C_16
REMARK    6  A    between atoms: C_16  and  C_17
REMARK    7  A    between atoms: C_17  and  C_18
REMARK    8  A    between atoms: C_18  and  C_19
REMARK                            x       y       z     vdW  Elec       q    Type
REMARK                         _______ _______ _______ _____ _____    ______ ____
ROOT
ATOM      1  N   UNL     1       2.497   6.227  18.855  0.00  0.00    +0.000 N 
ATOM      2  C   UNL     1       2.177   7.478  19.348  0.00  0.00    +0.000 C 
ATOM      3  O   UNL     1       1.824   7.734  20.497  0.00  0.00    +0.000 OA
ATOM      4  H   UNL     1       2.882   6.153  17.913  0.00  0.00    +0.000 HD
ENDROOT
BRANCH   1  10
ATOM      5  C   UNL     1       3.608   4.181  19.651  0.00  0.00    +0.000 A 
ATOM      6  C   UNL     1       3.527   2.955  20.347  0.00  0.00    +0.000 A 
ATOM      7  C   UNL     1       2.364   2.576  21.016  0.00  0.00    +0.000 A 
ATOM      8  C   UNL     1       1.255   3.405  20.980  0.00  0.00    +0.000 A 
ATOM      9  C   UNL     1       1.297   4.595  20.256  0.00  0.00    +0.000 A 
ATOM     10  C   UNL     1       2.459   5.006  19.584  0.00  0.00    +0.000 A 
BRANCH   5  14
ATOM     11  C   UNL     1       6.732   5.564  18.625  0.00  0.00    +0.000 A 
ATOM     12  N   UNL     1       6.907   4.345  18.109  0.00  0.00    +0.000 NA
ATOM     13  N   UNL     1       5.750   3.754  18.428  0.00  0.00    +0.000 N 
ATOM     14  C   UNL     1       4.903   4.601  19.097  0.00  0.00    +0.000 A 
ATOM     15  N   UNL     1       5.517   5.764  19.239  0.00  0.00    +0.000 NA
ATOM     16  H   UNL     1       5.626   2.771  18.220  0.00  0.00    +0.000 HD
BRANCH  11  18
ATOM     17  C   UNL     1       7.643   7.595  17.550  0.00  0.00    +0.000 C 
ATOM     18  C   UNL     1       7.821   6.569  18.658  0.00  0.00    +0.000 C 
ENDBRANCH  11  18
ENDBRANCH   5  14
ENDBRANCH   1  10
BRANCH   2  19
ATOM     19  C   UNL     1       2.299   8.595  18.330  0.00  0.00    +0.000 C 
BRANCH  19  20
ATOM     20  C   UNL     1       0.919   8.981  17.788  0.00  0.00    +0.000 C 
BRANCH  20  21
ATOM     21  C   UNL     1       0.250  10.083  18.622  0.00  0.00    +0.000 C 
BRANCH  21  22
ATOM     22  C   UNL     1      -1.117  10.397  18.067  0.00  0.00    +0.000 A 
ATOM     23  C   UNL     1      -1.547   9.790  16.864  0.00  0.00    +0.000 A 
ATOM     24  C   UNL     1      -2.850   9.969  16.393  0.00  0.00    +0.000 A 
ATOM     25  C   UNL     1      -3.693  10.749  17.153  0.00  0.00    +0.000 A 
ATOM     26  C   UNL     1      -3.286  11.369  18.332  0.00  0.00    +0.000 A 
ATOM     27  C   UNL     1      -1.996  11.213  18.801  0.00  0.00    +0.000 A 
ATOM     28  C   UNL     1      -4.441  12.110  18.933  0.00  0.00    +0.000 C 
ATOM     29  C   UNL     1      -5.570  11.820  17.930  0.00  0.00    +0.000 C 
ATOM     30  O   UNL     1      -6.726  12.201  18.002  0.00  0.00    +0.000 OA
ATOM     31  N   UNL     1      -5.029  11.023  16.921  0.00  0.00    +0.000 N 
ATOM     32  H   UNL     1      -5.578  10.682  16.148  0.00  0.00    +0.000 HD
ENDBRANCH  21  22
ENDBRANCH  20  21
ENDBRANCH  19  20
ENDBRANCH   2  19
TORSDOF 7
ENDMDL
MODEL 3
REMARK VINA RESULT:      -9.0      2.300      2.684
REMARK  Name = 
REMARK  8 active torsions:
REMARK  status: ('A' for Active; 'I' for Inactive)
REMARK    1  A    between atoms: C_1  and  C_2
REMARK    2  A    between atoms: C_2  and  C_3
REMARK    3  A    between atoms: C_6  and  C_7
REMARK    4  A    between atoms: C_12  and  N_13
REMARK    5  A    between atoms: C_14  and  C_16
REMARK    6  A    between atoms: C_16  and  C_17
REMARK    7  A    between atoms: C_17  and  C_18
REMARK    8  A    between atoms: C_18  and  C_19
REMARK                            x       y       z     vdW  Elec       q    Type
REMARK                         _______ _______ _______ _____ _____    ______ ____
ROOT
ATOM      1  N   UNL     1       2.702   5.929  17.656  0.00  0.00    +0.000 N 
ATOM      2  C   UNL     1       2.611   6.985  18.542  0.00  0.00    +0.000 C 
ATOM      3  O   UNL     1       2.485   6.898  19.761  0.00  0.00    +0.000 OA
ATOM      4  H   UNL     1       2.914   6.125  16.677  0.00  0.00    +0.000 HD
ENDROOT
BRANCH   1  10
ATOM      5  C   UNL     1       3.839   3.784  18.054  0.00  0.00    +0.000 A 
ATOM      6  C   UNL     1       3.750   2.406  18.350  0.00  0.00    +0.000 A 
ATOM      7  C   UNL     1       2.526   1.803  18.641  0.00  0.00    +0.000 A 
ATOM      8  C   UNL     1       1.369   2.564  18.616  0.00  0.00    +0.000 A 
ATOM      9  C   UNL     1       1.429   3.915  18.276  0.00  0.00    +0.000 A 
ATOM     10  C   UNL     1       2.649   4.548  17.992  0.00  0.00    +0.000 A 
BRANCH   5  14
ATOM     11  C   UNL     1       6.971   5.490  18.126  0.00  0.00    +0.000 A 
ATOM     12  N   UNL     1       7.308   4.551  17.239  0.00  0.00    +0.000 NA
ATOM     13  N   UNL     1       6.163   3.868  17.128  0.00  0.00    +0.000 N 
ATOM     14  C   UNL     1       5.167   4.396  17.910  0.00  0.00    +0.000 A 
ATOM     15  N   UNL     1       5.667   5.433  18.563  0.00  0.00    +0.000 NA
ATOM     16  H   UNL     1       6.144   3.030  16.561  0.00  0.00    +0.000 HD
BRANCH  11  18
ATOM     17  C   UNL     1       7.927   7.765  17.977  0.00  0.00    +0.000 C 
ATOM     18  C   UNL     1       7.967   6.427  18.699  0.00  0.00    +0.000 C 
ENDBRANCH  11  18
ENDBRANCH   5  14
ENDBRANCH   1  10
BRANCH   2  19
ATOM     19  C   UNL     1       2.687   8.351  17.889  0.00  0.00    +0.000 C 
BRANCH  19  20
ATOM     20  C   UNL     1       1.319   9.039  17.922  0.00  0.00    +0.000 C 
BRANCH  20  21
ATOM     21  C   UNL     1       1.385  10.442  18.543  0.00  0.00    +0.000 C 
BRANCH  21  22
ATOM     22  C   UNL     1       0.561  10.490  19.806  0.00  0.00    +0.000 A 
ATOM     23  C   UNL     1       0.918   9.686  20.913  0.00  0.00    +0.000 A 
ATOM     24  C   UNL     1       0.246   9.801  22.133  0.00  0.00    +0.000 A 
ATOM     25  C   UNL     1      -0.766  10.732  22.209  0.00  0.00    +0.000 A 
ATOM     26  C   UNL     1      -1.145  11.521  21.127  0.00  0.00    +0.000 A 
ATOM     27  C   UNL     1      -0.500  11.408  19.911  0.00  0.00    +0.000 A 
ATOM     28  C   UNL     1      -2.243  12.451  21.546  0.00  0.00    +0.000 C 
ATOM     29  C   UNL     1      -2.435  12.080  23.026  0.00  0.00    +0.000 C 
ATOM     30  O   UNL     1      -3.219  12.589  23.809  0.00  0.00    +0.000 OA
ATOM     31  N   UNL     1      -1.529  11.060  23.315  0.00  0.00    +0.000 N 
ATOM     32  H   UNL     1      -1.448  10.654  24.234  0.00  0.00    +0.000 HD
ENDBRANCH  21  22
ENDBRANCH  20  21
ENDBRANCH  19  20
ENDBRANCH   2  19
TORSDOF 7
ENDMDL
MODEL 4
REMARK VINA RESULT:      -8.9      1.658      1.903
REMARK  Name = 
REMARK  8 active torsions:
REMARK  status: ('A' for Active; 'I' for Inactive)
REMARK    1  A    between atoms: C_1  and  C_2
REMARK    2  A    between atoms: C_2  and  C_3
REMARK    3  A    between atoms: C_6  and  C_7
REMARK    4  A    between atoms: C_12  and  N_13
REMARK    5  A    between atoms: C_14  and  C_16
REMARK    6  A    between atoms: C_16  and  C_17
REMARK    7  A    between atoms: C_17  and  C_18
REMARK    8  A    between atoms: C_18  and  C_19
REMARK                            x       y       z     vdW  Elec       q    Type
REMARK                         _______ _______ _______ _____ _____    ______ ____
ROOT
ATOM      1  N   UNL     1       3.108   6.058  19.457  0.00  0.00    +0.000 N 
ATOM      2  C   UNL     1       2.457   6.412  18.291  0.00  0.00    +0.000 C 
ATOM      3  O   UNL     1       1.740   5.681  17.612  0.00  0.00    +0.000 OA
ATOM      4  H   UNL     1       3.588   6.782  19.993  0.00  0.00    +0.000 HD
ENDROOT
BRANCH   1  10
ATOM      5  C   UNL     1       4.043   3.798  19.723  0.00  0.00    +0.000 A 
ATOM      6  C   UNL     1       3.965   2.522  20.323  0.00  0.00    +0.000 A 
ATOM      7  C   UNL     1       3.006   2.232  21.293  0.00  0.00    +0.000 A 
ATOM      8  C   UNL     1       2.092   3.206  21.661  0.00  0.00    +0.000 A 
ATOM      9  C   UNL     1       2.119   4.456  21.044  0.00  0.00    +0.000 A 
ATOM     10  C   UNL     1       3.082   4.777  20.074  0.00  0.00    +0.000 A 
BRANCH   5  14
ATOM     11  C   UNL     1       6.438   4.572  17.197  0.00  0.00    +0.000 A 
ATOM     12  N   UNL     1       7.215   4.827  18.253  0.00  0.00    +0.000 NA
ATOM     13  N   UNL     1       6.391   4.532  19.265  0.00  0.00    +0.000 N 
ATOM     14  C   UNL     1       5.167   4.095  18.826  0.00  0.00    +0.000 A 
ATOM     15  N   UNL     1       5.175   4.120  17.502  0.00  0.00    +0.000 NA
ATOM     16  H   UNL     1       6.697   4.706  20.214  0.00  0.00    +0.000 HD
BRANCH  11  18
ATOM     17  C   UNL     1       5.804   4.454  14.810  0.00  0.00    +0.000 C 
ATOM     18  C   UNL     1       6.861   4.892  15.813  0.00  0.00    +0.000 C 
ENDBRANCH  11  18
ENDBRANCH   5  14
ENDBRANCH   1  10
BRANCH   2  19
ATOM     19  C   UNL     1       2.682   7.850  17.867  0.00  0.00    +0.000 C 
BRANCH  19  20
ATOM     20  C   UNL     1       1.879   8.805  18.755  0.00  0.00    +0.000 C 
BRANCH  20  21
ATOM     21  C   UNL     1       1.709  10.192  18.119  0.00  0.00    +0.000 C 
BRANCH  21  22
ATOM     22  C   UNL     1       0.299  10.688  18.325  0.00  0.00    +0.000 A 
ATOM     23  C   UNL     1       0.075  11.959  18.904  0.00  0.00    +0.000 A 
ATOM     24  C   UNL     1      -1.214  12.491  18.994  0.00  0.00    +0.000 A 
ATOM     25  C   UNL     1      -2.246  11.733  18.489  0.00  0.00    +0.000 A 
ATOM     26  C   UNL     1      -2.050  10.473  17.930  0.00  0.00    +0.000 A 
ATOM     27  C   UNL     1      -0.784   9.927  17.849  0.00  0.00    +0.000 A 
ATOM     28  C   UNL     1      -3.360   9.930  17.445  0.00  0.00    +0.000 C 
ATOM     29  C   UNL     1      -4.334  11.065  17.805  0.00  0.00    +0.000 C 
ATOM     30  O   UNL     1      -5.533  11.094  17.585  0.00  0.00    +0.000 OA
ATOM     31  N   UNL     1      -3.586  12.070  18.418  0.00  0.00    +0.000 N 
ATOM     32  H   UNL     1      -3.997  12.935  18.732  0.00  0.00    +0.000 HD
ENDBRANCH  21  22
ENDBRANCH  20  21
ENDBRANCH  19  20
ENDBRANCH   2  19
TORSDOF 7
ENDMDL
MODEL 5
REMARK VINA RESULT:      -8.9      1.090      1.107
REMARK  Name = 
REMARK  8 active torsions:
REMARK  status: ('A' for Active; 'I' for Inactive)
REMARK    1  A    between atoms: C_1  and  C_2
REMARK    2  A    between atoms: C_2  and  C_3
REMARK    3  A    between atoms: C_6  and  C_7
REMARK    4  A    between atoms: C_12  and  N_13
REMARK    5  A    between atoms: C_14  and  C_16
REMARK    6  A    between atoms: C_16  and  C_17
REMARK    7  A    between atoms: C_17  and  C_18
REMARK    8  A    between atoms: C_18  and  C_19
REMARK                            x       y       z     vdW  Elec       q    Type
REMARK                         _______ _______ _______ _____ _____    ______ ____
ROOT
ATOM      1  N   UNL     1       2.211   6.150  18.472  0.00  0.00    +0.000 N 
ATOM      2  C   UNL     1       2.099   6.734  19.719  0.00  0.00    +0.000 C 
ATOM      3  O   UNL     1       2.199   6.157  20.799  0.00  0.00    +0.000 OA
ATOM      4  H   UNL     1       2.218   6.749  17.646  0.00  0.00    +0.000 HD
ENDROOT
BRANCH   1  10
ATOM      5  C   UNL     1       3.669   4.351  17.640  0.00  0.00    +0.000 A 
ATOM      6  C   UNL     1       3.853   2.980  17.355  0.00  0.00    +0.000 A 
ATOM      7  C   UNL     1       2.883   2.033  17.682  0.00  0.00    +0.000 A 
ATOM      8  C   UNL     1       1.701   2.445  18.276  0.00  0.00    +0.000 A 
ATOM      9  C   UNL     1       1.478   3.799  18.519  0.00  0.00    +0.000 A 
ATOM     10  C   UNL     1       2.443   4.771  18.211  0.00  0.00    +0.000 A 
BRANCH   5  14
ATOM     11  C   UNL     1       6.536   6.470  17.537  0.00  0.00    +0.000 A 
ATOM     12  N   UNL     1       6.280   6.465  16.226  0.00  0.00    +0.000 NA
ATOM     13  N   UNL     1       5.182   5.701  16.174  0.00  0.00    +0.000 N 
ATOM     14  C   UNL     1       4.784   5.280  17.418  0.00  0.00    +0.000 A 
ATOM     15  N   UNL     1       5.643   5.757  18.304  0.00  0.00    +0.000 NA
ATOM     16  H   UNL     1       4.796   5.457  15.271  0.00  0.00    +0.000 HD
BRANCH  11  18
ATOM     17  C   UNL     1       7.893   8.532  17.674  0.00  0.00    +0.000 C 
ATOM     18  C   UNL     1       7.767   7.076  18.097  0.00  0.00    +0.000 C 
ENDBRANCH  11  18
ENDBRANCH   5  14
ENDBRANCH   1  10
BRANCH   2  19
ATOM     19  C   UNL     1       1.837   8.227  19.683  0.00  0.00    +0.000 C 
BRANCH  19  20
ATOM     20  C   UNL     1       1.826   8.736  18.239  0.00  0.00    +0.000 C 
BRANCH  20  21
ATOM     21  C   UNL     1       1.730  10.267  18.160  0.00  0.00    +0.000 C 
BRANCH  21  22
ATOM     22  C   UNL     1       0.307  10.711  18.395  0.00  0.00    +0.000 A 
ATOM     23  C   UNL     1       0.049  11.905  19.108  0.00  0.00    +0.000 A 
ATOM     24  C   UNL     1      -1.251  12.400  19.235  0.00  0.00    +0.000 A 
ATOM     25  C   UNL     1      -2.260  11.684  18.632  0.00  0.00    +0.000 A 
ATOM     26  C   UNL     1      -2.030  10.498  17.940  0.00  0.00    +0.000 A 
ATOM     27  C   UNL     1      -0.752   9.988  17.819  0.00  0.00    +0.000 A 
ATOM     28  C   UNL     1      -3.322   9.989  17.375  0.00  0.00    +0.000 C 
ATOM     29  C   UNL     1      -4.323  11.058  17.842  0.00  0.00    +0.000 C 
ATOM     30  O   UNL     1      -5.519  11.090  17.606  0.00  0.00    +0.000 OA
ATOM     31  N   UNL     1      -3.605  12.002  18.575  0.00  0.00    +0.000 N 
ATOM     32  H   UNL     1      -4.038  12.819  18.977  0.00  0.00    +0.000 HD
ENDBRANCH  21  22
ENDBRANCH  20  21
ENDBRANCH  19  20
ENDBRANCH   2  19
TORSDOF 7
ENDMDL
MODEL 6
REMARK VINA RESULT:      -8.9      2.841      3.291
REMARK  Name = 
REMARK  8 active torsions:
REMARK  status: ('A' for Active; 'I' for Inactive)
REMARK    1  A    between atoms: C_1  and  C_2
REMARK    2  A    between atoms: C_2  and  C_3
REMARK    3  A    between atoms: C_6  and  C_7
REMARK    4  A    between atoms: C_12  and  N_13
REMARK    5  A    between atoms: C_14  and  C_16
REMARK    6  A    between atoms: C_16  and  C_17
REMARK    7  A    between atoms: C_17  and  C_18
REMARK    8  A    between atoms: C_18  and  C_19
REMARK                            x       y       z     vdW  Elec       q    Type
REMARK                         _______ _______ _______ _____ _____    ______ ____
ROOT
ATOM      1  N   UNL     1       3.135   6.171  19.538  0.00  0.00    +0.000 N 
ATOM      2  C   UNL     1       2.611   6.528  18.310  0.00  0.00    +0.000 C 
ATOM      3  O   UNL     1       1.975   5.796  17.554  0.00  0.00    +0.000 OA
ATOM      4  H   UNL     1       3.550   6.894  20.126  0.00  0.00    +0.000 HD
ENDROOT
BRANCH   1  10
ATOM      5  C   UNL     1       3.961   3.865  19.776  0.00  0.00    +0.000 A 
ATOM      6  C   UNL     1       3.825   2.588  20.363  0.00  0.00    +0.000 A 
ATOM      7  C   UNL     1       2.858   2.335  21.335  0.00  0.00    +0.000 A 
ATOM      8  C   UNL     1       1.994   3.348  21.718  0.00  0.00    +0.000 A 
ATOM      9  C   UNL     1       2.078   4.601  21.114  0.00  0.00    +0.000 A 
ATOM     10  C   UNL     1       3.050   4.886  20.142  0.00  0.00    +0.000 A 
BRANCH   5  14
ATOM     11  C   UNL     1       6.378   4.537  17.241  0.00  0.00    +0.000 A 
ATOM     12  N   UNL     1       7.163   4.779  18.294  0.00  0.00    +0.000 NA
ATOM     13  N   UNL     1       6.330   4.520  19.309  0.00  0.00    +0.000 N 
ATOM     14  C   UNL     1       5.093   4.117  18.875  0.00  0.00    +0.000 A 
ATOM     15  N   UNL     1       5.102   4.128  17.551  0.00  0.00    +0.000 NA
ATOM     16  H   UNL     1       6.642   4.695  20.256  0.00  0.00    +0.000 HD
BRANCH  11  18
ATOM     17  C   UNL     1       5.616   4.864  14.912  0.00  0.00    +0.000 C 
ATOM     18  C   UNL     1       6.810   4.828  15.853  0.00  0.00    +0.000 C 
ENDBRANCH  11  18
ENDBRANCH   5  14
ENDBRANCH   1  10
BRANCH   2  19
ATOM     19  C   UNL     1       2.872   7.970  17.920  0.00  0.00    +0.000 C 
BRANCH  19  20
ATOM     20  C   UNL     1       1.558   8.752  17.842  0.00  0.00    +0.000 C 
BRANCH  20  21
ATOM     21  C   UNL     1       1.657  10.131  18.509  0.00  0.00    +0.000 C 
BRANCH  21  22
ATOM     22  C   UNL     1       0.798  10.172  19.749  0.00  0.00    +0.000 A 
ATOM     23  C   UNL     1       1.023   9.246  20.794  0.00  0.00    +0.000 A 
ATOM     24  C   UNL     1       0.324   9.339  22.001  0.00  0.00    +0.000 A 
ATOM     25  C   UNL     1      -0.579  10.370  22.128  0.00  0.00    +0.000 A 
ATOM     26  C   UNL     1      -0.828  11.282  21.105  0.00  0.00    +0.000 A 
ATOM     27  C   UNL     1      -0.156  11.193  19.902  0.00  0.00    +0.000 A 
ATOM     28  C   UNL     1      -1.830  12.295  21.571  0.00  0.00    +0.000 C 
ATOM     29  C   UNL     1      -2.116  11.831  23.009  0.00  0.00    +0.000 C 
ATOM     30  O   UNL     1      -2.866  12.361  23.810  0.00  0.00    +0.000 OA
ATOM     31  N   UNL     1      -1.341  10.694  23.236  0.00  0.00    +0.000 N 
ATOM     32  H   UNL     1      -1.339  10.209  24.119  0.00  0.00    +0.000 HD
ENDBRANCH  21  22
ENDBRANCH  20  21
ENDBRANCH  19  20
ENDBRANCH   2  19
TORSDOF 7
ENDMDL
MODEL 7
REMARK VINA RESULT:      -8.8      2.211      2.729
REMARK  Name = 
REMARK  8 active torsions:
REMARK  status: ('A' for Active; 'I' for Inactive)
REMARK    1  A    between atoms: C_1  and  C_2
REMARK    2  A    between atoms: C_2  and  C_3
REMARK    3  A    between atoms: C_6  and  C_7
REMARK    4  A    between atoms: C_12  and  N_13
REMARK    5  A    between atoms: C_14  and  C_16
REMARK    6  A    between atoms: C_16  and  C_17
REMARK    7  A    between atoms: C_17  and  C_18
REMARK    8  A    between atoms: C_18  and  C_19
REMARK                            x       y       z     vdW  Elec       q    Type
REMARK                         _______ _______ _______ _____ _____    ______ ____
ROOT
ATOM      1  N   UNL     1       2.432   6.165  18.563  0.00  0.00    +0.000 N 
ATOM      2  C   UNL     1       2.231   7.458  19.005  0.00  0.00    +0.000 C 
ATOM      3  O   UNL     1       2.049   7.805  20.170  0.00  0.00    +0.000 OA
ATOM      4  H   UNL     1       2.681   6.012  17.585  0.00  0.00    +0.000 HD
ENDROOT
BRANCH   1  10
ATOM      5  C   UNL     1       3.606   4.186  19.434  0.00  0.00    +0.000 A 
ATOM      6  C   UNL     1       3.576   3.010  20.216  0.00  0.00    +0.000 A 
ATOM      7  C   UNL     1       2.456   2.669  20.972  0.00  0.00    +0.000 A 
ATOM      8  C   UNL     1       1.337   3.486  20.940  0.00  0.00    +0.000 A 
ATOM      9  C   UNL     1       1.328   4.624  20.135  0.00  0.00    +0.000 A 
ATOM     10  C   UNL     1       2.447   4.996  19.374  0.00  0.00    +0.000 A 
BRANCH   5  14
ATOM     11  C   UNL     1       6.484   5.583  17.855  0.00  0.00    +0.000 A 
ATOM     12  N   UNL     1       7.051   4.448  18.271  0.00  0.00    +0.000 NA
ATOM     13  N   UNL     1       6.018   3.837  18.862  0.00  0.00    +0.000 N 
ATOM     14  C   UNL     1       4.865   4.576  18.784  0.00  0.00    +0.000 A 
ATOM     15  N   UNL     1       5.144   5.702  18.148  0.00  0.00    +0.000 NA
ATOM     16  H   UNL     1       6.176   2.962  19.346  0.00  0.00    +0.000 HD
BRANCH  11  18
ATOM     17  C   UNL     1       8.069   7.421  18.323  0.00  0.00    +0.000 C 
ATOM     18  C   UNL     1       7.273   6.685  17.256  0.00  0.00    +0.000 C 
ENDBRANCH  11  18
ENDBRANCH   5  14
ENDBRANCH   1  10
BRANCH   2  19
ATOM     19  C   UNL     1       2.256   8.501  17.905  0.00  0.00    +0.000 C 
BRANCH  19  20
ATOM     20  C   UNL     1       1.059   9.447  18.034  0.00  0.00    +0.000 C 
BRANCH  20  21
ATOM     21  C   UNL     1       1.458  10.822  18.590  0.00  0.00    +0.000 C 
BRANCH  21  22
ATOM     22  C   UNL     1       0.329  11.400  19.407  0.00  0.00    +0.000 A 
ATOM     23  C   UNL     1      -0.713  12.112  18.768  0.00  0.00    +0.000 A 
ATOM     24  C   UNL     1      -1.829  12.551  19.484  0.00  0.00    +0.000 A 
ATOM     25  C   UNL     1      -1.873  12.254  20.828  0.00  0.00    +0.000 A 
ATOM     26  C   UNL     1      -0.851  11.569  21.480  0.00  0.00    +0.000 A 
ATOM     27  C   UNL     1       0.265  11.142  20.788  0.00  0.00    +0.000 A 
ATOM     28  C   UNL     1      -1.218  11.375  22.920  0.00  0.00    +0.000 C 
ATOM     29  C   UNL     1      -2.600  12.045  22.996  0.00  0.00    +0.000 C 
ATOM     30  O   UNL     1      -3.319  12.124  23.977  0.00  0.00    +0.000 OA
ATOM     31  N   UNL     1      -2.890  12.535  21.722  0.00  0.00    +0.000 N 
ATOM     32  H   UNL     1      -3.755  13.004  21.508  0.00  0.00    +0.000 HD
ENDBRANCH  21  22
ENDBRANCH  20  21
ENDBRANCH  19  20
ENDBRANCH   2  19
TORSDOF 7
ENDMDL
MODEL 8
REMARK VINA RESULT:      -8.8      1.868      2.475
REMARK  Name = 
REMARK  8 active torsions:
REMARK  status: ('A' for Active; 'I' for Inactive)
REMARK    1  A    between atoms: C_1  and  C_2
REMARK    2  A    between atoms: C_2  and  C_3
REMARK    3  A    between atoms: C_6  and  C_7
REMARK    4  A    between atoms: C_12  and  N_13
REMARK    5  A    between atoms: C_14  and  C_16
REMARK    6  A    between atoms: C_16  and  C_17
REMARK    7  A    between atoms: C_17  and  C_18
REMARK    8  A    between atoms: C_18  and  C_19
REMARK                            x       y       z     vdW  Elec       q    Type
REMARK                         _______ _______ _______ _____ _____    ______ ____
ROOT
ATOM      1  N   UNL     1       3.319   6.290  19.298  0.00  0.00    +0.000 N 
ATOM      2  C   UNL     1       2.588   6.779  18.232  0.00  0.00    +0.000 C 
ATOM      3  O   UNL     1       1.674   6.195  17.654  0.00  0.00    +0.000 OA
ATOM      4  H   UNL     1       3.981   6.910  19.766  0.00  0.00    +0.000 HD
ENDROOT
BRANCH   1  10
ATOM      5  C   UNL     1       3.987   3.933  19.523  0.00  0.00    +0.000 A 
ATOM      6  C   UNL     1       3.777   2.669  20.118  0.00  0.00    +0.000 A 
ATOM      7  C   UNL     1       2.818   2.486  21.114  0.00  0.00    +0.000 A 
ATOM      8  C   UNL     1       2.037   3.557  21.514  0.00  0.00    +0.000 A 
ATOM      9  C   UNL     1       2.194   4.801  20.904  0.00  0.00    +0.000 A 
ATOM     10  C   UNL     1       3.159   5.015  19.908  0.00  0.00    +0.000 A 
BRANCH   5  14
ATOM     11  C   UNL     1       6.387   4.486  16.944  0.00  0.00    +0.000 A 
ATOM     12  N   UNL     1       7.235   4.514  17.975  0.00  0.00    +0.000 NA
ATOM     13  N   UNL     1       6.410   4.283  19.002  0.00  0.00    +0.000 N 
ATOM     14  C   UNL     1       5.112   4.103  18.594  0.00  0.00    +0.000 A 
ATOM     15  N   UNL     1       5.076   4.237  17.278  0.00  0.00    +0.000 NA
ATOM     16  H   UNL     1       6.776   4.322  19.945  0.00  0.00    +0.000 HD
BRANCH  11  18
ATOM     17  C   UNL     1       6.061   4.004  14.541  0.00  0.00    +0.000 C 
ATOM     18  C   UNL     1       6.809   4.841  15.568  0.00  0.00    +0.000 C 
ENDBRANCH  11  18
ENDBRANCH   5  14
ENDBRANCH   1  10
BRANCH   2  19
ATOM     19  C   UNL     1       2.994   8.170  17.787  0.00  0.00    +0.000 C 
BRANCH  19  20
ATOM     20  C   UNL     1       1.779   9.100  17.756  0.00  0.00    +0.000 C 
BRANCH  20  21
ATOM     21  C   UNL     1       1.133   9.265  19.139  0.00  0.00    +0.000 C 
BRANCH  21  22
ATOM     22  C   UNL     1      -0.072  10.170  19.045  0.00  0.00    +0.000 A 
ATOM     23  C   UNL     1      -0.959  10.052  17.951  0.00  0.00    +0.000 A 
ATOM     24  C   UNL     1      -2.144  10.791  17.902  0.00  0.00    +0.000 A 
ATOM     25  C   UNL     1      -2.409  11.627  18.964  0.00  0.00    +0.000 A 
ATOM     26  C   UNL     1      -1.541  11.770  20.043  0.00  0.00    +0.000 A 
ATOM     27  C   UNL     1      -0.359  11.057  20.097  0.00  0.00    +0.000 A 
ATOM     28  C   UNL     1      -2.134  12.719  21.040  0.00  0.00    +0.000 C 
ATOM     29  C   UNL     1      -3.469  13.095  20.376  0.00  0.00    +0.000 C 
ATOM     30  O   UNL     1      -4.323  13.839  20.826  0.00  0.00    +0.000 OA
ATOM     31  N   UNL     1      -3.532  12.409  19.163  0.00  0.00    +0.000 N 
ATOM     32  H   UNL     1      -4.325  12.476  18.545  0.00  0.00    +0.000 HD
ENDBRANCH  21  22
ENDBRANCH  20  21
ENDBRANCH  19  20
ENDBRANCH   2  19
TORSDOF 7
ENDMDL
MODEL 9
REMARK VINA RESULT:      -8.8      2.058      2.333
REMARK  Name = 
REMARK  8 active torsions:
REMARK  status: ('A' for Active; 'I' for Inactive)
REMARK    1  A    between atoms: C_1  and  C_2
REMARK    2  A    between atoms: C_2  and  C_3
REMARK    3  A    between atoms: C_6  and  C_7
REMARK    4  A    between atoms: C_12  and  N_13
REMARK    5  A    between atoms: C_14  and  C_16
REMARK    6  A    between atoms: C_16  and  C_17
REMARK    7  A    between atoms: C_17  and  C_18
REMARK    8  A    between atoms: C_18  and  C_19
REMARK                            x       y       z     vdW  Elec       q    Type
REMARK                         _______ _______ _______ _____ _____    ______ ____
ROOT
ATOM      1  N   UNL     1       2.560   6.103  18.587  0.00  0.00    +0.000 N 
ATOM      2  C   UNL     1       2.350   7.388  19.049  0.00  0.00    +0.000 C 
ATOM      3  O   UNL     1       2.097   7.708  20.209  0.00  0.00    +0.000 OA
ATOM      4  H   UNL     1       2.870   5.971  17.624  0.00  0.00    +0.000 HD
ENDROOT
BRANCH   1  10
ATOM      5  C   UNL     1       3.664   4.117  19.532  0.00  0.00    +0.000 A 
ATOM      6  C   UNL     1       3.567   2.922  20.276  0.00  0.00    +0.000 A 
ATOM      7  C   UNL     1       2.377   2.548  20.899  0.00  0.00    +0.000 A 
ATOM      8  C   UNL     1       1.256   3.351  20.766  0.00  0.00    +0.000 A 
ATOM      9  C   UNL     1       1.316   4.510  19.993  0.00  0.00    +0.000 A 
ATOM     10  C   UNL     1       2.505   4.914  19.366  0.00  0.00    +0.000 A 
BRANCH   5  14
ATOM     11  C   UNL     1       6.810   5.522  18.609  0.00  0.00    +0.000 A 
ATOM     12  N   UNL     1       7.043   4.281  18.176  0.00  0.00    +0.000 NA
ATOM     13  N   UNL     1       5.883   3.678  18.462  0.00  0.00    +0.000 N 
ATOM     14  C   UNL     1       4.979   4.539  19.030  0.00  0.00    +0.000 A 
ATOM     15  N   UNL     1       5.556   5.725  19.139  0.00  0.00    +0.000 NA
ATOM     16  H   UNL     1       5.796   2.682  18.305  0.00  0.00    +0.000 HD
BRANCH  11  18
ATOM     17  C   UNL     1       7.598   7.647  17.620  0.00  0.00    +0.000 C 
ATOM     18  C   UNL     1       7.871   6.557  18.645  0.00  0.00    +0.000 C 
ENDBRANCH  11  18
ENDBRANCH   5  14
ENDBRANCH   1  10
BRANCH   2  19
ATOM     19  C   UNL     1       2.461   8.458  17.980  0.00  0.00    +0.000 C 
BRANCH  19  20
ATOM     20  C   UNL     1       1.170   9.278  17.904  0.00  0.00    +0.000 C 
BRANCH  20  21
ATOM     21  C   UNL     1       1.348  10.700  18.455  0.00  0.00    +0.000 C 
BRANCH  21  22
ATOM     22  C   UNL     1       0.357  10.955  19.564  0.00  0.00    +0.000 A 
ATOM     23  C   UNL     1       0.687  10.616  20.897  0.00  0.00    +0.000 A 
ATOM     24  C   UNL     1      -0.162  10.952  21.956  0.00  0.00    +0.000 A 
ATOM     25  C   UNL     1      -1.319  11.631  21.645  0.00  0.00    +0.000 A 
ATOM     26  C   UNL     1      -1.670  11.960  20.338  0.00  0.00    +0.000 A 
ATOM     27  C   UNL     1      -0.849  11.620  19.281  0.00  0.00    +0.000 A 
ATOM     28  C   UNL     1      -2.960  12.722  20.343  0.00  0.00    +0.000 C 
ATOM     29  C   UNL     1      -3.294  12.786  21.843  0.00  0.00    +0.000 C 
ATOM     30  O   UNL     1      -4.256  13.332  22.354  0.00  0.00    +0.000 OA
ATOM     31  N   UNL     1      -2.277  12.112  22.520  0.00  0.00    +0.000 N 
ATOM     32  H   UNL     1      -2.258  12.029  23.524  0.00  0.00    +0.000 HD
ENDBRANCH  21  22
ENDBRANCH  20  21
ENDBRANCH  19  20
ENDBRANCH   2  19
TORSDOF 7
ENDMDL
