MODEL 1
REMARK VINA RESULT:      -8.5      0.000      0.000
REMARK  Name = 
REMARK  7 active torsions:
REMARK  status: ('A' for Active; 'I' for Inactive)
REMARK    1  A    between atoms: C_2  and  C_3
REMARK    2  A    between atoms: C_3  and  S_4
REMARK    3  A    between atoms: S_4  and  C_5
REMARK    4  A    between atoms: N_15  and  C_16
REMARK    5  A    between atoms: C_21  and  C_22
REMARK    6  A    between atoms: N_24  and  C_25
REMARK    7  A    between atoms: C_25  and  C_26
REMARK                            x       y       z     vdW  Elec       q    Type
REMARK                         _______ _______ _______ _____ _____    ______ ____
ROOT
ATOM      1  C   UNL     1       2.510   4.694  18.275  0.00  0.00    +0.000 A 
ATOM      2  C   UNL     1       1.316   4.040  18.618  0.00  0.00    +0.000 A 
ATOM      3  C   UNL     1       1.248   2.646  18.709  0.00  0.00    +0.000 A 
ATOM      4  C   UNL     1       2.373   1.875  18.452  0.00  0.00    +0.000 A 
ATOM      5  C   UNL     1       3.569   2.500  18.104  0.00  0.00    +0.000 A 
ATOM      6  C   UNL     1       3.650   3.902  18.021  0.00  0.00    +0.000 A 
ENDROOT
BRANCH   1   9
ATOM      7  O   UNL     1       2.287   6.826  20.304  0.00  0.00    +0.000 OA
ATOM      8  C   UNL     1       2.371   7.061  19.099  0.00  0.00    +0.000 C 
ATOM      9  N   UNL     1       2.560   6.103  18.119  0.00  0.00    +0.000 N 
ATOM     10  H   UNL     1       2.750   6.452  17.181  0.00  0.00    +0.000 HD
BRANCH   8  11
ATOM     11  C   UNL     1       2.397   8.505  18.626  0.00  0.00    +0.000 C 
BRANCH  11  12
ATOM     12  S   UNL     1       0.956   8.962  17.610  0.00  0.00    +0.000 S 
BRANCH  12  13
ATOM     13  C   UNL     1       0.179  10.177  18.686  0.00  0.00    +0.000 A 
ATOM     14  N   UNL     1       0.945  10.631  19.697  0.00  0.00    +0.000 NA
ATOM     15  C   UNL     1       0.374  11.515  20.517  0.00  0.00    +0.000 A 
ATOM     16  N   UNL     1      -0.872  11.988  20.420  0.00  0.00    +0.000 NA
ATOM     17  C   UNL     1      -1.615  11.534  19.406  0.00  0.00    +0.000 A 
ATOM     18  C   UNL     1      -2.915  12.009  19.283  0.00  0.00    +0.000 A 
ATOM     19  C   UNL     1      -3.762  11.593  18.252  0.00  0.00    +0.000 A 
ATOM     20  C   UNL     1      -3.305  10.677  17.316  0.00  0.00    +0.000 A 
ATOM     21  C   UNL     1      -2.007  10.183  17.420  0.00  0.00    +0.000 A 
ATOM     22  C   UNL     1      -1.144  10.604  18.468  0.00  0.00    +0.000 A 
ENDBRANCH  12  13
ENDBRANCH  11  12
ENDBRANCH   8  11
ENDBRANCH   1   9
BRANCH   6  23
ATOM     23  C   UNL     1       4.985   4.459  17.662  0.00  0.00    +0.000 C 
ATOM     24  O   UNL     1       5.460   5.388  18.305  0.00  0.00    +0.000 OA
ATOM     25  N   UNL     1       5.613   3.911  16.559  0.00  0.00    +0.000 N 
ATOM     26  H   UNL     1       5.040   3.402  15.895  0.00  0.00    +0.000 HD
BRANCH  25  27
ATOM     27  C   UNL     1       6.829   4.519  16.064  0.00  0.00    +0.000 C 
BRANCH  27  28
ATOM     28  C   UNL     1       6.904   4.480  14.563  0.00  0.00    +0.000 A 
ATOM     29  C   UNL     1       7.785   5.326  13.870  0.00  0.00    +0.000 A 
ATOM     30  C   UNL     1       7.873   5.268  12.478  0.00  0.00    +0.000 A 
ATOM     31  C   UNL     1       7.076   4.378  11.764  0.00  0.00    +0.000 A 
ATOM     32  C   UNL     1       6.184   3.546  12.438  0.00  0.00    +0.000 A 
ATOM     33  C   UNL     1       6.096   3.598  13.830  0.00  0.00    +0.000 A 
ENDBRANCH  27  28
ENDBRANCH  25  27
ENDBRANCH   6  23
TORSDOF 7
ENDMDL
MODEL 2
REMARK VINA RESULT:      -8.4      1.922      5.150
REMARK  Name = 
REMARK  7 active torsions:
REMARK  status: ('A' for Active; 'I' for Inactive)
REMARK    1  A    between atoms: C_2  and  C_3
REMARK    2  A    between atoms: C_3  and  S_4
REMARK    3  A    between atoms: S_4  and  C_5
REMARK    4  A    between atoms: N_15  and  C_16
REMARK    5  A    between atoms: C_21  and  C_22
REMARK    6  A    between atoms: N_24  and  C_25
REMARK    7  A    between atoms: C_25  and  C_26
REMARK                            x       y       z     vdW  Elec       q    Type
REMARK                         _______ _______ _______ _____ _____    ______ ____
ROOT
ATOM      1  C   UNL     1       4.861   5.697  16.740  0.00  0.00    +0.000 A 
ATOM      2  C   UNL     1       5.891   6.507  16.235  0.00  0.00    +0.000 A 
ATOM      3  C   UNL     1       6.912   5.976  15.440  0.00  0.00    +0.000 A 
ATOM      4  C   UNL     1       6.929   4.622  15.138  0.00  0.00    +0.000 A 
ATOM      5  C   UNL     1       5.921   3.796  15.632  0.00  0.00    +0.000 A 
ATOM      6  C   UNL     1       4.882   4.322  16.423  0.00  0.00    +0.000 A 
ENDROOT
BRANCH   1   9
ATOM      7  O   UNL     1       4.555   5.427  19.663  0.00  0.00    +0.000 OA
ATOM      8  C   UNL     1       3.726   6.001  18.958  0.00  0.00    +0.000 C 
ATOM      9  N   UNL     1       3.864   6.225  17.599  0.00  0.00    +0.000 N 
ATOM     10  H   UNL     1       3.167   6.833  17.171  0.00  0.00    +0.000 HD
BRANCH   8  11
ATOM     11  C   UNL     1       2.507   6.631  19.611  0.00  0.00    +0.000 C 
BRANCH  11  12
ATOM     12  S   UNL     1       1.907   8.118  18.747  0.00  0.00    +0.000 S 
BRANCH  12  13
ATOM     13  C   UNL     1       1.180   9.018  20.126  0.00  0.00    +0.000 A 
ATOM     14  N   UNL     1       1.537   8.588  21.352  0.00  0.00    +0.000 NA
ATOM     15  C   UNL     1       0.988   9.230  22.384  0.00  0.00    +0.000 A 
ATOM     16  N   UNL     1       0.132  10.254  22.308  0.00  0.00    +0.000 NA
ATOM     17  C   UNL     1      -0.204  10.673  21.085  0.00  0.00    +0.000 A 
ATOM     18  C   UNL     1      -1.094  11.736  20.978  0.00  0.00    +0.000 A 
ATOM     19  C   UNL     1      -1.497  12.243  19.740  0.00  0.00    +0.000 A 
ATOM     20  C   UNL     1      -1.004  11.679  18.573  0.00  0.00    +0.000 A 
ATOM     21  C   UNL     1      -0.114  10.610  18.653  0.00  0.00    +0.000 A 
ATOM     22  C   UNL     1       0.297  10.091  19.911  0.00  0.00    +0.000 A 
ENDBRANCH  12  13
ENDBRANCH  11  12
ENDBRANCH   8  11
ENDBRANCH   1   9
BRANCH   6  23
ATOM     23  C   UNL     1       3.849   3.348  16.877  0.00  0.00    +0.000 C 
ATOM     24  O   UNL     1       2.670   3.518  16.585  0.00  0.00    +0.000 OA
ATOM     25  N   UNL     1       4.283   2.301  17.666  0.00  0.00    +0.000 N 
ATOM     26  H   UNL     1       5.177   2.402  18.135  0.00  0.00    +0.000 HD
BRANCH  25  27
ATOM     27  C   UNL     1       3.307   1.421  18.271  0.00  0.00    +0.000 C 
BRANCH  27  28
ATOM     28  C   UNL     1       2.586   2.084  19.412  0.00  0.00    +0.000 A 
ATOM     29  C   UNL     1       1.238   2.455  19.284  0.00  0.00    +0.000 A 
ATOM     30  C   UNL     1       0.563   3.046  20.354  0.00  0.00    +0.000 A 
ATOM     31  C   UNL     1       1.227   3.284  21.554  0.00  0.00    +0.000 A 
ATOM     32  C   UNL     1       2.571   2.937  21.687  0.00  0.00    +0.000 A 
ATOM     33  C   UNL     1       3.248   2.344  20.621  0.00  0.00    +0.000 A 
ENDBRANCH  27  28
ENDBRANCH  25  27
ENDBRANCH   6  23
TORSDOF 7
ENDMDL
MODEL 3
REMARK VINA RESULT:      -8.4      2.338      5.221
REMARK  Name = 
REMARK  7 active torsions:
REMARK  status: ('A' for Active; 'I' for Inactive)
REMARK    1  A    between atoms: C_2  and  C_3
REMARK    2  A    between atoms: C_3  and  S_4
REMARK    3  A    between atoms: S_4  and  C_5
REMARK    4  A    between atoms: N_15  and  C_16
REMARK    5  A    between atoms: C_21  and  C_22
REMARK    6  A    between atoms: N_24  and  C_25
REMARK    7  A    between atoms: C_25  and  C_26
REMARK                            x       y       z     vdW  Elec       q    Type
REMARK                         _______ _______ _______ _____ _____    ______ ____
ROOT
ATOM      1  C   UNL     1       5.067   6.249  17.548  0.00  0.00    +0.000 A 
ATOM      2  C   UNL     1       6.149   7.103  17.285  0.00  0.00    +0.000 A 
ATOM      3  C   UNL     1       7.239   6.683  16.515  0.00  0.00    +0.000 A 
ATOM      4  C   UNL     1       7.273   5.396  15.999  0.00  0.00    +0.000 A 
ATOM      5  C   UNL     1       6.213   4.526  16.251  0.00  0.00    +0.000 A 
ATOM      6  C   UNL     1       5.106   4.944  17.014  0.00  0.00    +0.000 A 
ENDROOT
BRANCH   1   9
ATOM      7  O   UNL     1       2.883   8.162  17.018  0.00  0.00    +0.000 OA
ATOM      8  C   UNL     1       3.039   7.617  18.110  0.00  0.00    +0.000 C 
ATOM      9  N   UNL     1       3.994   6.655  18.383  0.00  0.00    +0.000 N 
ATOM     10  H   UNL     1       3.919   6.192  19.288  0.00  0.00    +0.000 HD
BRANCH   8  11
ATOM     11  C   UNL     1       2.053   7.908  19.230  0.00  0.00    +0.000 C 
BRANCH  11  12
ATOM     12  S   UNL     1       1.158   9.480  19.019  0.00  0.00    +0.000 S 
BRANCH  12  13
ATOM     13  C   UNL     1       0.641   9.783  20.716  0.00  0.00    +0.000 A 
ATOM     14  N   UNL     1       1.277   9.057  21.656  0.00  0.00    +0.000 NA
ATOM     15  C   UNL     1       0.888   9.253  22.916  0.00  0.00    +0.000 A 
ATOM     16  N   UNL     1      -0.061  10.101  23.323  0.00  0.00    +0.000 NA
ATOM     17  C   UNL     1      -0.676  10.820  22.379  0.00  0.00    +0.000 A 
ATOM     18  C   UNL     1      -1.669  11.709  22.776  0.00  0.00    +0.000 A 
ATOM     19  C   UNL     1      -2.361  12.504  21.859  0.00  0.00    +0.000 A 
ATOM     20  C   UNL     1      -2.061  12.413  20.508  0.00  0.00    +0.000 A 
ATOM     21  C   UNL     1      -1.074  11.527  20.084  0.00  0.00    +0.000 A 
ATOM     22  C   UNL     1      -0.368  10.716  21.015  0.00  0.00    +0.000 A 
ENDBRANCH  12  13
ENDBRANCH  11  12
ENDBRANCH   8  11
ENDBRANCH   1   9
BRANCH   6  23
ATOM     23  C   UNL     1       4.024   3.936  17.200  0.00  0.00    +0.000 C 
ATOM     24  O   UNL     1       2.857   4.235  16.975  0.00  0.00    +0.000 OA
ATOM     25  N   UNL     1       4.403   2.695  17.677  0.00  0.00    +0.000 N 
ATOM     26  H   UNL     1       5.298   2.624  18.148  0.00  0.00    +0.000 HD
BRANCH  25  27
ATOM     27  C   UNL     1       3.382   1.734  18.034  0.00  0.00    +0.000 C 
BRANCH  27  28
ATOM     28  C   UNL     1       2.621   2.156  19.261  0.00  0.00    +0.000 A 
ATOM     29  C   UNL     1       3.283   2.326  20.487  0.00  0.00    +0.000 A 
ATOM     30  C   UNL     1       2.579   2.744  21.619  0.00  0.00    +0.000 A 
ATOM     31  C   UNL     1       1.210   2.983  21.541  0.00  0.00    +0.000 A 
ATOM     32  C   UNL     1       0.538   2.801  20.333  0.00  0.00    +0.000 A 
ATOM     33  C   UNL     1       1.239   2.386  19.200  0.00  0.00    +0.000 A 
ENDBRANCH  27  28
ENDBRANCH  25  27
ENDBRANCH   6  23
TORSDOF 7
ENDMDL
MODEL 4
REMARK VINA RESULT:      -8.4      5.633      8.795
REMARK  Name = 
REMARK  7 active torsions:
REMARK  status: ('A' for Active; 'I' for Inactive)
REMARK    1  A    between atoms: C_2  and  C_3
REMARK    2  A    between atoms: C_3  and  S_4
REMARK    3  A    between atoms: S_4  and  C_5
REMARK    4  A    between atoms: N_15  and  C_16
REMARK    5  A    between atoms: C_21  and  C_22
REMARK    6  A    between atoms: N_24  and  C_25
REMARK    7  A    between atoms: C_25  and  C_26
REMARK                            x       y       z     vdW  Elec       q    Type
REMARK                         _______ _______ _______ _____ _____    ______ ____
ROOT
ATOM      1  C   UNL     1       6.975   5.553  16.096  0.00  0.00    +0.000 A 
ATOM      2  C   UNL     1       7.323   5.354  14.750  0.00  0.00    +0.000 A 
ATOM      3  C   UNL     1       6.664   4.408  13.959  0.00  0.00    +0.000 A 
ATOM      4  C   UNL     1       5.648   3.633  14.500  0.00  0.00    +0.000 A 
ATOM      5  C   UNL     1       5.288   3.807  15.836  0.00  0.00    +0.000 A 
ATOM      6  C   UNL     1       5.937   4.766  16.636  0.00  0.00    +0.000 A 
ENDROOT
BRANCH   1   9
ATOM      7  O   UNL     1       6.067   8.061  17.359  0.00  0.00    +0.000 OA
ATOM      8  C   UNL     1       7.233   7.672  17.417  0.00  0.00    +0.000 C 
ATOM      9  N   UNL     1       7.689   6.467  16.913  0.00  0.00    +0.000 N 
ATOM     10  H   UNL     1       8.646   6.213  17.153  0.00  0.00    +0.000 HD
BRANCH   8  11
ATOM     11  C   UNL     1       8.249   8.490  18.197  0.00  0.00    +0.000 C 
BRANCH  11  12
ATOM     12  S   UNL     1       8.559  10.136  17.480  0.00  0.00    +0.000 S 
BRANCH  12  13
ATOM     13  C   UNL     1       9.370  10.941  18.870  0.00  0.00    +0.000 A 
ATOM     14  N   UNL     1       8.962  10.544  20.091  0.00  0.00    +0.000 NA
ATOM     15  C   UNL     1       9.538  11.149  21.131  0.00  0.00    +0.000 A 
ATOM     16  N   UNL     1      10.476  12.098  21.068  0.00  0.00    +0.000 NA
ATOM     17  C   UNL     1      10.876  12.474  19.849  0.00  0.00    +0.000 A 
ATOM     18  C   UNL     1      11.851  13.461  19.755  0.00  0.00    +0.000 A 
ATOM     19  C   UNL     1      12.332  13.912  18.524  0.00  0.00    +0.000 A 
ATOM     20  C   UNL     1      11.830  13.370  17.350  0.00  0.00    +0.000 A 
ATOM     21  C   UNL     1      10.849  12.384  17.417  0.00  0.00    +0.000 A 
ATOM     22  C   UNL     1      10.357  11.923  18.669  0.00  0.00    +0.000 A 
ENDBRANCH  12  13
ENDBRANCH  11  12
ENDBRANCH   8  11
ENDBRANCH   1   9
BRANCH   6  23
ATOM     23  C   UNL     1       5.455   4.877  18.042  0.00  0.00    +0.000 C 
ATOM     24  O   UNL     1       6.021   4.262  18.939  0.00  0.00    +0.000 OA
ATOM     25  N   UNL     1       4.332   5.654  18.256  0.00  0.00    +0.000 N 
ATOM     26  H   UNL     1       3.735   5.850  17.460  0.00  0.00    +0.000 HD
BRANCH  25  27
ATOM     27  C   UNL     1       3.722   5.666  19.568  0.00  0.00    +0.000 C 
BRANCH  27  28
ATOM     28  C   UNL     1       2.655   4.613  19.699  0.00  0.00    +0.000 A 
ATOM     29  C   UNL     1       1.974   4.143  18.565  0.00  0.00    +0.000 A 
ATOM     30  C   UNL     1       1.004   3.146  18.685  0.00  0.00    +0.000 A 
ATOM     31  C   UNL     1       0.696   2.618  19.936  0.00  0.00    +0.000 A 
ATOM     32  C   UNL     1       1.353   3.090  21.072  0.00  0.00    +0.000 A 
ATOM     33  C   UNL     1       2.325   4.084  20.955  0.00  0.00    +0.000 A 
ENDBRANCH  27  28
ENDBRANCH  25  27
ENDBRANCH   6  23
TORSDOF 7
ENDMDL
MODEL 5
REMARK VINA RESULT:      -8.3      1.722      2.519
REMARK  Name = 
REMARK  7 active torsions:
REMARK  status: ('A' for Active; 'I' for Inactive)
REMARK    1  A    between atoms: C_2  and  C_3
REMARK    2  A    between atoms: C_3  and  S_4
REMARK    3  A    between atoms: S_4  and  C_5
REMARK    4  A    between atoms: N_15  and  C_16
REMARK    5  A    between atoms: C_21  and  C_22
REMARK    6  A    between atoms: N_24  and  C_25
REMARK    7  A    between atoms: C_25  and  C_26
REMARK                            x       y       z     vdW  Elec       q    Type
REMARK                         _______ _______ _______ _____ _____    ______ ____
ROOT
ATOM      1  C   UNL     1       2.564   4.989  18.121  0.00  0.00    +0.000 A 
ATOM      2  C   UNL     1       1.379   4.361  18.536  0.00  0.00    +0.000 A 
ATOM      3  C   UNL     1       1.323   2.980  18.750  0.00  0.00    +0.000 A 
ATOM      4  C   UNL     1       2.450   2.196  18.545  0.00  0.00    +0.000 A 
ATOM      5  C   UNL     1       3.637   2.796  18.126  0.00  0.00    +0.000 A 
ATOM      6  C   UNL     1       3.706   4.186  17.920  0.00  0.00    +0.000 A 
ENDROOT
BRANCH   1   9
ATOM      7  O   UNL     1       2.278   7.289  19.949  0.00  0.00    +0.000 OA
ATOM      8  C   UNL     1       2.383   7.418  18.730  0.00  0.00    +0.000 C 
ATOM      9  N   UNL     1       2.600   6.380  17.842  0.00  0.00    +0.000 N 
ATOM     10  H   UNL     1       2.805   6.647  16.880  0.00  0.00    +0.000 HD
BRANCH   8  11
ATOM     11  C   UNL     1       2.401   8.815  18.132  0.00  0.00    +0.000 C 
BRANCH  11  12
ATOM     12  S   UNL     1       0.746   9.558  17.971  0.00  0.00    +0.000 S 
BRANCH  12  13
ATOM     13  C   UNL     1       0.713  10.586  19.448  0.00  0.00    +0.000 A 
ATOM     14  N   UNL     1       0.076  10.055  20.510  0.00  0.00    +0.000 NA
ATOM     15  C   UNL     1       0.023  10.816  21.605  0.00  0.00    +0.000 A 
ATOM     16  N   UNL     1       0.545  12.038  21.740  0.00  0.00    +0.000 NA
ATOM     17  C   UNL     1       1.180  12.546  20.679  0.00  0.00    +0.000 A 
ATOM     18  C   UNL     1       1.732  13.817  20.792  0.00  0.00    +0.000 A 
ATOM     19  C   UNL     1       2.417  14.424  19.737  0.00  0.00    +0.000 A 
ATOM     20  C   UNL     1       2.559  13.751  18.533  0.00  0.00    +0.000 A 
ATOM     21  C   UNL     1       2.012  12.478  18.392  0.00  0.00    +0.000 A 
ATOM     22  C   UNL     1       1.313  11.858  19.464  0.00  0.00    +0.000 A 
ENDBRANCH  12  13
ENDBRANCH  11  12
ENDBRANCH   8  11
ENDBRANCH   1   9
BRANCH   6  23
ATOM     23  C   UNL     1       5.032   4.718  17.494  0.00  0.00    +0.000 C 
ATOM     24  O   UNL     1       5.432   5.795  17.923  0.00  0.00    +0.000 OA
ATOM     25  N   UNL     1       5.738   3.967  16.573  0.00  0.00    +0.000 N 
ATOM     26  H   UNL     1       5.223   3.288  16.023  0.00  0.00    +0.000 HD
BRANCH  25  27
ATOM     27  C   UNL     1       6.950   4.511  16.000  0.00  0.00    +0.000 C 
BRANCH  27  28
ATOM     28  C   UNL     1       6.948   4.419  14.498  0.00  0.00    +0.000 A 
ATOM     29  C   UNL     1       6.076   3.539  13.839  0.00  0.00    +0.000 A 
ATOM     30  C   UNL     1       6.056   3.475  12.444  0.00  0.00    +0.000 A 
ATOM     31  C   UNL     1       6.913   4.277  11.696  0.00  0.00    +0.000 A 
ATOM     32  C   UNL     1       7.797   5.142  12.340  0.00  0.00    +0.000 A 
ATOM     33  C   UNL     1       7.816   5.210  13.733  0.00  0.00    +0.000 A 
ENDBRANCH  27  28
ENDBRANCH  25  27
ENDBRANCH   6  23
TORSDOF 7
ENDMDL
MODEL 6
REMARK VINA RESULT:      -8.2      1.552      2.268
REMARK  Name = 
REMARK  7 active torsions:
REMARK  status: ('A' for Active; 'I' for Inactive)
REMARK    1  A    between atoms: C_2  and  C_3
REMARK    2  A    between atoms: C_3  and  S_4
REMARK    3  A    between atoms: S_4  and  C_5
REMARK    4  A    between atoms: N_15  and  C_16
REMARK    5  A    between atoms: C_21  and  C_22
REMARK    6  A    between atoms: N_24  and  C_25
REMARK    7  A    between atoms: C_25  and  C_26
REMARK                            x       y       z     vdW  Elec       q    Type
REMARK                         _______ _______ _______ _____ _____    ______ ____
ROOT
ATOM      1  C   UNL     1       2.370   4.915  18.441  0.00  0.00    +0.000 A 
ATOM      2  C   UNL     1       1.391   4.030  18.920  0.00  0.00    +0.000 A 
ATOM      3  C   UNL     1       1.437   2.663  18.624  0.00  0.00    +0.000 A 
ATOM      4  C   UNL     1       2.460   2.154  17.837  0.00  0.00    +0.000 A 
ATOM      5  C   UNL     1       3.441   3.014  17.345  0.00  0.00    +0.000 A 
ATOM      6  C   UNL     1       3.409   4.389  17.646  0.00  0.00    +0.000 A 
ENDROOT
BRANCH   1   9
ATOM      7  O   UNL     1       1.721   6.355  20.935  0.00  0.00    +0.000 OA
ATOM      8  C   UNL     1       1.899   6.930  19.862  0.00  0.00    +0.000 C 
ATOM      9  N   UNL     1       2.284   6.309  18.687  0.00  0.00    +0.000 N 
ATOM     10  H   UNL     1       2.528   6.925  17.913  0.00  0.00    +0.000 HD
BRANCH   8  11
ATOM     11  C   UNL     1       1.818   8.447  19.813  0.00  0.00    +0.000 C 
BRANCH  11  12
ATOM     12  S   UNL     1       1.598   9.108  18.130  0.00  0.00    +0.000 S 
BRANCH  12  13
ATOM     13  C   UNL     1       0.481  10.478  18.469  0.00  0.00    +0.000 A 
ATOM     14  N   UNL     1      -0.812  10.143  18.646  0.00  0.00    +0.000 NA
ATOM     15  C   UNL     1      -1.656  11.151  18.874  0.00  0.00    +0.000 A 
ATOM     16  N   UNL     1      -1.333  12.445  18.948  0.00  0.00    +0.000 NA
ATOM     17  C   UNL     1      -0.045  12.759  18.778  0.00  0.00    +0.000 A 
ATOM     18  C   UNL     1       0.317  14.100  18.849  0.00  0.00    +0.000 A 
ATOM     19  C   UNL     1       1.640  14.519  18.689  0.00  0.00    +0.000 A 
ATOM     20  C   UNL     1       2.634  13.581  18.450  0.00  0.00    +0.000 A 
ATOM     21  C   UNL     1       2.296  12.232  18.370  0.00  0.00    +0.000 A 
ATOM     22  C   UNL     1       0.950  11.803  18.532  0.00  0.00    +0.000 A 
ENDBRANCH  12  13
ENDBRANCH  11  12
ENDBRANCH   8  11
ENDBRANCH   1   9
BRANCH   6  23
ATOM     23  C   UNL     1       4.521   5.206  17.083  0.00  0.00    +0.000 C 
ATOM     24  O   UNL     1       4.380   6.414  16.925  0.00  0.00    +0.000 OA
ATOM     25  N   UNL     1       5.668   4.530  16.714  0.00  0.00    +0.000 N 
ATOM     26  H   UNL     1       5.597   3.530  16.560  0.00  0.00    +0.000 HD
BRANCH  25  27
ATOM     27  C   UNL     1       6.713   5.242  16.012  0.00  0.00    +0.000 C 
BRANCH  27  28
ATOM     28  C   UNL     1       6.788   4.840  14.564  0.00  0.00    +0.000 A 
ATOM     29  C   UNL     1       7.707   5.457  13.700  0.00  0.00    +0.000 A 
ATOM     30  C   UNL     1       7.794   5.064  12.363  0.00  0.00    +0.000 A 
ATOM     31  C   UNL     1       6.960   4.063  11.873  0.00  0.00    +0.000 A 
ATOM     32  C   UNL     1       6.031   3.456  12.717  0.00  0.00    +0.000 A 
ATOM     33  C   UNL     1       5.943   3.845  14.054  0.00  0.00    +0.000 A 
ENDBRANCH  27  28
ENDBRANCH  25  27
ENDBRANCH   6  23
TORSDOF 7
ENDMDL
MODEL 7
REMARK VINA RESULT:      -8.2      5.552      8.771
REMARK  Name = 
REMARK  7 active torsions:
REMARK  status: ('A' for Active; 'I' for Inactive)
REMARK    1  A    between atoms: C_2  and  C_3
REMARK    2  A    between atoms: C_3  and  S_4
REMARK    3  A    between atoms: S_4  and  C_5
REMARK    4  A    between atoms: N_15  and  C_16
REMARK    5  A    between atoms: C_21  and  C_22
REMARK    6  A    between atoms: N_24  and  C_25
REMARK    7  A    between atoms: C_25  and  C_26
REMARK                            x       y       z     vdW  Elec       q    Type
REMARK                         _______ _______ _______ _____ _____    ______ ____
ROOT
ATOM      1  C   UNL     1       6.629   6.053  16.399  0.00  0.00    +0.000 A 
ATOM      2  C   UNL     1       7.232   5.657  15.195  0.00  0.00    +0.000 A 
ATOM      3  C   UNL     1       6.699   4.623  14.418  0.00  0.00    +0.000 A 
ATOM      4  C   UNL     1       5.555   3.957  14.834  0.00  0.00    +0.000 A 
ATOM      5  C   UNL     1       4.941   4.327  16.030  0.00  0.00    +0.000 A 
ATOM      6  C   UNL     1       5.462   5.375  16.812  0.00  0.00    +0.000 A 
ENDROOT
BRANCH   1   9
ATOM      7  O   UNL     1       8.371   5.786  18.767  0.00  0.00    +0.000 OA
ATOM      8  C   UNL     1       7.957   6.873  18.365  0.00  0.00    +0.000 C 
ATOM      9  N   UNL     1       7.207   7.057  17.217  0.00  0.00    +0.000 N 
ATOM     10  H   UNL     1       7.052   8.023  16.933  0.00  0.00    +0.000 HD
BRANCH   8  11
ATOM     11  C   UNL     1       8.380   8.140  19.090  0.00  0.00    +0.000 C 
BRANCH  11  12
ATOM     12  S   UNL     1       8.575   9.576  17.987  0.00  0.00    +0.000 S 
BRANCH  12  13
ATOM     13  C   UNL     1       9.351  10.743  19.116  0.00  0.00    +0.000 A 
ATOM     14  N   UNL     1       9.054  10.575  20.419  0.00  0.00    +0.000 NA
ATOM     15  C   UNL     1       9.604  11.447  21.265  0.00  0.00    +0.000 A 
ATOM     16  N   UNL     1      10.417  12.455  20.938  0.00  0.00    +0.000 NA
ATOM     17  C   UNL     1      10.708  12.603  19.642  0.00  0.00    +0.000 A 
ATOM     18  C   UNL     1      11.551  13.645  19.274  0.00  0.00    +0.000 A 
ATOM     19  C   UNL     1      11.912  13.872  17.944  0.00  0.00    +0.000 A 
ATOM     20  C   UNL     1      11.421  13.040  16.948  0.00  0.00    +0.000 A 
ATOM     21  C   UNL     1      10.571  11.991  17.290  0.00  0.00    +0.000 A 
ATOM     22  C   UNL     1      10.201  11.759  18.643  0.00  0.00    +0.000 A 
ENDBRANCH  12  13
ENDBRANCH  11  12
ENDBRANCH   8  11
ENDBRANCH   1   9
BRANCH   6  23
ATOM     23  C   UNL     1       4.710   5.696  18.058  0.00  0.00    +0.000 C 
ATOM     24  O   UNL     1       5.210   5.474  19.155  0.00  0.00    +0.000 OA
ATOM     25  N   UNL     1       3.432   6.198  17.903  0.00  0.00    +0.000 N 
ATOM     26  H   UNL     1       2.969   6.045  17.014  0.00  0.00    +0.000 HD
BRANCH  25  27
ATOM     27  C   UNL     1       2.596   6.373  19.070  0.00  0.00    +0.000 C 
BRANCH  27  28
ATOM     28  C   UNL     1       2.107   5.057  19.610  0.00  0.00    +0.000 A 
ATOM     29  C   UNL     1       2.271   4.737  20.967  0.00  0.00    +0.000 A 
ATOM     30  C   UNL     1       1.792   3.527  21.472  0.00  0.00    +0.000 A 
ATOM     31  C   UNL     1       1.157   2.620  20.628  0.00  0.00    +0.000 A 
ATOM     32  C   UNL     1       1.004   2.918  19.275  0.00  0.00    +0.000 A 
ATOM     33  C   UNL     1       1.479   4.128  18.768  0.00  0.00    +0.000 A 
ENDBRANCH  27  28
ENDBRANCH  25  27
ENDBRANCH   6  23
TORSDOF 7
ENDMDL
MODEL 8
REMARK VINA RESULT:      -8.1      1.950      2.360
REMARK  Name = 
REMARK  7 active torsions:
REMARK  status: ('A' for Active; 'I' for Inactive)
REMARK    1  A    between atoms: C_2  and  C_3
REMARK    2  A    between atoms: C_3  and  S_4
REMARK    3  A    between atoms: S_4  and  C_5
REMARK    4  A    between atoms: N_15  and  C_16
REMARK    5  A    between atoms: C_21  and  C_22
REMARK    6  A    between atoms: N_24  and  C_25
REMARK    7  A    between atoms: C_25  and  C_26
REMARK                            x       y       z     vdW  Elec       q    Type
REMARK                         _______ _______ _______ _____ _____    ______ ____
ROOT
ATOM      1  C   UNL     1       2.626   5.276  20.118  0.00  0.00    +0.000 A 
ATOM      2  C   UNL     1       1.567   4.669  20.810  0.00  0.00    +0.000 A 
ATOM      3  C   UNL     1       1.550   3.292  21.055  0.00  0.00    +0.000 A 
ATOM      4  C   UNL     1       2.590   2.491  20.604  0.00  0.00    +0.000 A 
ATOM      5  C   UNL     1       3.650   3.070  19.908  0.00  0.00    +0.000 A 
ATOM      6  C   UNL     1       3.682   4.456  19.668  0.00  0.00    +0.000 A 
ENDROOT
BRANCH   1   9
ATOM      7  O   UNL     1       1.802   6.656  17.642  0.00  0.00    +0.000 OA
ATOM      8  C   UNL     1       2.283   7.251  18.605  0.00  0.00    +0.000 C 
ATOM      9  N   UNL     1       2.608   6.662  19.814  0.00  0.00    +0.000 N 
ATOM     10  H   UNL     1       2.867   7.298  20.568  0.00  0.00    +0.000 HD
BRANCH   8  11
ATOM     11  C   UNL     1       2.434   8.762  18.543  0.00  0.00    +0.000 C 
BRANCH  11  12
ATOM     12  S   UNL     1       0.845   9.651  18.570  0.00  0.00    +0.000 S 
BRANCH  12  13
ATOM     13  C   UNL     1       0.606   9.824  20.346  0.00  0.00    +0.000 A 
ATOM     14  N   UNL     1       1.343   8.998  21.114  0.00  0.00    +0.000 NA
ATOM     15  C   UNL     1       1.160   9.099  22.431  0.00  0.00    +0.000 A 
ATOM     16  N   UNL     1       0.324   9.940  23.047  0.00  0.00    +0.000 NA
ATOM     17  C   UNL     1      -0.394  10.758  22.271  0.00  0.00    +0.000 A 
ATOM     18  C   UNL     1      -1.272  11.642  22.886  0.00  0.00    +0.000 A 
ATOM     19  C   UNL     1      -2.058  12.535  22.154  0.00  0.00    +0.000 A 
ATOM     20  C   UNL     1      -1.971  12.552  20.770  0.00  0.00    +0.000 A 
ATOM     21  C   UNL     1      -1.102  11.672  20.129  0.00  0.00    +0.000 A 
ATOM     22  C   UNL     1      -0.301  10.761  20.871  0.00  0.00    +0.000 A 
ENDBRANCH  12  13
ENDBRANCH  11  12
ENDBRANCH   8  11
ENDBRANCH   1   9
BRANCH   6  23
ATOM     23  C   UNL     1       4.875   4.965  18.934  0.00  0.00    +0.000 C 
ATOM     24  O   UNL     1       5.931   5.154  19.528  0.00  0.00    +0.000 OA
ATOM     25  N   UNL     1       4.707   5.249  17.592  0.00  0.00    +0.000 N 
ATOM     26  H   UNL     1       3.761   5.389  17.254  0.00  0.00    +0.000 HD
BRANCH  25  27
ATOM     27  C   UNL     1       5.778   5.899  16.868  0.00  0.00    +0.000 C 
BRANCH  27  28
ATOM     28  C   UNL     1       6.036   5.241  15.541  0.00  0.00    +0.000 A 
ATOM     29  C   UNL     1       7.237   5.473  14.851  0.00  0.00    +0.000 A 
ATOM     30  C   UNL     1       7.487   4.840  13.632  0.00  0.00    +0.000 A 
ATOM     31  C   UNL     1       6.538   3.981  13.084  0.00  0.00    +0.000 A 
ATOM     32  C   UNL     1       5.334   3.756  13.750  0.00  0.00    +0.000 A 
ATOM     33  C   UNL     1       5.084   4.385  14.970  0.00  0.00    +0.000 A 
ENDBRANCH  27  28
ENDBRANCH  25  27
ENDBRANCH   6  23
TORSDOF 7
ENDMDL
MODEL 9
REMARK VINA RESULT:      -8.1      1.251      1.377
REMARK  Name = 
REMARK  7 active torsions:
REMARK  status: ('A' for Active; 'I' for Inactive)
REMARK    1  A    between atoms: C_2  and  C_3
REMARK    2  A    between atoms: C_3  and  S_4
REMARK    3  A    between atoms: S_4  and  C_5
REMARK    4  A    between atoms: N_15  and  C_16
REMARK    5  A    between atoms: C_21  and  C_22
REMARK    6  A    between atoms: N_24  and  C_25
REMARK    7  A    between atoms: C_25  and  C_26
REMARK                            x       y       z     vdW  Elec       q    Type
REMARK                         _______ _______ _______ _____ _____    ______ ____
ROOT
ATOM      1  C   UNL     1       2.242   4.563  18.803  0.00  0.00    +0.000 A 
ATOM      2  C   UNL     1       1.174   3.747  19.207  0.00  0.00    +0.000 A 
ATOM      3  C   UNL     1       1.188   2.365  18.989  0.00  0.00    +0.000 A 
ATOM      4  C   UNL     1       2.270   1.771  18.353  0.00  0.00    +0.000 A 
ATOM      5  C   UNL     1       3.340   2.561  17.936  0.00  0.00    +0.000 A 
ATOM      6  C   UNL     1       3.340   3.950  18.163  0.00  0.00    +0.000 A 
ENDROOT
BRANCH   1   9
ATOM      7  O   UNL     1       1.645   6.164  21.210  0.00  0.00    +0.000 OA
ATOM      8  C   UNL     1       1.834   6.670  20.104  0.00  0.00    +0.000 C 
ATOM      9  N   UNL     1       2.196   5.971  18.966  0.00  0.00    +0.000 N 
ATOM     10  H   UNL     1       2.453   6.534  18.156  0.00  0.00    +0.000 HD
BRANCH   8  11
ATOM     11  C   UNL     1       1.793   8.183  19.966  0.00  0.00    +0.000 C 
BRANCH  11  12
ATOM     12  S   UNL     1       0.918   9.013  21.331  0.00  0.00    +0.000 S 
BRANCH  12  13
ATOM     13  C   UNL     1       0.731  10.663  20.634  0.00  0.00    +0.000 A 
ATOM     14  N   UNL     1       1.514  11.614  21.178  0.00  0.00    +0.000 NA
ATOM     15  C   UNL     1       1.370  12.847  20.688  0.00  0.00    +0.000 A 
ATOM     16  N   UNL     1       0.532  13.212  19.714  0.00  0.00    +0.000 NA
ATOM     17  C   UNL     1      -0.232  12.254  19.180  0.00  0.00    +0.000 A 
ATOM     18  C   UNL     1      -1.113  12.608  18.165  0.00  0.00    +0.000 A 
ATOM     19  C   UNL     1      -1.945  11.672  17.546  0.00  0.00    +0.000 A 
ATOM     20  C   UNL     1      -1.903  10.345  17.947  0.00  0.00    +0.000 A 
ATOM     21  C   UNL     1      -1.031   9.965  18.965  0.00  0.00    +0.000 A 
ATOM     22  C   UNL     1      -0.184  10.916  19.597  0.00  0.00    +0.000 A 
ENDBRANCH  12  13
ENDBRANCH  11  12
ENDBRANCH   8  11
ENDBRANCH   1   9
BRANCH   6  23
ATOM     23  C   UNL     1       4.547   4.688  17.693  0.00  0.00    +0.000 C 
ATOM     24  O   UNL     1       5.104   5.493  18.431  0.00  0.00    +0.000 OA
ATOM     25  N   UNL     1       4.955   4.453  16.394  0.00  0.00    +0.000 N 
ATOM     26  H   UNL     1       4.280   4.052  15.752  0.00  0.00    +0.000 HD
BRANCH  25  27
ATOM     27  C   UNL     1       6.015   5.260  15.830  0.00  0.00    +0.000 C 
BRANCH  27  28
ATOM     28  C   UNL     1       6.373   4.820  14.437  0.00  0.00    +0.000 A 
ATOM     29  C   UNL     1       7.467   5.391  13.767  0.00  0.00    +0.000 A 
ATOM     30  C   UNL     1       7.814   4.962  12.485  0.00  0.00    +0.000 A 
ATOM     31  C   UNL     1       7.067   3.971  11.854  0.00  0.00    +0.000 A 
ATOM     32  C   UNL     1       5.967   3.409  12.500  0.00  0.00    +0.000 A 
ATOM     33  C   UNL     1       5.620   3.834  13.783  0.00  0.00    +0.000 A 
ENDBRANCH  27  28
ENDBRANCH  25  27
ENDBRANCH   6  23
TORSDOF 7
ENDMDL
