MODEL 1
REMARK VINA RESULT:      -9.2      0.000      0.000
REMARK  Name = 
REMARK  4 active torsions:
REMARK  status: ('A' for Active; 'I' for Inactive)
REMARK    1  A    between atoms: C_7  and  C_8
REMARK    2  A    between atoms: N_10  and  C_11
REMARK    3  A    between atoms: C_11  and  C_12
REMARK    4  A    between atoms: C_12  and  C_13
REMARK                            x       y       z     vdW  Elec       q    Type
REMARK                         _______ _______ _______ _____ _____    ______ ____
ROOT
ATOM      1  C   UNL     1       1.831   8.624  18.725  0.00  0.00    +0.000 C 
ATOM      2  O   UNL     1       1.902   9.206  17.651  0.00  0.00    +0.000 OA
ATOM      3  N   UNL     1       2.481   7.426  18.986  0.00  0.00    +0.000 N 
ATOM      4  H   UNL     1       2.497   7.080  19.933  0.00  0.00    +0.000 HD
ENDROOT
BRANCH   1  11
ATOM      5  O   UNL     1      -2.670  12.531  23.685  0.00  0.00    +0.000 OA
ATOM      6  C   UNL     1      -2.070  12.023  22.739  0.00  0.00    +0.000 C 
ATOM      7  C   UNL     1      -2.338  12.416  21.303  0.00  0.00    +0.000 C 
ATOM      8  C   UNL     1      -1.076  12.329  20.458  0.00  0.00    +0.000 C 
ATOM      9  C   UNL     1      -0.397  11.004  20.649  0.00  0.00    +0.000 A 
ATOM     10  C   UNL     1       0.366  10.417  19.630  0.00  0.00    +0.000 A 
ATOM     11  C   UNL     1       1.057   9.218  19.853  0.00  0.00    +0.000 A 
ATOM     12  C   UNL     1       0.983   8.609  21.119  0.00  0.00    +0.000 A 
ATOM     13  C   UNL     1       0.239   9.204  22.143  0.00  0.00    +0.000 A 
ATOM     14  C   UNL     1      -0.454  10.386  21.905  0.00  0.00    +0.000 A 
ATOM     15  N   UNL     1      -1.207  10.973  22.926  0.00  0.00    +0.000 N 
ATOM     16  H   UNL     1      -1.151  10.621  23.873  0.00  0.00    +0.000 HD
ENDBRANCH   1  11
BRANCH   3  17
ATOM     17  C   UNL     1       3.280   6.772  17.961  0.00  0.00    +0.000 C 
BRANCH  17  18
ATOM     18  C   UNL     1       3.494   5.224  18.119  0.00  0.00    +0.000 C 
ATOM     19  C   UNL     1       2.243   4.454  17.594  0.00  0.00    +0.000 C 
ATOM     20  C   UNL     1       2.289   2.966  17.928  0.00  0.00    +0.000 C 
ATOM     21  O   UNL     1       2.338   2.783  19.342  0.00  0.00    +0.000 OA
ATOM     22  C   UNL     1       3.518   3.344  19.905  0.00  0.00    +0.000 C 
ATOM     23  C   UNL     1       3.566   4.858  19.646  0.00  0.00    +0.000 C 
BRANCH  18  24
ATOM     24  C   UNL     1       4.795   4.825  17.334  0.00  0.00    +0.000 A 
ATOM     25  C   UNL     1       4.704   4.287  16.025  0.00  0.00    +0.000 A 
ATOM     26  C   UNL     1       5.825   4.029  15.228  0.00  0.00    +0.000 A 
ATOM     27  C   UNL     1       7.094   4.232  15.734  0.00  0.00    +0.000 A 
ATOM     28  C   UNL     1       7.234   4.672  17.043  0.00  0.00    +0.000 A 
ATOM     29  C   UNL     1       6.112   4.969  17.837  0.00  0.00    +0.000 A 
ATOM     30 CL   UNL     1       6.510   5.494  19.437  0.00  0.00    +0.000 Cl
ENDBRANCH  18  24
ENDBRANCH  17  18
ENDBRANCH   3  17
TORSDOF 4
ENDMDL
MODEL 2
REMARK VINA RESULT:      -8.9      1.100      1.541
REMARK  Name = 
REMARK  4 active torsions:
REMARK  status: ('A' for Active; 'I' for Inactive)
REMARK    1  A    between atoms: C_7  and  C_8
REMARK    2  A    between atoms: N_10  and  C_11
REMARK    3  A    between atoms: C_11  and  C_12
REMARK    4  A    between atoms: C_12  and  C_13
REMARK                            x       y       z     vdW  Elec       q    Type
REMARK                         _______ _______ _______ _____ _____    ______ ____
ROOT
ATOM      1  C   UNL     1       1.883   8.396  18.619  0.00  0.00    +0.000 C 
ATOM      2  O   UNL     1       2.164   9.001  17.593  0.00  0.00    +0.000 OA
ATOM      3  N   UNL     1       2.218   7.067  18.836  0.00  0.00    +0.000 N 
ATOM      4  H   UNL     1       2.084   6.677  19.756  0.00  0.00    +0.000 HD
ENDROOT
BRANCH   1  11
ATOM      5  O   UNL     1      -2.285  12.758  23.491  0.00  0.00    +0.000 OA
ATOM      6  C   UNL     1      -1.750  12.162  22.557  0.00  0.00    +0.000 C 
ATOM      7  C   UNL     1      -2.119  12.418  21.113  0.00  0.00    +0.000 C 
ATOM      8  C   UNL     1      -0.918  12.250  20.194  0.00  0.00    +0.000 C 
ATOM      9  C   UNL     1      -0.220  10.949  20.461  0.00  0.00    +0.000 A 
ATOM     10  C   UNL     1       0.473  10.267  19.451  0.00  0.00    +0.000 A 
ATOM     11  C   UNL     1       1.185   9.094  19.738  0.00  0.00    +0.000 A 
ATOM     12  C   UNL     1       1.202   8.607  21.057  0.00  0.00    +0.000 A 
ATOM     13  C   UNL     1       0.528   9.297  22.070  0.00  0.00    +0.000 A 
ATOM     14  C   UNL     1      -0.187  10.452  21.771  0.00  0.00    +0.000 A 
ATOM     15  N   UNL     1      -0.870  11.134  22.782  0.00  0.00    +0.000 N 
ATOM     16  H   UNL     1      -0.747  10.872  23.751  0.00  0.00    +0.000 HD
ENDBRANCH   1  11
BRANCH   3  17
ATOM     17  C   UNL     1       2.918   6.299  17.817  0.00  0.00    +0.000 C 
BRANCH  17  18
ATOM     18  C   UNL     1       3.495   4.906  18.261  0.00  0.00    +0.000 C 
ATOM     19  C   UNL     1       2.900   3.773  17.369  0.00  0.00    +0.000 C 
ATOM     20  C   UNL     1       3.238   2.380  17.891  0.00  0.00    +0.000 C 
ATOM     21  O   UNL     1       2.710   2.208  19.206  0.00  0.00    +0.000 OA
ATOM     22  C   UNL     1       3.291   3.121  20.130  0.00  0.00    +0.000 C 
ATOM     23  C   UNL     1       2.991   4.568  19.711  0.00  0.00    +0.000 C 
BRANCH  18  24
ATOM     24  C   UNL     1       5.061   4.968  18.157  0.00  0.00    +0.000 A 
ATOM     25  C   UNL     1       5.838   5.332  19.286  0.00  0.00    +0.000 A 
ATOM     26  C   UNL     1       7.237   5.285  19.295  0.00  0.00    +0.000 A 
ATOM     27  C   UNL     1       7.923   4.941  18.147  0.00  0.00    +0.000 A 
ATOM     28  C   UNL     1       7.206   4.665  16.991  0.00  0.00    +0.000 A 
ATOM     29  C   UNL     1       5.800   4.673  16.985  0.00  0.00    +0.000 A 
ATOM     30 CL   UNL     1       5.108   4.310  15.441  0.00  0.00    +0.000 Cl
ENDBRANCH  18  24
ENDBRANCH  17  18
ENDBRANCH   3  17
TORSDOF 4
ENDMDL
MODEL 3
REMARK VINA RESULT:      -8.8      0.774      1.506
REMARK  Name = 
REMARK  4 active torsions:
REMARK  status: ('A' for Active; 'I' for Inactive)
REMARK    1  A    between atoms: C_7  and  C_8
REMARK    2  A    between atoms: N_10  and  C_11
REMARK    3  A    between atoms: C_11  and  C_12
REMARK    4  A    between atoms: C_12  and  C_13
REMARK                            x       y       z     vdW  Elec       q    Type
REMARK                         _______ _______ _______ _____ _____    ______ ____
ROOT
ATOM      1  C   UNL     1       2.030   9.062  18.159  0.00  0.00    +0.000 C 
ATOM      2  O   UNL     1       2.409   9.581  17.117  0.00  0.00    +0.000 OA
ATOM      3  N   UNL     1       2.502   7.841  18.618  0.00  0.00    +0.000 N 
ATOM      4  H   UNL     1       2.255   7.545  19.550  0.00  0.00    +0.000 HD
ENDROOT
BRANCH   1  11
ATOM      5  O   UNL     1      -2.662  11.895  23.645  0.00  0.00    +0.000 OA
ATOM      6  C   UNL     1      -1.817  11.338  22.945  0.00  0.00    +0.000 C 
ATOM      7  C   UNL     1      -0.809  10.364  23.512  0.00  0.00    +0.000 C 
ATOM      8  C   UNL     1      -0.464   9.274  22.509  0.00  0.00    +0.000 C 
ATOM      9  C   UNL     1      -0.109   9.868  21.177  0.00  0.00    +0.000 A 
ATOM     10  C   UNL     1       0.788   9.234  20.306  0.00  0.00    +0.000 A 
ATOM     11  C   UNL     1       1.046   9.764  19.034  0.00  0.00    +0.000 A 
ATOM     12  C   UNL     1       0.389  10.941  18.635  0.00  0.00    +0.000 A 
ATOM     13  C   UNL     1      -0.522  11.564  19.495  0.00  0.00    +0.000 A 
ATOM     14  C   UNL     1      -0.759  11.037  20.760  0.00  0.00    +0.000 A 
ATOM     15  N   UNL     1      -1.660  11.668  21.623  0.00  0.00    +0.000 N 
ATOM     16  H   UNL     1      -2.240  12.428  21.294  0.00  0.00    +0.000 HD
ENDBRANCH   1  11
BRANCH   3  17
ATOM     17  C   UNL     1       3.479   7.084  17.851  0.00  0.00    +0.000 C 
BRANCH  17  18
ATOM     18  C   UNL     1       3.545   5.538  18.128  0.00  0.00    +0.000 C 
ATOM     19  C   UNL     1       2.221   4.855  17.664  0.00  0.00    +0.000 C 
ATOM     20  C   UNL     1       2.126   3.400  18.112  0.00  0.00    +0.000 C 
ATOM     21  O   UNL     1       2.169   3.322  19.536  0.00  0.00    +0.000 OA
ATOM     22  C   UNL     1       3.402   3.808  20.052  0.00  0.00    +0.000 C 
ATOM     23  C   UNL     1       3.594   5.285  19.678  0.00  0.00    +0.000 C 
BRANCH  18  24
ATOM     24  C   UNL     1       4.794   4.957  17.374  0.00  0.00    +0.000 A 
ATOM     25  C   UNL     1       4.645   4.360  16.096  0.00  0.00    +0.000 A 
ATOM     26  C   UNL     1       5.731   3.938  15.321  0.00  0.00    +0.000 A 
ATOM     27  C   UNL     1       7.015   4.028  15.824  0.00  0.00    +0.000 A 
ATOM     28  C   UNL     1       7.202   4.522  17.108  0.00  0.00    +0.000 A 
ATOM     29  C   UNL     1       6.119   4.984  17.877  0.00  0.00    +0.000 A 
ATOM     30 CL   UNL     1       6.572   5.549  19.448  0.00  0.00    +0.000 Cl
ENDBRANCH  18  24
ENDBRANCH  17  18
ENDBRANCH   3  17
TORSDOF 4
ENDMDL
MODEL 4
REMARK VINA RESULT:      -8.8      1.474      2.276
REMARK  Name = 
REMARK  4 active torsions:
REMARK  status: ('A' for Active; 'I' for Inactive)
REMARK    1  A    between atoms: C_7  and  C_8
REMARK    2  A    between atoms: N_10  and  C_11
REMARK    3  A    between atoms: C_11  and  C_12
REMARK    4  A    between atoms: C_12  and  C_13
REMARK                            x       y       z     vdW  Elec       q    Type
REMARK                         _______ _______ _______ _____ _____    ______ ____
ROOT
ATOM      1  C   UNL     1       2.294   8.130  17.969  0.00  0.00    +0.000 C 
ATOM      2  O   UNL     1       3.002   8.572  17.074  0.00  0.00    +0.000 OA
ATOM      3  N   UNL     1       2.154   6.775  18.230  0.00  0.00    +0.000 N 
ATOM      4  H   UNL     1       1.673   6.490  19.069  0.00  0.00    +0.000 HD
ENDROOT
BRANCH   1  11
ATOM      5  O   UNL     1      -1.493  11.964  23.545  0.00  0.00    +0.000 OA
ATOM      6  C   UNL     1      -0.853  11.202  22.821  0.00  0.00    +0.000 C 
ATOM      7  C   UNL     1      -0.322   9.873  23.310  0.00  0.00    +0.000 C 
ATOM      8  C   UNL     1      -0.314   8.835  22.198  0.00  0.00    +0.000 C 
ATOM      9  C   UNL     1       0.346   9.380  20.965  0.00  0.00    +0.000 A 
ATOM     10  C   UNL     1       1.021   8.544  20.064  0.00  0.00    +0.000 A 
ATOM     11  C   UNL     1       1.562   9.059  18.878  0.00  0.00    +0.000 A 
ATOM     12  C   UNL     1       1.416  10.429  18.595  0.00  0.00    +0.000 A 
ATOM     13  C   UNL     1       0.725  11.261  19.483  0.00  0.00    +0.000 A 
ATOM     14  C   UNL     1       0.205  10.741  20.664  0.00  0.00    +0.000 A 
ATOM     15  N   UNL     1      -0.474  11.575  21.557  0.00  0.00    +0.000 N 
ATOM     16  H   UNL     1      -0.706  12.524  21.296  0.00  0.00    +0.000 HD
ENDBRANCH   1  11
BRANCH   3  17
ATOM     17  C   UNL     1       2.841   5.784  17.416  0.00  0.00    +0.000 C 
BRANCH  17  18
ATOM     18  C   UNL     1       3.508   4.585  18.183  0.00  0.00    +0.000 C 
ATOM     19  C   UNL     1       3.120   3.234  17.506  0.00  0.00    +0.000 C 
ATOM     20  C   UNL     1       3.542   2.023  18.332  0.00  0.00    +0.000 C 
ATOM     21  O   UNL     1       2.908   2.056  19.610  0.00  0.00    +0.000 OA
ATOM     22  C   UNL     1       3.301   3.197  20.363  0.00  0.00    +0.000 C 
ATOM     23  C   UNL     1       2.901   4.486  19.630  0.00  0.00    +0.000 C 
BRANCH  18  24
ATOM     24  C   UNL     1       5.062   4.809  18.187  0.00  0.00    +0.000 A 
ATOM     25  C   UNL     1       5.708   5.322  19.341  0.00  0.00    +0.000 A 
ATOM     26  C   UNL     1       7.099   5.427  19.453  0.00  0.00    +0.000 A 
ATOM     27  C   UNL     1       7.905   5.090  18.382  0.00  0.00    +0.000 A 
ATOM     28  C   UNL     1       7.312   4.669  17.200  0.00  0.00    +0.000 A 
ATOM     29  C   UNL     1       5.917   4.525  17.094  0.00  0.00    +0.000 A 
ATOM     30 CL   UNL     1       5.388   3.997  15.533  0.00  0.00    +0.000 Cl
ENDBRANCH  18  24
ENDBRANCH  17  18
ENDBRANCH   3  17
TORSDOF 4
ENDMDL
MODEL 5
REMARK VINA RESULT:      -8.5      2.105      2.417
REMARK  Name = 
REMARK  4 active torsions:
REMARK  status: ('A' for Active; 'I' for Inactive)
REMARK    1  A    between atoms: C_7  and  C_8
REMARK    2  A    between atoms: N_10  and  C_11
REMARK    3  A    between atoms: C_11  and  C_12
REMARK    4  A    between atoms: C_12  and  C_13
REMARK                            x       y       z     vdW  Elec       q    Type
REMARK                         _______ _______ _______ _____ _____    ______ ____
ROOT
ATOM      1  C   UNL     1       2.178   8.562  18.274  0.00  0.00    +0.000 C 
ATOM      2  O   UNL     1       2.906   8.822  17.325  0.00  0.00    +0.000 OA
ATOM      3  N   UNL     1       2.461   7.568  19.200  0.00  0.00    +0.000 N 
ATOM      4  H   UNL     1       1.896   7.506  20.033  0.00  0.00    +0.000 HD
ENDROOT
BRANCH   1  11
ATOM      5  O   UNL     1      -4.714  12.111  18.442  0.00  0.00    +0.000 OA
ATOM      6  C   UNL     1      -3.715  11.417  18.258  0.00  0.00    +0.000 C 
ATOM      7  C   UNL     1      -3.668  10.323  17.215  0.00  0.00    +0.000 C 
ATOM      8  C   UNL     1      -2.275  10.180  16.622  0.00  0.00    +0.000 C 
ATOM      9  C   UNL     1      -1.241  10.083  17.705  0.00  0.00    +0.000 A 
ATOM     10  C   UNL     1      -0.048   9.371  17.520  0.00  0.00    +0.000 A 
ATOM     11  C   UNL     1       0.940   9.358  18.514  0.00  0.00    +0.000 A 
ATOM     12  C   UNL     1       0.724  10.075  19.705  0.00  0.00    +0.000 A 
ATOM     13  C   UNL     1      -0.457  10.803  19.883  0.00  0.00    +0.000 A 
ATOM     14  C   UNL     1      -1.436  10.796  18.895  0.00  0.00    +0.000 A 
ATOM     15  N   UNL     1      -2.622  11.514  19.080  0.00  0.00    +0.000 N 
ATOM     16  H   UNL     1      -2.723  12.143  19.866  0.00  0.00    +0.000 HD
ENDBRANCH   1  11
BRANCH   3  17
ATOM     17  C   UNL     1       3.655   6.747  19.071  0.00  0.00    +0.000 C 
BRANCH  17  18
ATOM     18  C   UNL     1       3.437   5.256  18.624  0.00  0.00    +0.000 C 
ATOM     19  C   UNL     1       2.043   5.100  17.943  0.00  0.00    +0.000 C 
ATOM     20  C   UNL     1       1.673   3.641  17.694  0.00  0.00    +0.000 C 
ATOM     21  O   UNL     1       1.624   2.930  18.931  0.00  0.00    +0.000 OA
ATOM     22  C   UNL     1       2.893   2.906  19.574  0.00  0.00    +0.000 C 
ATOM     23  C   UNL     1       3.357   4.335  19.895  0.00  0.00    +0.000 C 
BRANCH  18  24
ATOM     24  C   UNL     1       4.607   4.858  17.655  0.00  0.00    +0.000 A 
ATOM     25  C   UNL     1       4.323   4.373  16.353  0.00  0.00    +0.000 A 
ATOM     26  C   UNL     1       5.317   4.121  15.400  0.00  0.00    +0.000 A 
ATOM     27  C   UNL     1       6.649   4.272  15.735  0.00  0.00    +0.000 A 
ATOM     28  C   UNL     1       6.978   4.657  17.027  0.00  0.00    +0.000 A 
ATOM     29  C   UNL     1       5.984   4.950  17.977  0.00  0.00    +0.000 A 
ATOM     30 CL   UNL     1       6.611   5.402  19.526  0.00  0.00    +0.000 Cl
ENDBRANCH  18  24
ENDBRANCH  17  18
ENDBRANCH   3  17
TORSDOF 4
ENDMDL
MODEL 6
REMARK VINA RESULT:      -8.4      1.302      2.026
REMARK  Name = 
REMARK  4 active torsions:
REMARK  status: ('A' for Active; 'I' for Inactive)
REMARK    1  A    between atoms: C_7  and  C_8
REMARK    2  A    between atoms: N_10  and  C_11
REMARK    3  A    between atoms: C_11  and  C_12
REMARK    4  A    between atoms: C_12  and  C_13
REMARK                            x       y       z     vdW  Elec       q    Type
REMARK                         _______ _______ _______ _____ _____    ______ ____
ROOT
ATOM      1  C   UNL     1       3.093   7.395  18.648  0.00  0.00    +0.000 C 
ATOM      2  O   UNL     1       3.766   7.494  17.631  0.00  0.00    +0.000 OA
ATOM      3  N   UNL     1       3.327   6.439  19.626  0.00  0.00    +0.000 N 
ATOM      4  H   UNL     1       2.830   6.508  20.500  0.00  0.00    +0.000 HD
ENDROOT
BRANCH   1  11
ATOM      5  O   UNL     1      -2.385  12.203  21.294  0.00  0.00    +0.000 OA
ATOM      6  C   UNL     1      -1.441  11.442  21.087  0.00  0.00    +0.000 C 
ATOM      7  C   UNL     1      -0.521  10.971  22.191  0.00  0.00    +0.000 C 
ATOM      8  C   UNL     1      -0.022   9.558  21.934  0.00  0.00    +0.000 C 
ATOM      9  C   UNL     1       0.522   9.429  20.542  0.00  0.00    +0.000 A 
ATOM     10  C   UNL     1       1.544   8.519  20.234  0.00  0.00    +0.000 A 
ATOM     11  C   UNL     1       1.985   8.357  18.914  0.00  0.00    +0.000 A 
ATOM     12  C   UNL     1       1.385   9.116  17.892  0.00  0.00    +0.000 A 
ATOM     13  C   UNL     1       0.351  10.009  18.194  0.00  0.00    +0.000 A 
ATOM     14  C   UNL     1      -0.067  10.172  19.511  0.00  0.00    +0.000 A 
ATOM     15  N   UNL     1      -1.092  11.074  19.813  0.00  0.00    +0.000 N 
ATOM     16  H   UNL     1      -1.621  11.515  19.073  0.00  0.00    +0.000 HD
ENDBRANCH   1  11
BRANCH   3  17
ATOM     17  C   UNL     1       4.398   5.465  19.475  0.00  0.00    +0.000 C 
BRANCH  17  18
ATOM     18  C   UNL     1       4.104   4.237  18.540  0.00  0.00    +0.000 C 
ATOM     19  C   UNL     1       2.604   4.239  18.111  0.00  0.00    +0.000 C 
ATOM     20  C   UNL     1       2.199   2.954  17.395  0.00  0.00    +0.000 C 
ATOM     21  O   UNL     1       2.394   1.831  18.254  0.00  0.00    +0.000 OA
ATOM     22  C   UNL     1       3.764   1.668  18.602  0.00  0.00    +0.000 C 
ATOM     23  C   UNL     1       4.276   2.904  19.356  0.00  0.00    +0.000 C 
BRANCH  18  24
ATOM     24  C   UNL     1       5.064   4.322  17.301  0.00  0.00    +0.000 A 
ATOM     25  C   UNL     1       4.569   4.080  15.994  0.00  0.00    +0.000 A 
ATOM     26  C   UNL     1       5.341   4.262  14.841  0.00  0.00    +0.000 A 
ATOM     27  C   UNL     1       6.670   4.625  14.950  0.00  0.00    +0.000 A 
ATOM     28  C   UNL     1       7.223   4.784  16.213  0.00  0.00    +0.000 A 
ATOM     29  C   UNL     1       6.443   4.640  17.374  0.00  0.00    +0.000 A 
ATOM     30 CL   UNL     1       7.330   4.873  18.842  0.00  0.00    +0.000 Cl
ENDBRANCH  18  24
ENDBRANCH  17  18
ENDBRANCH   3  17
TORSDOF 4
ENDMDL
MODEL 7
REMARK VINA RESULT:      -8.4      1.496      2.919
REMARK  Name = 
REMARK  4 active torsions:
REMARK  status: ('A' for Active; 'I' for Inactive)
REMARK    1  A    between atoms: C_7  and  C_8
REMARK    2  A    between atoms: N_10  and  C_11
REMARK    3  A    between atoms: C_11  and  C_12
REMARK    4  A    between atoms: C_12  and  C_13
REMARK                            x       y       z     vdW  Elec       q    Type
REMARK                         _______ _______ _______ _____ _____    ______ ____
ROOT
ATOM      1  C   UNL     1       1.736   8.702  18.480  0.00  0.00    +0.000 C 
ATOM      2  O   UNL     1       1.874   9.381  17.471  0.00  0.00    +0.000 OA
ATOM      3  N   UNL     1       2.245   7.417  18.608  0.00  0.00    +0.000 N 
ATOM      4  H   UNL     1       2.220   6.975  19.514  0.00  0.00    +0.000 HD
ENDROOT
BRANCH   1  11
ATOM      5  O   UNL     1      -2.500  12.400  23.820  0.00  0.00    +0.000 OA
ATOM      6  C   UNL     1      -1.959  11.921  22.824  0.00  0.00    +0.000 C 
ATOM      7  C   UNL     1      -2.356  12.312  21.418  0.00  0.00    +0.000 C 
ATOM      8  C   UNL     1      -1.163  12.279  20.474  0.00  0.00    +0.000 C 
ATOM      9  C   UNL     1      -0.421  10.981  20.598  0.00  0.00    +0.000 A 
ATOM     10  C   UNL     1       0.280  10.430  19.515  0.00  0.00    +0.000 A 
ATOM     11  C   UNL     1       1.032   9.258  19.672  0.00  0.00    +0.000 A 
ATOM     12  C   UNL     1       1.083   8.639  20.933  0.00  0.00    +0.000 A 
ATOM     13  C   UNL     1       0.402   9.198  22.020  0.00  0.00    +0.000 A 
ATOM     14  C   UNL     1      -0.354  10.353  21.848  0.00  0.00    +0.000 A 
ATOM     15  N   UNL     1      -1.044  10.905  22.932  0.00  0.00    +0.000 N 
ATOM     16  H   UNL     1      -0.899  10.549  23.867  0.00  0.00    +0.000 HD
ENDBRANCH   1  11
BRANCH   3  17
ATOM     17  C   UNL     1       2.966   6.788  17.512  0.00  0.00    +0.000 C 
BRANCH  17  18
ATOM     18  C   UNL     1       3.942   5.617  17.894  0.00  0.00    +0.000 C 
ATOM     19  C   UNL     1       4.878   6.059  19.061  0.00  0.00    +0.000 C 
ATOM     20  C   UNL     1       5.997   5.057  19.325  0.00  0.00    +0.000 C 
ATOM     21  O   UNL     1       6.809   4.911  18.161  0.00  0.00    +0.000 OA
ATOM     22  C   UNL     1       6.068   4.387  17.065  0.00  0.00    +0.000 C 
ATOM     23  C   UNL     1       4.918   5.336  16.695  0.00  0.00    +0.000 C 
BRANCH  18  24
ATOM     24  C   UNL     1       3.077   4.365  18.284  0.00  0.00    +0.000 A 
ATOM     25  C   UNL     1       2.864   3.323  17.346  0.00  0.00    +0.000 A 
ATOM     26  C   UNL     1       2.211   2.129  17.669  0.00  0.00    +0.000 A 
ATOM     27  C   UNL     1       1.675   1.954  18.931  0.00  0.00    +0.000 A 
ATOM     28  C   UNL     1       1.780   2.985  19.855  0.00  0.00    +0.000 A 
ATOM     29  C   UNL     1       2.469   4.172  19.549  0.00  0.00    +0.000 A 
ATOM     30 CL   UNL     1       2.472   5.327  20.838  0.00  0.00    +0.000 Cl
ENDBRANCH  18  24
ENDBRANCH  17  18
ENDBRANCH   3  17
TORSDOF 4
ENDMDL
MODEL 8
REMARK VINA RESULT:      -8.3      1.680      3.333
REMARK  Name = 
REMARK  4 active torsions:
REMARK  status: ('A' for Active; 'I' for Inactive)
REMARK    1  A    between atoms: C_7  and  C_8
REMARK    2  A    between atoms: N_10  and  C_11
REMARK    3  A    between atoms: C_11  and  C_12
REMARK    4  A    between atoms: C_12  and  C_13
REMARK                            x       y       z     vdW  Elec       q    Type
REMARK                         _______ _______ _______ _____ _____    ______ ____
ROOT
ATOM      1  C   UNL     1       1.748   8.816  18.678  0.00  0.00    +0.000 C 
ATOM      2  O   UNL     1       1.935   9.473  17.663  0.00  0.00    +0.000 OA
ATOM      3  N   UNL     1       2.256   7.538  18.863  0.00  0.00    +0.000 N 
ATOM      4  H   UNL     1       2.186   7.116  19.776  0.00  0.00    +0.000 HD
ENDROOT
BRANCH   1  11
ATOM      5  O   UNL     1      -2.777  12.611  23.703  0.00  0.00    +0.000 OA
ATOM      6  C   UNL     1      -2.183  12.113  22.748  0.00  0.00    +0.000 C 
ATOM      7  C   UNL     1      -2.508  12.469  21.315  0.00  0.00    +0.000 C 
ATOM      8  C   UNL     1      -1.268  12.422  20.435  0.00  0.00    +0.000 C 
ATOM      9  C   UNL     1      -0.526  11.131  20.628  0.00  0.00    +0.000 A 
ATOM     10  C   UNL     1       0.232  10.559  19.596  0.00  0.00    +0.000 A 
ATOM     11  C   UNL     1       0.981   9.396  19.819  0.00  0.00    +0.000 A 
ATOM     12  C   UNL     1       0.969   8.806  21.095  0.00  0.00    +0.000 A 
ATOM     13  C   UNL     1       0.230   9.386  22.132  0.00  0.00    +0.000 A 
ATOM     14  C   UNL     1      -0.521  10.533  21.894  0.00  0.00    +0.000 A 
ATOM     15  N   UNL     1      -1.270  11.105  22.927  0.00  0.00    +0.000 N 
ATOM     16  H   UNL     1      -1.172  10.772  23.877  0.00  0.00    +0.000 HD
ENDBRANCH   1  11
BRANCH   3  17
ATOM     17  C   UNL     1       3.036   6.888  17.821  0.00  0.00    +0.000 C 
BRANCH  17  18
ATOM     18  C   UNL     1       3.882   5.637  18.255  0.00  0.00    +0.000 C 
ATOM     19  C   UNL     1       5.118   6.090  19.092  0.00  0.00    +0.000 C 
ATOM     20  C   UNL     1       6.100   4.952  19.347  0.00  0.00    +0.000 C 
ATOM     21  O   UNL     1       6.591   4.440  18.109  0.00  0.00    +0.000 OA
ATOM     22  C   UNL     1       5.546   3.882  17.320  0.00  0.00    +0.000 C 
ATOM     23  C   UNL     1       4.501   4.956  16.980  0.00  0.00    +0.000 C 
BRANCH  18  24
ATOM     24  C   UNL     1       2.949   4.672  19.069  0.00  0.00    +0.000 A 
ATOM     25  C   UNL     1       2.879   4.769  20.483  0.00  0.00    +0.000 A 
ATOM     26  C   UNL     1       1.977   4.026  21.254  0.00  0.00    +0.000 A 
ATOM     27  C   UNL     1       1.154   3.096  20.649  0.00  0.00    +0.000 A 
ATOM     28  C   UNL     1       1.251   2.902  19.278  0.00  0.00    +0.000 A 
ATOM     29  C   UNL     1       2.127   3.672  18.492  0.00  0.00    +0.000 A 
ATOM     30 CL   UNL     1       2.097   3.262  16.811  0.00  0.00    +0.000 Cl
ENDBRANCH  18  24
ENDBRANCH  17  18
ENDBRANCH   3  17
TORSDOF 4
ENDMDL
MODEL 9
REMARK VINA RESULT:      -8.2      1.997      2.538
REMARK  Name = 
REMARK  4 active torsions:
REMARK  status: ('A' for Active; 'I' for Inactive)
REMARK    1  A    between atoms: C_7  and  C_8
REMARK    2  A    between atoms: N_10  and  C_11
REMARK    3  A    between atoms: C_11  and  C_12
REMARK    4  A    between atoms: C_12  and  C_13
REMARK                            x       y       z     vdW  Elec       q    Type
REMARK                         _______ _______ _______ _____ _____    ______ ____
ROOT
ATOM      1  C   UNL     1       2.267   6.835  20.022  0.00  0.00    +0.000 C 
ATOM      2  O   UNL     1       1.604   6.162  20.799  0.00  0.00    +0.000 OA
ATOM      3  N   UNL     1       3.483   6.419  19.500  0.00  0.00    +0.000 N 
ATOM      4  H   UNL     1       3.902   6.957  18.758  0.00  0.00    +0.000 HD
ENDROOT
BRANCH   1  11
ATOM      5  O   UNL     1      -0.656  13.916  18.821  0.00  0.00    +0.000 OA
ATOM      6  C   UNL     1      -0.202  12.849  19.230  0.00  0.00    +0.000 C 
ATOM      7  C   UNL     1      -0.063  12.537  20.703  0.00  0.00    +0.000 C 
ATOM      8  C   UNL     1      -0.271  11.057  20.981  0.00  0.00    +0.000 C 
ATOM      9  C   UNL     1       0.568  10.218  20.062  0.00  0.00    +0.000 A 
ATOM     10  C   UNL     1       1.045   8.958  20.449  0.00  0.00    +0.000 A 
ATOM     11  C   UNL     1       1.760   8.156  19.549  0.00  0.00    +0.000 A 
ATOM     12  C   UNL     1       1.993   8.628  18.244  0.00  0.00    +0.000 A 
ATOM     13  C   UNL     1       1.500   9.877  17.850  0.00  0.00    +0.000 A 
ATOM     14  C   UNL     1       0.804  10.669  18.757  0.00  0.00    +0.000 A 
ATOM     15  N   UNL     1       0.323  11.922  18.366  0.00  0.00    +0.000 N 
ATOM     16  H   UNL     1       0.361  12.206  17.396  0.00  0.00    +0.000 HD
ENDBRANCH   1  11
BRANCH   3  17
ATOM     17  C   UNL     1       4.058   5.137  19.880  0.00  0.00    +0.000 C 
BRANCH  17  18
ATOM     18  C   UNL     1       3.990   3.991  18.807  0.00  0.00    +0.000 C 
ATOM     19  C   UNL     1       2.545   3.881  18.232  0.00  0.00    +0.000 C 
ATOM     20  C   UNL     1       2.355   2.644  17.359  0.00  0.00    +0.000 C 
ATOM     21  O   UNL     1       2.602   1.463  18.121  0.00  0.00    +0.000 OA
ATOM     22  C   UNL     1       3.945   1.409  18.587  0.00  0.00    +0.000 C 
ATOM     23  C   UNL     1       4.242   2.605  19.503  0.00  0.00    +0.000 C 
BRANCH  18  24
ATOM     24  C   UNL     1       5.041   4.309  17.683  0.00  0.00    +0.000 A 
ATOM     25  C   UNL     1       4.730   4.059  16.322  0.00  0.00    +0.000 A 
ATOM     26  C   UNL     1       5.570   4.435  15.267  0.00  0.00    +0.000 A 
ATOM     27  C   UNL     1       6.796   5.014  15.534  0.00  0.00    +0.000 A 
ATOM     28  C   UNL     1       7.183   5.195  16.855  0.00  0.00    +0.000 A 
ATOM     29  C   UNL     1       6.327   4.855  17.918  0.00  0.00    +0.000 A 
ATOM     30 CL   UNL     1       7.007   5.154  19.481  0.00  0.00    +0.000 Cl
ENDBRANCH  18  24
ENDBRANCH  17  18
ENDBRANCH   3  17
TORSDOF 4
ENDMDL
