MODEL 1
REMARK VINA RESULT:      -9.4      0.000      0.000
REMARK  Name = 
REMARK  8 active torsions:
REMARK  status: ('A' for Active; 'I' for Inactive)
REMARK    1  A    between atoms: C_1  and  C_2
REMARK    2  A    between atoms: C_4  and  C_5
REMARK    3  A    between atoms: C_8  and  C_9
REMARK    4  A    between atoms: C_9  and  C_10
REMARK    5  A    between atoms: C_10  and  C_11
REMARK    6  A    between atoms: N_13  and  C_14
REMARK    7  A    between atoms: N_13  and  C_15
REMARK    8  A    between atoms: N_23  and  C_24
REMARK                            x       y       z     vdW  Elec       q    Type
REMARK                         _______ _______ _______ _____ _____    ______ ____
ROOT
ATOM      1  C   UNL     1       7.048   4.931  17.986  0.00  0.00    +0.000 C 
ENDROOT
BRANCH   1   2
ATOM      2  C   UNL     1       5.577   4.996  18.314  0.00  0.00    +0.000 C 
ATOM      3  O   UNL     1       5.251   5.180  19.489  0.00  0.00    +0.000 OA
ATOM      4  N   UNL     1       4.644   4.823  17.298  0.00  0.00    +0.000 N 
ATOM      5  C   UNL     1       4.969   4.507  15.907  0.00  0.00    +0.000 C 
BRANCH   4   6
ATOM      6  C   UNL     1       3.222   5.028  17.646  0.00  0.00    +0.000 C 
ATOM      7  C   UNL     1       2.898   6.454  18.152  0.00  0.00    +0.000 C 
ATOM      8  C   UNL     1       2.420   6.668  19.609  0.00  0.00    +0.000 C 
ATOM      9  C   UNL     1       1.935   5.477  20.450  0.00  0.00    +0.000 C 
ATOM     10  C   UNL     1       2.220   4.180  19.813  0.00  0.00    +0.000 A 
ATOM     11  C   UNL     1       2.781   3.960  18.578  0.00  0.00    +0.000 A 
ATOM     12  C   UNL     1       2.784   2.559  18.435  0.00  0.00    +0.000 A 
ATOM     13  N   UNL     1       2.283   1.939  19.508  0.00  0.00    +0.000 NA
ATOM     14  N   UNL     1       1.929   2.948  20.328  0.00  0.00    +0.000 N 
ATOM     15  C   UNL     1       1.283   2.656  21.586  0.00  0.00    +0.000 C 
ENDBRANCH   4   6
ENDBRANCH   1   2
BRANCH   1  16
ATOM     16  C   UNL     1       7.860   5.774  18.958  0.00  0.00    +0.000 C 
BRANCH  16  20
ATOM     17  C   UNL     1       8.373   9.181  18.057  0.00  0.00    +0.000 A 
ATOM     18  N   UNL     1       7.458   8.847  17.132  0.00  0.00    +0.000 NA
ATOM     19  O   UNL     1       7.214   7.495  17.366  0.00  0.00    +0.000 OA
ATOM     20  C   UNL     1       8.010   7.141  18.417  0.00  0.00    +0.000 A 
ATOM     21  N   UNL     1       8.750   8.126  18.863  0.00  0.00    +0.000 NA
BRANCH  17  25
ATOM     22  C   UNL     1      11.761  12.197  20.160  0.00  0.00    +0.000 C 
ATOM     23  C   UNL     1      10.549  11.992  19.305  0.00  0.00    +0.000 A 
ATOM     24  C   UNL     1      10.034  10.711  19.068  0.00  0.00    +0.000 A 
ATOM     25  C   UNL     1       8.899  10.520  18.259  0.00  0.00    +0.000 A 
ATOM     26  C   UNL     1       8.277  11.641  17.686  0.00  0.00    +0.000 A 
ATOM     27  C   UNL     1       8.781  12.922  17.922  0.00  0.00    +0.000 A 
ATOM     28  C   UNL     1       9.903  13.087  18.726  0.00  0.00    +0.000 A 
ATOM     29  F   UNL     1      10.369  14.325  18.943  0.00  0.00    +0.000 F 
ENDBRANCH  17  25
ENDBRANCH  16  20
ENDBRANCH   1  16
TORSDOF 5
ENDMDL
MODEL 2
REMARK VINA RESULT:      -9.2      3.830     10.337
REMARK  Name = 
REMARK  8 active torsions:
REMARK  status: ('A' for Active; 'I' for Inactive)
REMARK    1  A    between atoms: C_1  and  C_2
REMARK    2  A    between atoms: C_4  and  C_5
REMARK    3  A    between atoms: C_8  and  C_9
REMARK    4  A    between atoms: C_9  and  C_10
REMARK    5  A    between atoms: C_10  and  C_11
REMARK    6  A    between atoms: N_13  and  C_14
REMARK    7  A    between atoms: N_13  and  C_15
REMARK    8  A    between atoms: N_23  and  C_24
REMARK                            x       y       z     vdW  Elec       q    Type
REMARK                         _______ _______ _______ _____ _____    ______ ____
ROOT
ATOM      1  C   UNL     1       8.270   9.416  17.715  0.00  0.00    +0.000 C 
ENDROOT
BRANCH   1   2
ATOM      2  C   UNL     1       8.928  10.418  18.630  0.00  0.00    +0.000 C 
ATOM      3  O   UNL     1       9.585   9.993  19.583  0.00  0.00    +0.000 OA
ATOM      4  N   UNL     1       8.757  11.777  18.388  0.00  0.00    +0.000 N 
ATOM      5  C   UNL     1       7.913  12.340  17.334  0.00  0.00    +0.000 C 
BRANCH   4   6
ATOM      6  C   UNL     1       9.529  12.715  19.231  0.00  0.00    +0.000 C 
ATOM      7  C   UNL     1       8.651  13.690  20.052  0.00  0.00    +0.000 C 
ATOM      8  C   UNL     1       8.710  15.210  19.766  0.00  0.00    +0.000 C 
ATOM      9  C   UNL     1       9.858  15.801  18.934  0.00  0.00    +0.000 C 
ATOM     10  C   UNL     1      10.675  14.764  18.279  0.00  0.00    +0.000 A 
ATOM     11  C   UNL     1      10.550  13.401  18.400  0.00  0.00    +0.000 A 
ATOM     12  C   UNL     1      11.599  12.879  17.618  0.00  0.00    +0.000 A 
ATOM     13  N   UNL     1      12.318  13.839  17.029  0.00  0.00    +0.000 NA
ATOM     14  N   UNL     1      11.747  14.981  17.460  0.00  0.00    +0.000 N 
ATOM     15  C   UNL     1      12.307  16.254  17.070  0.00  0.00    +0.000 C 
ENDBRANCH   4   6
ENDBRANCH   1   2
BRANCH   1  16
ATOM     16  C   UNL     1       8.366   8.010  18.291  0.00  0.00    +0.000 C 
BRANCH  16  20
ATOM     17  C   UNL     1       5.658   5.902  17.342  0.00  0.00    +0.000 A 
ATOM     18  N   UNL     1       6.397   5.823  16.223  0.00  0.00    +0.000 NA
ATOM     19  O   UNL     1       7.480   6.663  16.470  0.00  0.00    +0.000 OA
ATOM     20  C   UNL     1       7.290   7.171  17.722  0.00  0.00    +0.000 A 
ATOM     21  N   UNL     1       6.185   6.755  18.290  0.00  0.00    +0.000 NA
BRANCH  17  25
ATOM     22  C   UNL     1       3.436   1.491  18.126  0.00  0.00    +0.000 C 
ATOM     23  C   UNL     1       3.362   2.978  17.958  0.00  0.00    +0.000 A 
ATOM     24  C   UNL     1       4.516   3.743  17.743  0.00  0.00    +0.000 A 
ATOM     25  C   UNL     1       4.446   5.140  17.593  0.00  0.00    +0.000 A 
ATOM     26  C   UNL     1       3.192   5.768  17.657  0.00  0.00    +0.000 A 
ATOM     27  C   UNL     1       2.037   5.012  17.866  0.00  0.00    +0.000 A 
ATOM     28  C   UNL     1       2.129   3.632  18.010  0.00  0.00    +0.000 A 
ATOM     29  F   UNL     1       1.009   2.923  18.206  0.00  0.00    +0.000 F 
ENDBRANCH  17  25
ENDBRANCH  16  20
ENDBRANCH   1  16
TORSDOF 5
ENDMDL
MODEL 3
REMARK VINA RESULT:      -8.8      6.575      9.263
REMARK  Name = 
REMARK  8 active torsions:
REMARK  status: ('A' for Active; 'I' for Inactive)
REMARK    1  A    between atoms: C_1  and  C_2
REMARK    2  A    between atoms: C_4  and  C_5
REMARK    3  A    between atoms: C_8  and  C_9
REMARK    4  A    between atoms: C_9  and  C_10
REMARK    5  A    between atoms: C_10  and  C_11
REMARK    6  A    between atoms: N_13  and  C_14
REMARK    7  A    between atoms: N_13  and  C_15
REMARK    8  A    between atoms: N_23  and  C_24
REMARK                            x       y       z     vdW  Elec       q    Type
REMARK                         _______ _______ _______ _____ _____    ______ ____
ROOT
ATOM      1  C   UNL     1       1.766   8.326  20.918  0.00  0.00    +0.000 C 
ENDROOT
BRANCH   1   2
ATOM      2  C   UNL     1       1.864   7.730  19.535  0.00  0.00    +0.000 C 
ATOM      3  O   UNL     1       1.632   8.461  18.569  0.00  0.00    +0.000 OA
ATOM      4  N   UNL     1       2.187   6.385  19.394  0.00  0.00    +0.000 N 
ATOM      5  C   UNL     1       2.378   5.449  20.502  0.00  0.00    +0.000 C 
BRANCH   4   6
ATOM      6  C   UNL     1       2.401   5.883  18.020  0.00  0.00    +0.000 C 
ATOM      7  C   UNL     1       1.745   4.509  17.744  0.00  0.00    +0.000 C 
ATOM      8  C   UNL     1       2.630   3.277  17.436  0.00  0.00    +0.000 C 
ATOM      9  C   UNL     1       4.109   3.457  17.063  0.00  0.00    +0.000 C 
ATOM     10  C   UNL     1       4.586   4.833  17.284  0.00  0.00    +0.000 A 
ATOM     11  C   UNL     1       3.850   5.916  17.700  0.00  0.00    +0.000 A 
ATOM     12  C   UNL     1       4.765   6.988  17.699  0.00  0.00    +0.000 A 
ATOM     13  N   UNL     1       5.992   6.605  17.331  0.00  0.00    +0.000 NA
ATOM     14  N   UNL     1       5.856   5.292  17.067  0.00  0.00    +0.000 N 
ATOM     15  C   UNL     1       6.985   4.539  16.573  0.00  0.00    +0.000 C 
ENDBRANCH   4   6
ENDBRANCH   1   2
BRANCH   1  16
ATOM     16  C   UNL     1       0.313   8.475  21.342  0.00  0.00    +0.000 C 
BRANCH  16  20
ATOM     17  C   UNL     1      -0.682  11.688  22.514  0.00  0.00    +0.000 A 
ATOM     18  N   UNL     1       0.425  12.036  21.840  0.00  0.00    +0.000 NA
ATOM     19  O   UNL     1       0.932  10.827  21.368  0.00  0.00    +0.000 OA
ATOM     20  C   UNL     1       0.076   9.859  21.806  0.00  0.00    +0.000 A 
ATOM     21  N   UNL     1      -0.914  10.328  22.525  0.00  0.00    +0.000 NA
BRANCH  17  25
ATOM     22  C   UNL     1      -5.226  12.663  24.359  0.00  0.00    +0.000 C 
ATOM     23  C   UNL     1      -3.834  13.099  24.023  0.00  0.00    +0.000 A 
ATOM     24  C   UNL     1      -2.914  12.213  23.446  0.00  0.00    +0.000 A 
ATOM     25  C   UNL     1      -1.603  12.622  23.138  0.00  0.00    +0.000 A 
ATOM     26  C   UNL     1      -1.222  13.945  23.415  0.00  0.00    +0.000 A 
ATOM     27  C   UNL     1      -2.134  14.835  23.985  0.00  0.00    +0.000 A 
ATOM     28  C   UNL     1      -3.425  14.410  24.280  0.00  0.00    +0.000 A 
ATOM     29  F   UNL     1      -4.287  15.280  24.823  0.00  0.00    +0.000 F 
ENDBRANCH  17  25
ENDBRANCH  16  20
ENDBRANCH   1  16
TORSDOF 5
ENDMDL
MODEL 4
REMARK VINA RESULT:      -8.8      3.746      9.911
REMARK  Name = 
REMARK  8 active torsions:
REMARK  status: ('A' for Active; 'I' for Inactive)
REMARK    1  A    between atoms: C_1  and  C_2
REMARK    2  A    between atoms: C_4  and  C_5
REMARK    3  A    between atoms: C_8  and  C_9
REMARK    4  A    between atoms: C_9  and  C_10
REMARK    5  A    between atoms: C_10  and  C_11
REMARK    6  A    between atoms: N_13  and  C_14
REMARK    7  A    between atoms: N_13  and  C_15
REMARK    8  A    between atoms: N_23  and  C_24
REMARK                            x       y       z     vdW  Elec       q    Type
REMARK                         _______ _______ _______ _____ _____    ______ ____
ROOT
ATOM      1  C   UNL     1       8.693   9.239  18.915  0.00  0.00    +0.000 C 
ENDROOT
BRANCH   1   2
ATOM      2  C   UNL     1       9.367  10.556  18.619  0.00  0.00    +0.000 C 
ATOM      3  O   UNL     1       9.820  10.736  17.486  0.00  0.00    +0.000 OA
ATOM      4  N   UNL     1       9.477  11.506  19.627  0.00  0.00    +0.000 N 
ATOM      5  C   UNL     1       9.046  11.313  21.012  0.00  0.00    +0.000 C 
BRANCH   4   6
ATOM      6  C   UNL     1      10.025  12.828  19.252  0.00  0.00    +0.000 C 
ATOM      7  C   UNL     1      10.968  13.441  20.314  0.00  0.00    +0.000 C 
ATOM      8  C   UNL     1      10.567  14.747  21.043  0.00  0.00    +0.000 C 
ATOM      9  C   UNL     1       9.430  15.623  20.498  0.00  0.00    +0.000 C 
ATOM     10  C   UNL     1       8.666  14.959  19.427  0.00  0.00    +0.000 A 
ATOM     11  C   UNL     1       8.914  13.732  18.861  0.00  0.00    +0.000 A 
ATOM     12  C   UNL     1       7.931  13.598  17.861  0.00  0.00    +0.000 A 
ATOM     13  N   UNL     1       7.110  14.651  17.814  0.00  0.00    +0.000 NA
ATOM     14  N   UNL     1       7.587  15.476  18.766  0.00  0.00    +0.000 N 
ATOM     15  C   UNL     1       6.976  16.769  18.967  0.00  0.00    +0.000 C 
ENDBRANCH   4   6
ENDBRANCH   1   2
BRANCH   1  16
ATOM     16  C   UNL     1       8.246   8.557  17.630  0.00  0.00    +0.000 C 
BRANCH  16  20
ATOM     17  C   UNL     1       6.080   5.817  18.326  0.00  0.00    +0.000 A 
ATOM     18  N   UNL     1       7.137   5.452  19.069  0.00  0.00    +0.000 NA
ATOM     19  O   UNL     1       8.082   6.448  18.831  0.00  0.00    +0.000 OA
ATOM     20  C   UNL     1       7.500   7.325  17.962  0.00  0.00    +0.000 A 
ATOM     21  N   UNL     1       6.287   6.977  17.607  0.00  0.00    +0.000 NA
BRANCH  17  25
ATOM     22  C   UNL     1       1.763   4.646  20.561  0.00  0.00    +0.000 C 
ATOM     23  C   UNL     1       2.703   4.536  19.400  0.00  0.00    +0.000 A 
ATOM     24  C   UNL     1       3.927   5.219  19.389  0.00  0.00    +0.000 A 
ATOM     25  C   UNL     1       4.806   5.120  18.295  0.00  0.00    +0.000 A 
ATOM     26  C   UNL     1       4.442   4.316  17.202  0.00  0.00    +0.000 A 
ATOM     27  C   UNL     1       3.227   3.628  17.208  0.00  0.00    +0.000 A 
ATOM     28  C   UNL     1       2.374   3.739  18.301  0.00  0.00    +0.000 A 
ATOM     29  F   UNL     1       1.214   3.068  18.290  0.00  0.00    +0.000 F 
ENDBRANCH  17  25
ENDBRANCH  16  20
ENDBRANCH   1  16
TORSDOF 5
ENDMDL
MODEL 5
REMARK VINA RESULT:      -8.8      0.577      1.324
REMARK  Name = 
REMARK  8 active torsions:
REMARK  status: ('A' for Active; 'I' for Inactive)
REMARK    1  A    between atoms: C_1  and  C_2
REMARK    2  A    between atoms: C_4  and  C_5
REMARK    3  A    between atoms: C_8  and  C_9
REMARK    4  A    between atoms: C_9  and  C_10
REMARK    5  A    between atoms: C_10  and  C_11
REMARK    6  A    between atoms: N_13  and  C_14
REMARK    7  A    between atoms: N_13  and  C_15
REMARK    8  A    between atoms: N_23  and  C_24
REMARK                            x       y       z     vdW  Elec       q    Type
REMARK                         _______ _______ _______ _____ _____    ______ ____
ROOT
ATOM      1  C   UNL     1       7.086   5.437  17.833  0.00  0.00    +0.000 C 
ENDROOT
BRANCH   1   2
ATOM      2  C   UNL     1       5.623   5.392  18.200  0.00  0.00    +0.000 C 
ATOM      3  O   UNL     1       5.317   5.515  19.388  0.00  0.00    +0.000 OA
ATOM      4  N   UNL     1       4.677   5.192  17.201  0.00  0.00    +0.000 N 
ATOM      5  C   UNL     1       4.985   4.944  15.792  0.00  0.00    +0.000 C 
BRANCH   4   6
ATOM      6  C   UNL     1       3.254   5.289  17.591  0.00  0.00    +0.000 C 
ATOM      7  C   UNL     1       2.856   6.663  18.181  0.00  0.00    +0.000 C 
ATOM      8  C   UNL     1       2.403   6.768  19.657  0.00  0.00    +0.000 C 
ATOM      9  C   UNL     1       2.012   5.507  20.442  0.00  0.00    +0.000 C 
ATOM     10  C   UNL     1       2.361   4.266  19.730  0.00  0.00    +0.000 A 
ATOM     11  C   UNL     1       2.903   4.147  18.473  0.00  0.00    +0.000 A 
ATOM     12  C   UNL     1       2.988   2.758  18.254  0.00  0.00    +0.000 A 
ATOM     13  N   UNL     1       2.552   2.052  19.302  0.00  0.00    +0.000 NA
ATOM     14  N   UNL     1       2.159   2.992  20.184  0.00  0.00    +0.000 N 
ATOM     15  C   UNL     1       1.564   2.594  21.437  0.00  0.00    +0.000 C 
ENDBRANCH   4   6
ENDBRANCH   1   2
BRANCH   1  16
ATOM     16  C   UNL     1       7.896   6.134  18.917  0.00  0.00    +0.000 C 
BRANCH  16  20
ATOM     17  C   UNL     1       8.687   9.558  18.341  0.00  0.00    +0.000 A 
ATOM     18  N   UNL     1       7.884   9.340  17.287  0.00  0.00    +0.000 NA
ATOM     19  O   UNL     1       7.546   7.992  17.388  0.00  0.00    +0.000 OA
ATOM     20  C   UNL     1       8.181   7.524  18.501  0.00  0.00    +0.000 A 
ATOM     21  N   UNL     1       8.905   8.432  19.108  0.00  0.00    +0.000 NA
BRANCH  17  25
ATOM     22  C   UNL     1       8.669  14.538  17.887  0.00  0.00    +0.000 C 
ATOM     23  C   UNL     1       9.246  13.282  18.466  0.00  0.00    +0.000 A 
ATOM     24  C   UNL     1       8.709  12.026  18.156  0.00  0.00    +0.000 A 
ATOM     25  C   UNL     1       9.247  10.848  18.706  0.00  0.00    +0.000 A 
ATOM     26  C   UNL     1      10.343  10.945  19.579  0.00  0.00    +0.000 A 
ATOM     27  C   UNL     1      10.886  12.193  19.889  0.00  0.00    +0.000 A 
ATOM     28  C   UNL     1      10.340  13.344  19.332  0.00  0.00    +0.000 A 
ATOM     29  F   UNL     1      10.878  14.532  19.639  0.00  0.00    +0.000 F 
ENDBRANCH  17  25
ENDBRANCH  16  20
ENDBRANCH   1  16
TORSDOF 5
ENDMDL
MODEL 6
REMARK VINA RESULT:      -8.7      3.624      9.912
REMARK  Name = 
REMARK  8 active torsions:
REMARK  status: ('A' for Active; 'I' for Inactive)
REMARK    1  A    between atoms: C_1  and  C_2
REMARK    2  A    between atoms: C_4  and  C_5
REMARK    3  A    between atoms: C_8  and  C_9
REMARK    4  A    between atoms: C_9  and  C_10
REMARK    5  A    between atoms: C_10  and  C_11
REMARK    6  A    between atoms: N_13  and  C_14
REMARK    7  A    between atoms: N_13  and  C_15
REMARK    8  A    between atoms: N_23  and  C_24
REMARK                            x       y       z     vdW  Elec       q    Type
REMARK                         _______ _______ _______ _____ _____    ______ ____
ROOT
ATOM      1  C   UNL     1       7.651   8.528  17.404  0.00  0.00    +0.000 C 
ENDROOT
BRANCH   1   2
ATOM      2  C   UNL     1       8.548   9.022  18.512  0.00  0.00    +0.000 C 
ATOM      3  O   UNL     1       8.989   8.197  19.315  0.00  0.00    +0.000 OA
ATOM      4  N   UNL     1       8.827  10.381  18.607  0.00  0.00    +0.000 N 
ATOM      5  C   UNL     1       8.256  11.416  17.745  0.00  0.00    +0.000 C 
BRANCH   4   6
ATOM      6  C   UNL     1       9.814  10.797  19.626  0.00  0.00    +0.000 C 
ATOM      7  C   UNL     1       9.188  11.182  20.988  0.00  0.00    +0.000 C 
ATOM      8  C   UNL     1       9.291  12.638  21.502  0.00  0.00    +0.000 C 
ATOM      9  C   UNL     1      10.285  13.619  20.863  0.00  0.00    +0.000 C 
ATOM     10  C   UNL     1      10.881  13.095  19.623  0.00  0.00    +0.000 A 
ATOM     11  C   UNL     1      10.692  11.854  19.064  0.00  0.00    +0.000 A 
ATOM     12  C   UNL     1      11.523  11.847  17.926  0.00  0.00    +0.000 A 
ATOM     13  N   UNL     1      12.172  13.004  17.767  0.00  0.00    +0.000 NA
ATOM     14  N   UNL     1      11.779  13.744  18.822  0.00  0.00    +0.000 N 
ATOM     15  C   UNL     1      12.333  15.062  19.020  0.00  0.00    +0.000 C 
ENDBRANCH   4   6
ENDBRANCH   1   2
BRANCH   1  16
ATOM     16  C   UNL     1       7.869   7.043  17.150  0.00  0.00    +0.000 C 
BRANCH  16  20
ATOM     17  C   UNL     1       4.753   5.319  17.185  0.00  0.00    +0.000 A 
ATOM     18  N   UNL     1       5.012   5.273  15.868  0.00  0.00    +0.000 NA
ATOM     19  O   UNL     1       6.209   5.972  15.731  0.00  0.00    +0.000 OA
ATOM     20  C   UNL     1       6.560   6.376  16.987  0.00  0.00    +0.000 A 
ATOM     21  N   UNL     1       5.697   6.021  17.907  0.00  0.00    +0.000 NA
BRANCH  17  25
ATOM     22  C   UNL     1       1.820   4.788  21.200  0.00  0.00    +0.000 C 
ATOM     23  C   UNL     1       2.210   4.396  19.808  0.00  0.00    +0.000 A 
ATOM     24  C   UNL     1       3.270   5.029  19.145  0.00  0.00    +0.000 A 
ATOM     25  C   UNL     1       3.631   4.664  17.835  0.00  0.00    +0.000 A 
ATOM     26  C   UNL     1       2.911   3.644  17.191  0.00  0.00    +0.000 A 
ATOM     27  C   UNL     1       1.857   3.005  17.848  0.00  0.00    +0.000 A 
ATOM     28  C   UNL     1       1.519   3.380  19.143  0.00  0.00    +0.000 A 
ATOM     29  F   UNL     1       0.507   2.753  19.757  0.00  0.00    +0.000 F 
ENDBRANCH  17  25
ENDBRANCH  16  20
ENDBRANCH   1  16
TORSDOF 5
ENDMDL
MODEL 7
REMARK VINA RESULT:      -8.6      1.498      1.963
REMARK  Name = 
REMARK  8 active torsions:
REMARK  status: ('A' for Active; 'I' for Inactive)
REMARK    1  A    between atoms: C_1  and  C_2
REMARK    2  A    between atoms: C_4  and  C_5
REMARK    3  A    between atoms: C_8  and  C_9
REMARK    4  A    between atoms: C_9  and  C_10
REMARK    5  A    between atoms: C_10  and  C_11
REMARK    6  A    between atoms: N_13  and  C_14
REMARK    7  A    between atoms: N_13  and  C_15
REMARK    8  A    between atoms: N_23  and  C_24
REMARK                            x       y       z     vdW  Elec       q    Type
REMARK                         _______ _______ _______ _____ _____    ______ ____
ROOT
ATOM      1  C   UNL     1       7.485   5.084  17.175  0.00  0.00    +0.000 C 
ENDROOT
BRANCH   1   2
ATOM      2  C   UNL     1       6.221   4.268  17.054  0.00  0.00    +0.000 C 
ATOM      3  O   UNL     1       6.080   3.559  16.055  0.00  0.00    +0.000 OA
ATOM      4  N   UNL     1       5.255   4.357  18.050  0.00  0.00    +0.000 N 
ATOM      5  C   UNL     1       5.323   5.251  19.207  0.00  0.00    +0.000 C 
BRANCH   4   6
ATOM      6  C   UNL     1       4.099   3.440  17.952  0.00  0.00    +0.000 C 
ATOM      7  C   UNL     1       2.928   3.994  17.106  0.00  0.00    +0.000 C 
ATOM      8  C   UNL     1       1.566   4.297  17.775  0.00  0.00    +0.000 C 
ATOM      9  C   UNL     1       1.247   3.744  19.172  0.00  0.00    +0.000 C 
ATOM     10  C   UNL     1       2.426   3.161  19.834  0.00  0.00    +0.000 A 
ATOM     11  C   UNL     1       3.689   3.013  19.313  0.00  0.00    +0.000 A 
ATOM     12  C   UNL     1       4.416   2.359  20.328  0.00  0.00    +0.000 A 
ATOM     13  N   UNL     1       3.675   2.132  21.416  0.00  0.00    +0.000 NA
ATOM     14  N   UNL     1       2.460   2.613  21.086  0.00  0.00    +0.000 N 
ATOM     15  C   UNL     1       1.362   2.484  22.014  0.00  0.00    +0.000 C 
ENDBRANCH   4   6
ENDBRANCH   1   2
BRANCH   1  16
ATOM     16  C   UNL     1       7.510   5.855  18.487  0.00  0.00    +0.000 C 
BRANCH  16  20
ATOM     17  C   UNL     1       8.542   9.257  18.285  0.00  0.00    +0.000 A 
ATOM     18  N   UNL     1       7.718   9.218  17.226  0.00  0.00    +0.000 NA
ATOM     19  O   UNL     1       7.283   7.894  17.181  0.00  0.00    +0.000 OA
ATOM     20  C   UNL     1       7.892   7.259  18.224  0.00  0.00    +0.000 A 
ATOM     21  N   UNL     1       8.684   8.039  18.917  0.00  0.00    +0.000 NA
BRANCH  17  25
ATOM     22  C   UNL     1      10.673  13.688  17.373  0.00  0.00    +0.000 C 
ATOM     23  C   UNL     1      10.255  12.613  18.329  0.00  0.00    +0.000 A 
ATOM     24  C   UNL     1       9.596  11.460  17.883  0.00  0.00    +0.000 A 
ATOM     25  C   UNL     1       9.198  10.454  18.783  0.00  0.00    +0.000 A 
ATOM     26  C   UNL     1       9.474  10.619  20.150  0.00  0.00    +0.000 A 
ATOM     27  C   UNL     1      10.135  11.762  20.601  0.00  0.00    +0.000 A 
ATOM     28  C   UNL     1      10.521  12.743  19.694  0.00  0.00    +0.000 A 
ATOM     29  F   UNL     1      11.157  13.832  20.147  0.00  0.00    +0.000 F 
ENDBRANCH  17  25
ENDBRANCH  16  20
ENDBRANCH   1  16
TORSDOF 5
ENDMDL
MODEL 8
REMARK VINA RESULT:      -8.6      4.017     10.309
REMARK  Name = 
REMARK  8 active torsions:
REMARK  status: ('A' for Active; 'I' for Inactive)
REMARK    1  A    between atoms: C_1  and  C_2
REMARK    2  A    between atoms: C_4  and  C_5
REMARK    3  A    between atoms: C_8  and  C_9
REMARK    4  A    between atoms: C_9  and  C_10
REMARK    5  A    between atoms: C_10  and  C_11
REMARK    6  A    between atoms: N_13  and  C_14
REMARK    7  A    between atoms: N_13  and  C_15
REMARK    8  A    between atoms: N_23  and  C_24
REMARK                            x       y       z     vdW  Elec       q    Type
REMARK                         _______ _______ _______ _____ _____    ______ ____
ROOT
ATOM      1  C   UNL     1       9.163  10.150  18.856  0.00  0.00    +0.000 C 
ENDROOT
BRANCH   1   2
ATOM      2  C   UNL     1       9.862  11.472  18.657  0.00  0.00    +0.000 C 
ATOM      3  O   UNL     1      10.608  11.595  17.683  0.00  0.00    +0.000 OA
ATOM      4  N   UNL     1       9.664  12.492  19.580  0.00  0.00    +0.000 N 
ATOM      5  C   UNL     1       8.869  12.374  20.803  0.00  0.00    +0.000 C 
BRANCH   4   6
ATOM      6  C   UNL     1      10.263  13.809  19.270  0.00  0.00    +0.000 C 
ATOM      7  C   UNL     1      11.313  14.280  20.304  0.00  0.00    +0.000 C 
ATOM      8  C   UNL     1      11.043  15.541  21.161  0.00  0.00    +0.000 C 
ATOM      9  C   UNL     1       9.925  16.519  20.772  0.00  0.00    +0.000 C 
ATOM     10  C   UNL     1       9.050  15.989  19.712  0.00  0.00    +0.000 A 
ATOM     11  C   UNL     1       9.184  14.801  19.035  0.00  0.00    +0.000 A 
ATOM     12  C   UNL     1       8.128  14.803  18.103  0.00  0.00    +0.000 A 
ATOM     13  N   UNL     1       7.370  15.900  18.199  0.00  0.00    +0.000 NA
ATOM     14  N   UNL     1       7.961  16.617  19.175  0.00  0.00    +0.000 N 
ATOM     15  C   UNL     1       7.444  17.919  19.522  0.00  0.00    +0.000 C 
ENDBRANCH   4   6
ENDBRANCH   1   2
BRANCH   1  16
ATOM     16  C   UNL     1       8.325   9.790  17.638  0.00  0.00    +0.000 C 
BRANCH  16  20
ATOM     17  C   UNL     1       6.763   6.594  17.807  0.00  0.00    +0.000 A 
ATOM     18  N   UNL     1       7.756   6.397  18.688  0.00  0.00    +0.000 NA
ATOM     19  O   UNL     1       8.473   7.591  18.668  0.00  0.00    +0.000 OA
ATOM     20  C   UNL     1       7.839   8.400  17.770  0.00  0.00    +0.000 A 
ATOM     21  N   UNL     1       6.803   7.833  17.202  0.00  0.00    +0.000 NA
BRANCH  17  25
ATOM     22  C   UNL     1       2.079   5.028  18.588  0.00  0.00    +0.000 C 
ATOM     23  C   UNL     1       3.413   4.872  17.926  0.00  0.00    +0.000 A 
ATOM     24  C   UNL     1       4.449   5.788  18.154  0.00  0.00    +0.000 A 
ATOM     25  C   UNL     1       5.700   5.644  17.526  0.00  0.00    +0.000 A 
ATOM     26  C   UNL     1       5.904   4.557  16.660  0.00  0.00    +0.000 A 
ATOM     27  C   UNL     1       4.879   3.638  16.432  0.00  0.00    +0.000 A 
ATOM     28  C   UNL     1       3.651   3.799  17.064  0.00  0.00    +0.000 A 
ATOM     29  F   UNL     1       2.680   2.904  16.835  0.00  0.00    +0.000 F 
ENDBRANCH  17  25
ENDBRANCH  16  20
ENDBRANCH   1  16
TORSDOF 5
ENDMDL
MODEL 9
REMARK VINA RESULT:      -8.6      5.436      8.270
REMARK  Name = 
REMARK  8 active torsions:
REMARK  status: ('A' for Active; 'I' for Inactive)
REMARK    1  A    between atoms: C_1  and  C_2
REMARK    2  A    between atoms: C_4  and  C_5
REMARK    3  A    between atoms: C_8  and  C_9
REMARK    4  A    between atoms: C_9  and  C_10
REMARK    5  A    between atoms: C_10  and  C_11
REMARK    6  A    between atoms: N_13  and  C_14
REMARK    7  A    between atoms: N_13  and  C_15
REMARK    8  A    between atoms: N_23  and  C_24
REMARK                            x       y       z     vdW  Elec       q    Type
REMARK                         _______ _______ _______ _____ _____    ______ ____
ROOT
ATOM      1  C   UNL     1       2.221   7.359  18.282  0.00  0.00    +0.000 C 
ENDROOT
BRANCH   1   2
ATOM      2  C   UNL     1       1.869   8.825  18.217  0.00  0.00    +0.000 C 
ATOM      3  O   UNL     1       2.230   9.466  17.228  0.00  0.00    +0.000 OA
ATOM      4  N   UNL     1       1.178   9.406  19.273  0.00  0.00    +0.000 N 
ATOM      5  C   UNL     1       0.809   8.721  20.513  0.00  0.00    +0.000 C 
BRANCH   4   6
ATOM      6  C   UNL     1       0.741  10.809  19.103  0.00  0.00    +0.000 C 
ATOM      7  C   UNL     1       1.028  11.710  20.328  0.00  0.00    +0.000 C 
ATOM      8  C   UNL     1      -0.145  12.320  21.132  0.00  0.00    +0.000 C 
ATOM      9  C   UNL     1      -1.565  12.333  20.545  0.00  0.00    +0.000 C 
ATOM     10  C   UNL     1      -1.683  11.511  19.328  0.00  0.00    +0.000 A 
ATOM     11  C   UNL     1      -0.680  10.837  18.674  0.00  0.00    +0.000 A 
ATOM     12  C   UNL     1      -1.313  10.261  17.555  0.00  0.00    +0.000 A 
ATOM     13  N   UNL     1      -2.620  10.533  17.516  0.00  0.00    +0.000 NA
ATOM     14  N   UNL     1      -2.821  11.311  18.597  0.00  0.00    +0.000 N 
ATOM     15  C   UNL     1      -4.132  11.859  18.853  0.00  0.00    +0.000 C 
ENDBRANCH   4   6
ENDBRANCH   1   2
BRANCH   1  16
ATOM     16  C   UNL     1       3.712   7.169  18.523  0.00  0.00    +0.000 C 
BRANCH  16  20
ATOM     17  C   UNL     1       5.014   4.984  16.031  0.00  0.00    +0.000 A 
ATOM     18  N   UNL     1       4.325   4.093  16.762  0.00  0.00    +0.000 NA
ATOM     19  O   UNL     1       3.801   4.845  17.811  0.00  0.00    +0.000 OA
ATOM     20  C   UNL     1       4.228   6.126  17.611  0.00  0.00    +0.000 A 
ATOM     21  N   UNL     1       4.986   6.261  16.551  0.00  0.00    +0.000 NA
BRANCH  17  25
ATOM     22  C   UNL     1       5.009   2.729  11.568  0.00  0.00    +0.000 C 
ATOM     23  C   UNL     1       5.691   3.566  12.606  0.00  0.00    +0.000 A 
ATOM     24  C   UNL     1       5.053   3.894  13.809  0.00  0.00    +0.000 A 
ATOM     25  C   UNL     1       5.692   4.686  14.781  0.00  0.00    +0.000 A 
ATOM     26  C   UNL     1       6.995   5.147  14.530  0.00  0.00    +0.000 A 
ATOM     27  C   UNL     1       7.639   4.821  13.336  0.00  0.00    +0.000 A 
ATOM     28  C   UNL     1       6.989   4.035  12.391  0.00  0.00    +0.000 A 
ATOM     29  F   UNL     1       7.626   3.729  11.252  0.00  0.00    +0.000 F 
ENDBRANCH  17  25
ENDBRANCH  16  20
ENDBRANCH   1  16
TORSDOF 5
ENDMDL
