MODEL 1
REMARK VINA RESULT:      -8.8      0.000      0.000
REMARK  Name = 
REMARK  7 active torsions:
REMARK  status: ('A' for Active; 'I' for Inactive)
REMARK    1  A    between atoms: C_2  and  C_16
REMARK    2  A    between atoms: N_3  and  C_4
REMARK    3  A    between atoms: C_9  and  N_10
REMARK    4  A    between atoms: C_20  and  S_21
REMARK    5  A    between atoms: S_21  and  N_24
REMARK    6  A    between atoms: N_24  and  C_25
REMARK    7  A    between atoms: C_25  and  C_26
REMARK                            x       y       z     vdW  Elec       q    Type
REMARK                         _______ _______ _______ _____ _____    ______ ____
ROOT
ATOM      1  C   UNL     1       1.654   8.689  19.701  0.00  0.00    +0.000 A 
ATOM      2  C   UNL     1       1.327   7.935  20.844  0.00  0.00    +0.000 A 
ATOM      3  C   UNL     1       0.737   8.543  21.948  0.00  0.00    +0.000 A 
ATOM      4  C   UNL     1       0.459   9.913  21.927  0.00  0.00    +0.000 A 
ATOM      5  C   UNL     1       0.747  10.654  20.781  0.00  0.00    +0.000 A 
ATOM      6  C   UNL     1       1.342  10.049  19.666  0.00  0.00    +0.000 A 
ENDROOT
BRANCH   1   8
ATOM      7  O   UNL     1       2.003   8.382  17.432  0.00  0.00    +0.000 OA
ATOM      8  C   UNL     1       2.264   7.966  18.554  0.00  0.00    +0.000 C 
ATOM      9  N   UNL     1       3.093   6.905  18.866  0.00  0.00    +0.000 N 
ATOM     10  H   UNL     1       3.283   6.669  19.831  0.00  0.00    +0.000 HD
BRANCH   9  11
ATOM     11  C   UNL     1       3.815   6.110  17.941  0.00  0.00    +0.000 A 
ATOM     12  C   UNL     1       4.546   6.704  16.901  0.00  0.00    +0.000 A 
ATOM     13  C   UNL     1       5.192   5.925  15.946  0.00  0.00    +0.000 A 
ATOM     14  C   UNL     1       5.135   4.542  16.038  0.00  0.00    +0.000 A 
ATOM     15  C   UNL     1       4.406   3.938  17.068  0.00  0.00    +0.000 A 
ATOM     16  C   UNL     1       3.712   4.694  18.032  0.00  0.00    +0.000 A 
BRANCH  16  17
ATOM     17  N   UNL     1       2.907   4.084  18.992  0.00  0.00    +0.000 N 
ATOM     18  C   UNL     1       1.482   3.817  18.714  0.00  0.00    +0.000 C 
ATOM     19  C   UNL     1       0.730   3.865  20.055  0.00  0.00    +0.000 C 
ATOM     20  O   UNL     1       1.263   2.909  20.991  0.00  0.00    +0.000 OA
ATOM     21  C   UNL     1       2.666   3.140  21.214  0.00  0.00    +0.000 C 
ATOM     22  C   UNL     1       3.463   3.054  19.895  0.00  0.00    +0.000 C 
ENDBRANCH  16  17
ENDBRANCH   9  11
ENDBRANCH   1   8
BRANCH   5  23
ATOM     23  S   UNL     1       0.501  12.420  20.783  0.00  0.00    +0.000 S 
ATOM     24  O   UNL     1       0.017  12.798  22.090  0.00  0.00    +0.000 OA
ATOM     25  O   UNL     1       1.700  12.994  20.215  0.00  0.00    +0.000 OA
BRANCH  23  26
ATOM     26  N   UNL     1      -0.728  12.637  19.650  0.00  0.00    +0.000 NA
ATOM     27  H   UNL     1      -0.384  12.688  18.693  0.00  0.00    +0.000 HD
BRANCH  26  28
ATOM     28  C   UNL     1      -1.895  11.755  19.793  0.00  0.00    +0.000 C 
BRANCH  28  29
ATOM     29  C   UNL     1      -2.383  11.248  18.457  0.00  0.00    +0.000 A 
ATOM     30  C   UNL     1      -1.636  10.305  17.737  0.00  0.00    +0.000 A 
ATOM     31  C   UNL     1      -2.110   9.800  16.525  0.00  0.00    +0.000 A 
ATOM     32  C   UNL     1      -3.336  10.233  16.019  0.00  0.00    +0.000 A 
ATOM     33  C   UNL     1      -4.084  11.174  16.721  0.00  0.00    +0.000 A 
ATOM     34  C   UNL     1      -3.611  11.682  17.934  0.00  0.00    +0.000 A 
ENDBRANCH  28  29
ENDBRANCH  26  28
ENDBRANCH  23  26
ENDBRANCH   5  23
TORSDOF 7
ENDMDL
MODEL 2
REMARK VINA RESULT:      -8.7      1.667      3.412
REMARK  Name = 
REMARK  7 active torsions:
REMARK  status: ('A' for Active; 'I' for Inactive)
REMARK    1  A    between atoms: C_2  and  C_16
REMARK    2  A    between atoms: N_3  and  C_4
REMARK    3  A    between atoms: C_9  and  N_10
REMARK    4  A    between atoms: C_20  and  S_21
REMARK    5  A    between atoms: S_21  and  N_24
REMARK    6  A    between atoms: N_24  and  C_25
REMARK    7  A    between atoms: C_25  and  C_26
REMARK                            x       y       z     vdW  Elec       q    Type
REMARK                         _______ _______ _______ _____ _____    ______ ____
ROOT
ATOM      1  C   UNL     1       1.837   8.068  19.184  0.00  0.00    +0.000 A 
ATOM      2  C   UNL     1       2.354   8.603  17.989  0.00  0.00    +0.000 A 
ATOM      3  C   UNL     1       2.192   9.953  17.690  0.00  0.00    +0.000 A 
ATOM      4  C   UNL     1       1.515  10.790  18.581  0.00  0.00    +0.000 A 
ATOM      5  C   UNL     1       1.035  10.270  19.782  0.00  0.00    +0.000 A 
ATOM      6  C   UNL     1       1.193   8.912  20.090  0.00  0.00    +0.000 A 
ENDROOT
BRANCH   1   8
ATOM      7  O   UNL     1       2.087   6.264  20.614  0.00  0.00    +0.000 OA
ATOM      8  C   UNL     1       2.066   6.622  19.443  0.00  0.00    +0.000 C 
ATOM      9  N   UNL     1       2.208   5.812  18.332  0.00  0.00    +0.000 N 
ATOM     10  H   UNL     1       2.127   6.200  17.401  0.00  0.00    +0.000 HD
BRANCH   9  11
ATOM     11  C   UNL     1       2.384   4.406  18.341  0.00  0.00    +0.000 A 
ATOM     12  C   UNL     1       1.459   3.570  18.986  0.00  0.00    +0.000 A 
ATOM     13  C   UNL     1       1.670   2.198  19.064  0.00  0.00    +0.000 A 
ATOM     14  C   UNL     1       2.796   1.642  18.473  0.00  0.00    +0.000 A 
ATOM     15  C   UNL     1       3.728   2.466  17.832  0.00  0.00    +0.000 A 
ATOM     16  C   UNL     1       3.565   3.862  17.762  0.00  0.00    +0.000 A 
BRANCH  16  17
ATOM     17  N   UNL     1       4.548   4.682  17.211  0.00  0.00    +0.000 N 
ATOM     18  C   UNL     1       5.514   5.382  18.081  0.00  0.00    +0.000 C 
ATOM     19  C   UNL     1       5.927   6.680  17.367  0.00  0.00    +0.000 C 
ATOM     20  O   UNL     1       6.496   6.410  16.072  0.00  0.00    +0.000 OA
ATOM     21  C   UNL     1       5.570   5.677  15.249  0.00  0.00    +0.000 C 
ATOM     22  C   UNL     1       5.167   4.343  15.912  0.00  0.00    +0.000 C 
ENDBRANCH  16  17
ENDBRANCH   9  11
ENDBRANCH   1   8
BRANCH   5  23
ATOM     23  S   UNL     1       0.074  11.301  20.874  0.00  0.00    +0.000 S 
ATOM     24  O   UNL     1      -0.820  10.444  21.618  0.00  0.00    +0.000 OA
ATOM     25  O   UNL     1       1.016  12.180  21.531  0.00  0.00    +0.000 OA
BRANCH  23  26
ATOM     26  N   UNL     1      -0.823  12.253  19.812  0.00  0.00    +0.000 NA
ATOM     27  H   UNL     1      -0.438  12.269  18.869  0.00  0.00    +0.000 HD
BRANCH  26  28
ATOM     28  C   UNL     1      -2.277  12.043  19.834  0.00  0.00    +0.000 C 
BRANCH  28  29
ATOM     29  C   UNL     1      -2.798  11.578  18.495  0.00  0.00    +0.000 A 
ATOM     30  C   UNL     1      -1.940  10.965  17.571  0.00  0.00    +0.000 A 
ATOM     31  C   UNL     1      -2.431  10.492  16.353  0.00  0.00    +0.000 A 
ATOM     32  C   UNL     1      -3.784  10.626  16.045  0.00  0.00    +0.000 A 
ATOM     33  C   UNL     1      -4.646  11.239  16.951  0.00  0.00    +0.000 A 
ATOM     34  C   UNL     1      -4.157  11.715  18.170  0.00  0.00    +0.000 A 
ENDBRANCH  28  29
ENDBRANCH  26  28
ENDBRANCH  23  26
ENDBRANCH   5  23
TORSDOF 7
ENDMDL
MODEL 3
REMARK VINA RESULT:      -8.6      1.755      3.430
REMARK  Name = 
REMARK  7 active torsions:
REMARK  status: ('A' for Active; 'I' for Inactive)
REMARK    1  A    between atoms: C_2  and  C_16
REMARK    2  A    between atoms: N_3  and  C_4
REMARK    3  A    between atoms: C_9  and  N_10
REMARK    4  A    between atoms: C_20  and  S_21
REMARK    5  A    between atoms: S_21  and  N_24
REMARK    6  A    between atoms: N_24  and  C_25
REMARK    7  A    between atoms: C_25  and  C_26
REMARK                            x       y       z     vdW  Elec       q    Type
REMARK                         _______ _______ _______ _____ _____    ______ ____
ROOT
ATOM      1  C   UNL     1       1.824   8.100  19.211  0.00  0.00    +0.000 A 
ATOM      2  C   UNL     1       2.287   8.674  18.013  0.00  0.00    +0.000 A 
ATOM      3  C   UNL     1       2.129  10.036  17.773  0.00  0.00    +0.000 A 
ATOM      4  C   UNL     1       1.510  10.847  18.729  0.00  0.00    +0.000 A 
ATOM      5  C   UNL     1       1.085  10.287  19.933  0.00  0.00    +0.000 A 
ATOM      6  C   UNL     1       1.240   8.916  20.181  0.00  0.00    +0.000 A 
ENDROOT
BRANCH   1   8
ATOM      7  O   UNL     1       2.003   6.221  20.553  0.00  0.00    +0.000 OA
ATOM      8  C   UNL     1       2.046   6.642  19.404  0.00  0.00    +0.000 C 
ATOM      9  N   UNL     1       2.253   5.895  18.260  0.00  0.00    +0.000 N 
ATOM     10  H   UNL     1       2.221   6.332  17.349  0.00  0.00    +0.000 HD
BRANCH   9  11
ATOM     11  C   UNL     1       2.435   4.490  18.203  0.00  0.00    +0.000 A 
ATOM     12  C   UNL     1       1.377   3.616  18.495  0.00  0.00    +0.000 A 
ATOM     13  C   UNL     1       1.572   2.239  18.515  0.00  0.00    +0.000 A 
ATOM     14  C   UNL     1       2.824   1.720  18.217  0.00  0.00    +0.000 A 
ATOM     15  C   UNL     1       3.889   2.582  17.929  0.00  0.00    +0.000 A 
ATOM     16  C   UNL     1       3.736   3.982  17.932  0.00  0.00    +0.000 A 
BRANCH  16  17
ATOM     17  N   UNL     1       4.824   4.832  17.743  0.00  0.00    +0.000 N 
ATOM     18  C   UNL     1       6.105   4.572  18.431  0.00  0.00    +0.000 C 
ATOM     19  C   UNL     1       6.797   5.927  18.652  0.00  0.00    +0.000 C 
ATOM     20  O   UNL     1       7.008   6.619  17.407  0.00  0.00    +0.000 OA
ATOM     21  C   UNL     1       5.761   6.819  16.715  0.00  0.00    +0.000 C 
ATOM     22  C   UNL     1       5.057   5.475  16.433  0.00  0.00    +0.000 C 
ENDBRANCH  16  17
ENDBRANCH   9  11
ENDBRANCH   1   8
BRANCH   5  23
ATOM     23  S   UNL     1       0.196  11.288  21.111  0.00  0.00    +0.000 S 
ATOM     24  O   UNL     1       0.381  10.701  22.418  0.00  0.00    +0.000 OA
ATOM     25  O   UNL     1       0.558  12.659  20.829  0.00  0.00    +0.000 OA
BRANCH  23  26
ATOM     26  N   UNL     1      -1.411  11.100  20.638  0.00  0.00    +0.000 NA
ATOM     27  H   UNL     1      -2.046  10.973  21.424  0.00  0.00    +0.000 HD
BRANCH  26  28
ATOM     28  C   UNL     1      -1.907  12.070  19.652  0.00  0.00    +0.000 C 
BRANCH  28  29
ATOM     29  C   UNL     1      -2.474  11.387  18.430  0.00  0.00    +0.000 A 
ATOM     30  C   UNL     1      -3.754  11.714  17.962  0.00  0.00    +0.000 A 
ATOM     31  C   UNL     1      -4.260  11.119  16.805  0.00  0.00    +0.000 A 
ATOM     32  C   UNL     1      -3.491  10.191  16.103  0.00  0.00    +0.000 A 
ATOM     33  C   UNL     1      -2.220   9.852  16.561  0.00  0.00    +0.000 A 
ATOM     34  C   UNL     1      -1.713  10.446  17.719  0.00  0.00    +0.000 A 
ENDBRANCH  28  29
ENDBRANCH  26  28
ENDBRANCH  23  26
ENDBRANCH   5  23
TORSDOF 7
ENDMDL
MODEL 4
REMARK VINA RESULT:      -8.5      0.642      1.317
REMARK  Name = 
REMARK  7 active torsions:
REMARK  status: ('A' for Active; 'I' for Inactive)
REMARK    1  A    between atoms: C_2  and  C_16
REMARK    2  A    between atoms: N_3  and  C_4
REMARK    3  A    between atoms: C_9  and  N_10
REMARK    4  A    between atoms: C_20  and  S_21
REMARK    5  A    between atoms: S_21  and  N_24
REMARK    6  A    between atoms: N_24  and  C_25
REMARK    7  A    between atoms: C_25  and  C_26
REMARK                            x       y       z     vdW  Elec       q    Type
REMARK                         _______ _______ _______ _____ _____    ______ ____
ROOT
ATOM      1  C   UNL     1       1.701   8.637  19.654  0.00  0.00    +0.000 A 
ATOM      2  C   UNL     1       1.345   7.788  20.719  0.00  0.00    +0.000 A 
ATOM      3  C   UNL     1       0.718   8.299  21.853  0.00  0.00    +0.000 A 
ATOM      4  C   UNL     1       0.434   9.665  21.938  0.00  0.00    +0.000 A 
ATOM      5  C   UNL     1       0.751  10.501  20.869  0.00  0.00    +0.000 A 
ATOM      6  C   UNL     1       1.383   9.994  19.725  0.00  0.00    +0.000 A 
ENDROOT
BRANCH   1   8
ATOM      7  O   UNL     1       2.177   8.566  17.389  0.00  0.00    +0.000 OA
ATOM      8  C   UNL     1       2.350   8.015  18.470  0.00  0.00    +0.000 C 
ATOM      9  N   UNL     1       3.111   6.887  18.706  0.00  0.00    +0.000 N 
ATOM     10  H   UNL     1       3.231   6.537  19.648  0.00  0.00    +0.000 HD
BRANCH   9  11
ATOM     11  C   UNL     1       3.854   6.163  17.740  0.00  0.00    +0.000 A 
ATOM     12  C   UNL     1       4.644   6.833  16.793  0.00  0.00    +0.000 A 
ATOM     13  C   UNL     1       5.312   6.131  15.795  0.00  0.00    +0.000 A 
ATOM     14  C   UNL     1       5.219   4.747  15.751  0.00  0.00    +0.000 A 
ATOM     15  C   UNL     1       4.431   4.069  16.687  0.00  0.00    +0.000 A 
ATOM     16  C   UNL     1       3.714   4.748  17.690  0.00  0.00    +0.000 A 
BRANCH  16  17
ATOM     17  N   UNL     1       2.853   4.073  18.552  0.00  0.00    +0.000 N 
ATOM     18  C   UNL     1       3.043   4.153  20.014  0.00  0.00    +0.000 C 
ATOM     19  C   UNL     1       2.518   2.842  20.625  0.00  0.00    +0.000 C 
ATOM     20  O   UNL     1       1.134   2.626  20.293  0.00  0.00    +0.000 OA
ATOM     21  C   UNL     1       0.947   2.605  18.866  0.00  0.00    +0.000 C 
ATOM     22  C   UNL     1       1.420   3.925  18.221  0.00  0.00    +0.000 C 
ENDBRANCH  16  17
ENDBRANCH   9  11
ENDBRANCH   1   8
BRANCH   5  23
ATOM     23  S   UNL     1       0.495  12.260  21.011  0.00  0.00    +0.000 S 
ATOM     24  O   UNL     1      -0.514  12.478  22.022  0.00  0.00    +0.000 OA
ATOM     25  O   UNL     1       1.811  12.852  21.102  0.00  0.00    +0.000 OA
BRANCH  23  26
ATOM     26  N   UNL     1      -0.127  12.680  19.503  0.00  0.00    +0.000 NA
ATOM     27  H   UNL     1       0.258  12.122  18.742  0.00  0.00    +0.000 HD
BRANCH  26  28
ATOM     28  C   UNL     1      -1.588  12.819  19.428  0.00  0.00    +0.000 C 
BRANCH  28  29
ATOM     29  C   UNL     1      -2.212  11.739  18.576  0.00  0.00    +0.000 A 
ATOM     30  C   UNL     1      -3.606  11.636  18.467  0.00  0.00    +0.000 A 
ATOM     31  C   UNL     1      -4.182  10.668  17.641  0.00  0.00    +0.000 A 
ATOM     32  C   UNL     1      -3.372   9.793  16.919  0.00  0.00    +0.000 A 
ATOM     33  C   UNL     1      -1.986   9.881  17.024  0.00  0.00    +0.000 A 
ATOM     34  C   UNL     1      -1.407  10.848  17.850  0.00  0.00    +0.000 A 
ENDBRANCH  28  29
ENDBRANCH  26  28
ENDBRANCH  23  26
ENDBRANCH   5  23
TORSDOF 7
ENDMDL
MODEL 5
REMARK VINA RESULT:      -8.2      1.603      2.117
REMARK  Name = 
REMARK  7 active torsions:
REMARK  status: ('A' for Active; 'I' for Inactive)
REMARK    1  A    between atoms: C_2  and  C_16
REMARK    2  A    between atoms: N_3  and  C_4
REMARK    3  A    between atoms: C_9  and  N_10
REMARK    4  A    between atoms: C_20  and  S_21
REMARK    5  A    between atoms: S_21  and  N_24
REMARK    6  A    between atoms: N_24  and  C_25
REMARK    7  A    between atoms: C_25  and  C_26
REMARK                            x       y       z     vdW  Elec       q    Type
REMARK                         _______ _______ _______ _____ _____    ______ ____
ROOT
ATOM      1  C   UNL     1       1.648   8.537  19.204  0.00  0.00    +0.000 A 
ATOM      2  C   UNL     1       1.699   7.971  20.491  0.00  0.00    +0.000 A 
ATOM      3  C   UNL     1       0.927   8.493  21.526  0.00  0.00    +0.000 A 
ATOM      4  C   UNL     1       0.088   9.585  21.289  0.00  0.00    +0.000 A 
ATOM      5  C   UNL     1       0.007  10.124  20.005  0.00  0.00    +0.000 A 
ATOM      6  C   UNL     1       0.782   9.605  18.959  0.00  0.00    +0.000 A 
ENDROOT
BRANCH   1   8
ATOM      7  O   UNL     1       2.651   8.556  17.117  0.00  0.00    +0.000 OA
ATOM      8  C   UNL     1       2.487   7.913  18.146  0.00  0.00    +0.000 C 
ATOM      9  N   UNL     1       3.024   6.674  18.439  0.00  0.00    +0.000 N 
ATOM     10  H   UNL     1       2.867   6.247  19.342  0.00  0.00    +0.000 HD
BRANCH   9  11
ATOM     11  C   UNL     1       3.888   5.922  17.604  0.00  0.00    +0.000 A 
ATOM     12  C   UNL     1       4.666   6.552  16.621  0.00  0.00    +0.000 A 
ATOM     13  C   UNL     1       5.455   5.809  15.749  0.00  0.00    +0.000 A 
ATOM     14  C   UNL     1       5.496   4.427  15.870  0.00  0.00    +0.000 A 
ATOM     15  C   UNL     1       4.721   3.787  16.844  0.00  0.00    +0.000 A 
ATOM     16  C   UNL     1       3.885   4.504  17.721  0.00  0.00    +0.000 A 
BRANCH  16  17
ATOM     17  N   UNL     1       3.043   3.850  18.618  0.00  0.00    +0.000 N 
ATOM     18  C   UNL     1       1.857   3.116  18.133  0.00  0.00    +0.000 C 
ATOM     19  C   UNL     1       0.796   3.159  19.245  0.00  0.00    +0.000 C 
ATOM     20  O   UNL     1       1.294   2.588  20.469  0.00  0.00    +0.000 OA
ATOM     21  C   UNL     1       2.483   3.273  20.907  0.00  0.00    +0.000 C 
ATOM     22  C   UNL     1       3.590   3.210  19.833  0.00  0.00    +0.000 C 
ENDBRANCH  16  17
ENDBRANCH   9  11
ENDBRANCH   1   8
BRANCH   5  23
ATOM     23  S   UNL     1      -0.973  11.585  19.716  0.00  0.00    +0.000 S 
ATOM     24  O   UNL     1      -1.461  12.049  20.994  0.00  0.00    +0.000 OA
ATOM     25  O   UNL     1      -0.190  12.429  18.843  0.00  0.00    +0.000 OA
BRANCH  23  26
ATOM     26  N   UNL     1      -2.267  11.005  18.805  0.00  0.00    +0.000 NA
ATOM     27  H   UNL     1      -2.739  10.214  19.240  0.00  0.00    +0.000 HD
BRANCH  26  28
ATOM     28  C   UNL     1      -3.200  12.020  18.296  0.00  0.00    +0.000 C 
BRANCH  28  29
ATOM     29  C   UNL     1      -4.606  11.791  18.797  0.00  0.00    +0.000 A 
ATOM     30  C   UNL     1      -5.089  12.496  19.908  0.00  0.00    +0.000 A 
ATOM     31  C   UNL     1      -6.405  12.321  20.342  0.00  0.00    +0.000 A 
ATOM     32  C   UNL     1      -7.250  11.439  19.670  0.00  0.00    +0.000 A 
ATOM     33  C   UNL     1      -6.780  10.727  18.569  0.00  0.00    +0.000 A 
ATOM     34  C   UNL     1      -5.464  10.900  18.134  0.00  0.00    +0.000 A 
ENDBRANCH  28  29
ENDBRANCH  26  28
ENDBRANCH  23  26
ENDBRANCH   5  23
TORSDOF 7
ENDMDL
MODEL 6
REMARK VINA RESULT:      -8.2      2.445      4.367
REMARK  Name = 
REMARK  7 active torsions:
REMARK  status: ('A' for Active; 'I' for Inactive)
REMARK    1  A    between atoms: C_2  and  C_16
REMARK    2  A    between atoms: N_3  and  C_4
REMARK    3  A    between atoms: C_9  and  N_10
REMARK    4  A    between atoms: C_20  and  S_21
REMARK    5  A    between atoms: S_21  and  N_24
REMARK    6  A    between atoms: N_24  and  C_25
REMARK    7  A    between atoms: C_25  and  C_26
REMARK                            x       y       z     vdW  Elec       q    Type
REMARK                         _______ _______ _______ _____ _____    ______ ____
ROOT
ATOM      1  C   UNL     1       1.951   7.875  19.229  0.00  0.00    +0.000 A 
ATOM      2  C   UNL     1       2.137   8.450  17.958  0.00  0.00    +0.000 A 
ATOM      3  C   UNL     1       1.809   9.784  17.729  0.00  0.00    +0.000 A 
ATOM      4  C   UNL     1       1.296  10.566  18.767  0.00  0.00    +0.000 A 
ATOM      5  C   UNL     1       1.147  10.009  20.037  0.00  0.00    +0.000 A 
ATOM      6  C   UNL     1       1.473   8.667  20.275  0.00  0.00    +0.000 A 
ENDROOT
BRANCH   1   8
ATOM      7  O   UNL     1       2.789   6.126  20.494  0.00  0.00    +0.000 OA
ATOM      8  C   UNL     1       2.341   6.451  19.401  0.00  0.00    +0.000 C 
ATOM      9  N   UNL     1       2.134   5.621  18.316  0.00  0.00    +0.000 N 
ATOM     10  H   UNL     1       1.711   5.978  17.470  0.00  0.00    +0.000 HD
BRANCH   9  11
ATOM     11  C   UNL     1       2.385   4.226  18.273  0.00  0.00    +0.000 A 
ATOM     12  C   UNL     1       1.486   3.316  18.851  0.00  0.00    +0.000 A 
ATOM     13  C   UNL     1       1.768   1.955  18.878  0.00  0.00    +0.000 A 
ATOM     14  C   UNL     1       2.940   1.485  18.303  0.00  0.00    +0.000 A 
ATOM     15  C   UNL     1       3.846   2.383  17.728  0.00  0.00    +0.000 A 
ATOM     16  C   UNL     1       3.611   3.771  17.711  0.00  0.00    +0.000 A 
BRANCH  16  17
ATOM     17  N   UNL     1       4.565   4.664  17.228  0.00  0.00    +0.000 N 
ATOM     18  C   UNL     1       5.648   5.150  18.106  0.00  0.00    +0.000 C 
ATOM     19  C   UNL     1       6.040   6.558  17.624  0.00  0.00    +0.000 C 
ATOM     20  O   UNL     1       6.456   6.544  16.246  0.00  0.00    +0.000 OA
ATOM     21  C   UNL     1       5.416   6.016  15.402  0.00  0.00    +0.000 C 
ATOM     22  C   UNL     1       5.027   4.584  15.826  0.00  0.00    +0.000 C 
ENDBRANCH  16  17
ENDBRANCH   9  11
ENDBRANCH   1   8
BRANCH   5  23
ATOM     23  S   UNL     1       0.390  10.962  21.340  0.00  0.00    +0.000 S 
ATOM     24  O   UNL     1       0.427  10.169  22.547  0.00  0.00    +0.000 OA
ATOM     25  O   UNL     1       0.983  12.279  21.271  0.00  0.00    +0.000 OA
BRANCH  23  26
ATOM     26  N   UNL     1      -1.206  11.118  20.824  0.00  0.00    +0.000 NA
ATOM     27  H   UNL     1      -1.830  10.429  21.242  0.00  0.00    +0.000 HD
BRANCH  26  28
ATOM     28  C   UNL     1      -1.758  12.480  20.848  0.00  0.00    +0.000 C 
BRANCH  28  29
ATOM     29  C   UNL     1      -2.893  12.608  21.836  0.00  0.00    +0.000 A 
ATOM     30  C   UNL     1      -2.710  12.254  23.180  0.00  0.00    +0.000 A 
ATOM     31  C   UNL     1      -3.745  12.418  24.104  0.00  0.00    +0.000 A 
ATOM     32  C   UNL     1      -4.972  12.936  23.694  0.00  0.00    +0.000 A 
ATOM     33  C   UNL     1      -5.169  13.286  22.360  0.00  0.00    +0.000 A 
ATOM     34  C   UNL     1      -4.136  13.121  21.434  0.00  0.00    +0.000 A 
ENDBRANCH  28  29
ENDBRANCH  26  28
ENDBRANCH  23  26
ENDBRANCH   5  23
TORSDOF 7
ENDMDL
MODEL 7
REMARK VINA RESULT:      -8.2      2.243      3.154
REMARK  Name = 
REMARK  7 active torsions:
REMARK  status: ('A' for Active; 'I' for Inactive)
REMARK    1  A    between atoms: C_2  and  C_16
REMARK    2  A    between atoms: N_3  and  C_4
REMARK    3  A    between atoms: C_9  and  N_10
REMARK    4  A    between atoms: C_20  and  S_21
REMARK    5  A    between atoms: S_21  and  N_24
REMARK    6  A    between atoms: N_24  and  C_25
REMARK    7  A    between atoms: C_25  and  C_26
REMARK                            x       y       z     vdW  Elec       q    Type
REMARK                         _______ _______ _______ _____ _____    ______ ____
ROOT
ATOM      1  C   UNL     1       1.651   8.657  19.284  0.00  0.00    +0.000 A 
ATOM      2  C   UNL     1       1.558   8.027  20.538  0.00  0.00    +0.000 A 
ATOM      3  C   UNL     1       0.816   8.603  21.566  0.00  0.00    +0.000 A 
ATOM      4  C   UNL     1       0.151   9.815  21.355  0.00  0.00    +0.000 A 
ATOM      5  C   UNL     1       0.212  10.421  20.101  0.00  0.00    +0.000 A 
ATOM      6  C   UNL     1       0.958   9.848  19.061  0.00  0.00    +0.000 A 
ENDROOT
BRANCH   1   8
ATOM      7  O   UNL     1       2.560   8.550  17.156  0.00  0.00    +0.000 OA
ATOM      8  C   UNL     1       2.446   7.973  18.230  0.00  0.00    +0.000 C 
ATOM      9  N   UNL     1       3.005   6.757  18.574  0.00  0.00    +0.000 N 
ATOM     10  H   UNL     1       2.892   6.385  19.508  0.00  0.00    +0.000 HD
BRANCH   9  11
ATOM     11  C   UNL     1       3.836   5.957  17.750  0.00  0.00    +0.000 A 
ATOM     12  C   UNL     1       4.598   6.535  16.723  0.00  0.00    +0.000 A 
ATOM     13  C   UNL     1       5.354   5.745  15.863  0.00  0.00    +0.000 A 
ATOM     14  C   UNL     1       5.376   4.368  16.038  0.00  0.00    +0.000 A 
ATOM     15  C   UNL     1       4.617   3.780  17.056  0.00  0.00    +0.000 A 
ATOM     16  C   UNL     1       3.814   4.545  17.924  0.00  0.00    +0.000 A 
BRANCH  16  17
ATOM     17  N   UNL     1       2.985   3.942  18.867  0.00  0.00    +0.000 N 
ATOM     18  C   UNL     1       1.601   3.566  18.515  0.00  0.00    +0.000 C 
ATOM     19  C   UNL     1       0.757   3.644  19.799  0.00  0.00    +0.000 C 
ATOM     20  O   UNL     1       1.283   2.783  20.826  0.00  0.00    +0.000 OA
ATOM     21  C   UNL     1       2.651   3.117  21.124  0.00  0.00    +0.000 C 
ATOM     22  C   UNL     1       3.540   3.006  19.867  0.00  0.00    +0.000 C 
ENDBRANCH  16  17
ENDBRANCH   9  11
ENDBRANCH   1   8
BRANCH   5  23
ATOM     23  S   UNL     1      -0.538  12.020  19.852  0.00  0.00    +0.000 S 
ATOM     24  O   UNL     1       0.347  13.015  20.411  0.00  0.00    +0.000 OA
ATOM     25  O   UNL     1      -0.956  12.057  18.468  0.00  0.00    +0.000 OA
BRANCH  23  26
ATOM     26  N   UNL     1      -1.940  11.935  20.783  0.00  0.00    +0.000 NA
ATOM     27  H   UNL     1      -2.279  10.983  20.909  0.00  0.00    +0.000 HD
BRANCH  26  28
ATOM     28  C   UNL     1      -1.927  12.708  22.033  0.00  0.00    +0.000 C 
BRANCH  28  29
ATOM     29  C   UNL     1      -3.291  12.755  22.679  0.00  0.00    +0.000 A 
ATOM     30  C   UNL     1      -4.426  13.079  21.923  0.00  0.00    +0.000 A 
ATOM     31  C   UNL     1      -5.693  13.075  22.508  0.00  0.00    +0.000 A 
ATOM     32  C   UNL     1      -5.839  12.748  23.856  0.00  0.00    +0.000 A 
ATOM     33  C   UNL     1      -4.719  12.430  24.620  0.00  0.00    +0.000 A 
ATOM     34  C   UNL     1      -3.450  12.435  24.036  0.00  0.00    +0.000 A 
ENDBRANCH  28  29
ENDBRANCH  26  28
ENDBRANCH  23  26
ENDBRANCH   5  23
TORSDOF 7
ENDMDL
MODEL 8
REMARK VINA RESULT:      -8.2      2.894      4.686
REMARK  Name = 
REMARK  7 active torsions:
REMARK  status: ('A' for Active; 'I' for Inactive)
REMARK    1  A    between atoms: C_2  and  C_16
REMARK    2  A    between atoms: N_3  and  C_4
REMARK    3  A    between atoms: C_9  and  N_10
REMARK    4  A    between atoms: C_20  and  S_21
REMARK    5  A    between atoms: S_21  and  N_24
REMARK    6  A    between atoms: N_24  and  C_25
REMARK    7  A    between atoms: C_25  and  C_26
REMARK                            x       y       z     vdW  Elec       q    Type
REMARK                         _______ _______ _______ _____ _____    ______ ____
ROOT
ATOM      1  C   UNL     1       1.816   7.939  19.273  0.00  0.00    +0.000 A 
ATOM      2  C   UNL     1       2.126   8.458  18.002  0.00  0.00    +0.000 A 
ATOM      3  C   UNL     1       1.898   9.800  17.710  0.00  0.00    +0.000 A 
ATOM      4  C   UNL     1       1.361  10.646  18.686  0.00  0.00    +0.000 A 
ATOM      5  C   UNL     1       1.089  10.142  19.957  0.00  0.00    +0.000 A 
ATOM      6  C   UNL     1       1.315   8.792  20.258  0.00  0.00    +0.000 A 
ENDROOT
BRANCH   1   8
ATOM      7  O   UNL     1       2.207   6.143  20.682  0.00  0.00    +0.000 OA
ATOM      8  C   UNL     1       2.105   6.501  19.515  0.00  0.00    +0.000 C 
ATOM      9  N   UNL     1       2.206   5.697  18.396  0.00  0.00    +0.000 N 
ATOM     10  H   UNL     1       2.058   6.081  17.472  0.00  0.00    +0.000 HD
BRANCH   9  11
ATOM     11  C   UNL     1       2.426   4.296  18.392  0.00  0.00    +0.000 A 
ATOM     12  C   UNL     1       1.527   3.426  19.027  0.00  0.00    +0.000 A 
ATOM     13  C   UNL     1       1.780   2.060  19.091  0.00  0.00    +0.000 A 
ATOM     14  C   UNL     1       2.924   1.546  18.498  0.00  0.00    +0.000 A 
ATOM     15  C   UNL     1       3.831   2.404  17.867  0.00  0.00    +0.000 A 
ATOM     16  C   UNL     1       3.625   3.795  17.811  0.00  0.00    +0.000 A 
BRANCH  16  17
ATOM     17  N   UNL     1       4.582   4.651  17.269  0.00  0.00    +0.000 N 
ATOM     18  C   UNL     1       5.588   5.294  18.138  0.00  0.00    +0.000 C 
ATOM     19  C   UNL     1       5.970   6.637  17.492  0.00  0.00    +0.000 C 
ATOM     20  O   UNL     1       6.479   6.453  16.158  0.00  0.00    +0.000 OA
ATOM     21  C   UNL     1       5.515   5.774  15.331  0.00  0.00    +0.000 C 
ATOM     22  C   UNL     1       5.141   4.399  15.924  0.00  0.00    +0.000 C 
ENDBRANCH  16  17
ENDBRANCH   9  11
ENDBRANCH   1   8
BRANCH   5  23
ATOM     23  S   UNL     1       0.302  11.182  21.173  0.00  0.00    +0.000 S 
ATOM     24  O   UNL     1      -0.989  11.570  20.653  0.00  0.00    +0.000 OA
ATOM     25  O   UNL     1       0.444  10.499  22.439  0.00  0.00    +0.000 OA
BRANCH  23  26
ATOM     26  N   UNL     1       1.308  12.533  21.231  0.00  0.00    +0.000 NA
ATOM     27  H   UNL     1       2.250  12.344  20.893  0.00  0.00    +0.000 HD
BRANCH  26  28
ATOM     28  C   UNL     1       0.743  13.777  20.688  0.00  0.00    +0.000 C 
BRANCH  28  29
ATOM     29  C   UNL     1       1.678  14.433  19.700  0.00  0.00    +0.000 A 
ATOM     30  C   UNL     1       2.831  13.767  19.261  0.00  0.00    +0.000 A 
ATOM     31  C   UNL     1       3.670  14.353  18.310  0.00  0.00    +0.000 A 
ATOM     32  C   UNL     1       3.365  15.611  17.790  0.00  0.00    +0.000 A 
ATOM     33  C   UNL     1       2.226  16.285  18.223  0.00  0.00    +0.000 A 
ATOM     34  C   UNL     1       1.386  15.701  19.174  0.00  0.00    +0.000 A 
ENDBRANCH  28  29
ENDBRANCH  26  28
ENDBRANCH  23  26
ENDBRANCH   5  23
TORSDOF 7
ENDMDL
MODEL 9
REMARK VINA RESULT:      -8.2      1.251      1.728
REMARK  Name = 
REMARK  7 active torsions:
REMARK  status: ('A' for Active; 'I' for Inactive)
REMARK    1  A    between atoms: C_2  and  C_16
REMARK    2  A    between atoms: N_3  and  C_4
REMARK    3  A    between atoms: C_9  and  N_10
REMARK    4  A    between atoms: C_20  and  S_21
REMARK    5  A    between atoms: S_21  and  N_24
REMARK    6  A    between atoms: N_24  and  C_25
REMARK    7  A    between atoms: C_25  and  C_26
REMARK                            x       y       z     vdW  Elec       q    Type
REMARK                         _______ _______ _______ _____ _____    ______ ____
ROOT
ATOM      1  C   UNL     1       1.636   8.722  19.401  0.00  0.00    +0.000 A 
ATOM      2  C   UNL     1       1.514   8.074  20.644  0.00  0.00    +0.000 A 
ATOM      3  C   UNL     1       0.829   8.679  21.694  0.00  0.00    +0.000 A 
ATOM      4  C   UNL     1       0.251   9.939  21.517  0.00  0.00    +0.000 A 
ATOM      5  C   UNL     1       0.338  10.566  20.275  0.00  0.00    +0.000 A 
ATOM      6  C   UNL     1       1.027   9.964  19.213  0.00  0.00    +0.000 A 
ENDROOT
BRANCH   1   8
ATOM      7  O   UNL     1       2.342   8.507  17.206  0.00  0.00    +0.000 OA
ATOM      8  C   UNL     1       2.366   8.005  18.322  0.00  0.00    +0.000 C 
ATOM      9  N   UNL     1       3.027   6.848  18.690  0.00  0.00    +0.000 N 
ATOM     10  H   UNL     1       3.026   6.541  19.654  0.00  0.00    +0.000 HD
BRANCH   9  11
ATOM     11  C   UNL     1       3.821   6.035  17.843  0.00  0.00    +0.000 A 
ATOM     12  C   UNL     1       4.579   6.603  16.807  0.00  0.00    +0.000 A 
ATOM     13  C   UNL     1       5.298   5.802  15.926  0.00  0.00    +0.000 A 
ATOM     14  C   UNL     1       5.287   4.424  16.089  0.00  0.00    +0.000 A 
ATOM     15  C   UNL     1       4.531   3.846  17.115  0.00  0.00    +0.000 A 
ATOM     16  C   UNL     1       3.765   4.623  18.004  0.00  0.00    +0.000 A 
BRANCH  16  17
ATOM     17  N   UNL     1       2.938   4.032  18.957  0.00  0.00    +0.000 N 
ATOM     18  C   UNL     1       1.525   3.740  18.643  0.00  0.00    +0.000 C 
ATOM     19  C   UNL     1       0.730   3.818  19.959  0.00  0.00    +0.000 C 
ATOM     20  O   UNL     1       1.245   2.898  20.939  0.00  0.00    +0.000 OA
ATOM     21  C   UNL     1       2.638   3.153  21.199  0.00  0.00    +0.000 C 
ATOM     22  C   UNL     1       3.477   3.037  19.908  0.00  0.00    +0.000 C 
ENDBRANCH  16  17
ENDBRANCH   9  11
ENDBRANCH   1   8
BRANCH   5  23
ATOM     23  S   UNL     1      -0.298  12.219  20.069  0.00  0.00    +0.000 S 
ATOM     24  O   UNL     1       0.091  12.990  21.228  0.00  0.00    +0.000 OA
ATOM     25  O   UNL     1       0.056  12.623  18.727  0.00  0.00    +0.000 OA
BRANCH  23  26
ATOM     26  N   UNL     1      -1.968  11.993  20.087  0.00  0.00    +0.000 NA
ATOM     27  H   UNL     1      -2.461  12.697  20.633  0.00  0.00    +0.000 HD
BRANCH  26  28
ATOM     28  C   UNL     1      -2.594  11.738  18.782  0.00  0.00    +0.000 C 
BRANCH  28  29
ATOM     29  C   UNL     1      -4.101  11.802  18.861  0.00  0.00    +0.000 A 
ATOM     30  C   UNL     1      -4.892  11.110  17.934  0.00  0.00    +0.000 A 
ATOM     31  C   UNL     1      -6.285  11.130  18.035  0.00  0.00    +0.000 A 
ATOM     32  C   UNL     1      -6.901  11.842  19.064  0.00  0.00    +0.000 A 
ATOM     33  C   UNL     1      -6.126  12.539  19.988  0.00  0.00    +0.000 A 
ATOM     34  C   UNL     1      -4.733  12.521  19.887  0.00  0.00    +0.000 A 
ENDBRANCH  28  29
ENDBRANCH  26  28
ENDBRANCH  23  26
ENDBRANCH   5  23
TORSDOF 7
ENDMDL
