MODEL 1
REMARK VINA RESULT:      -8.2      0.000      0.000
REMARK  Name = 
REMARK  4 active torsions:
REMARK  status: ('A' for Active; 'I' for Inactive)
REMARK    1  A    between atoms: C_1  and  C_2
REMARK    2  A    between atoms: C_5  and  C_6
REMARK    3  A    between atoms: C_17  and  C_18
REMARK    4  A    between atoms: N_20  and  C_21
REMARK                            x       y       z     vdW  Elec       q    Type
REMARK                         _______ _______ _______ _____ _____    ______ ____
ROOT
ATOM      1  C   UNL     1       2.853   7.603  18.087  0.00  0.00    +0.000 C 
ATOM      2  O   UNL     1       3.719   8.298  17.559  0.00  0.00    +0.000 OA
ATOM      3  N   UNL     1       2.972   6.205  18.237  0.00  0.00    +0.000 N 
ATOM      4  C   UNL     1       1.890   5.440  18.872  0.00  0.00    +0.000 C 
ATOM      5  C   UNL     1       2.274   4.345  19.813  0.00  0.00    +0.000 A 
ATOM      6  C   UNL     1       1.430   4.023  20.883  0.00  0.00    +0.000 A 
ATOM      7  C   UNL     1       1.735   2.965  21.730  0.00  0.00    +0.000 A 
ATOM      8  C   UNL     1       2.879   2.208  21.488  0.00  0.00    +0.000 A 
ATOM      9  C   UNL     1       3.722   2.522  20.417  0.00  0.00    +0.000 A 
ATOM     10  C   UNL     1       3.429   3.608  19.586  0.00  0.00    +0.000 A 
ATOM     11  C   UNL     1       4.273   4.008  18.409  0.00  0.00    +0.000 C 
ATOM     12  C   UNL     1       4.340   5.560  18.234  0.00  0.00    +0.000 C 
ENDROOT
BRANCH   1  17
ATOM     13  C   UNL     1      -0.604  11.466  20.390  0.00  0.00    +0.000 C 
ATOM     14  C   UNL     1       0.112  10.301  19.776  0.00  0.00    +0.000 A 
ATOM     15  C   UNL     1       0.148  10.144  18.397  0.00  0.00    +0.000 A 
ATOM     16  C   UNL     1       0.981   9.171  17.860  0.00  0.00    +0.000 A 
ATOM     17  C   UNL     1       1.747   8.371  18.711  0.00  0.00    +0.000 A 
ATOM     18  C   UNL     1       1.494   8.463  20.070  0.00  0.00    +0.000 A 
ATOM     19  N   UNL     1       0.728   9.438  20.622  0.00  0.00    +0.000 NA
ENDBRANCH   1  17
BRANCH  12  20
ATOM     20  C   UNL     1       5.358   5.808  17.065  0.00  0.00    +0.000 C 
ATOM     21  O   UNL     1       6.162   6.742  17.070  0.00  0.00    +0.000 OA
ATOM     22  N   UNL     1       5.155   5.036  15.940  0.00  0.00    +0.000 N 
ATOM     23  H   UNL     1       4.692   4.137  16.086  0.00  0.00    +0.000 HD
BRANCH  22  24
ATOM     24  C   UNL     1       5.839   5.225  14.706  0.00  0.00    +0.000 C 
ATOM     25  C   UNL     1       5.954   4.082  13.734  0.00  0.00    +0.000 C 
ATOM     26  C   UNL     1       7.171   4.559  14.469  0.00  0.00    +0.000 C 
ENDBRANCH  22  24
ENDBRANCH  12  20
TORSDOF 3
ENDMDL
MODEL 2
REMARK VINA RESULT:      -8.0      0.921      1.051
REMARK  Name = 
REMARK  4 active torsions:
REMARK  status: ('A' for Active; 'I' for Inactive)
REMARK    1  A    between atoms: C_1  and  C_2
REMARK    2  A    between atoms: C_5  and  C_6
REMARK    3  A    between atoms: C_17  and  C_18
REMARK    4  A    between atoms: N_20  and  C_21
REMARK                            x       y       z     vdW  Elec       q    Type
REMARK                         _______ _______ _______ _____ _____    ______ ____
ROOT
ATOM      1  C   UNL     1       3.577   6.939  18.036  0.00  0.00    +0.000 C 
ATOM      2  O   UNL     1       4.600   7.471  17.608  0.00  0.00    +0.000 OA
ATOM      3  N   UNL     1       3.483   5.558  18.310  0.00  0.00    +0.000 N 
ATOM      4  C   UNL     1       2.223   4.994  18.813  0.00  0.00    +0.000 C 
ATOM      5  C   UNL     1       2.307   3.956  19.885  0.00  0.00    +0.000 A 
ATOM      6  C   UNL     1       1.272   3.842  20.822  0.00  0.00    +0.000 A 
ATOM      7  C   UNL     1       1.298   2.842  21.785  0.00  0.00    +0.000 A 
ATOM      8  C   UNL     1       2.353   1.933  21.794  0.00  0.00    +0.000 A 
ATOM      9  C   UNL     1       3.386   2.039  20.856  0.00  0.00    +0.000 A 
ATOM     10  C   UNL     1       3.373   3.067  19.908  0.00  0.00    +0.000 A 
ATOM     11  C   UNL     1       4.434   3.247  18.861  0.00  0.00    +0.000 C 
ATOM     12  C   UNL     1       4.736   4.756  18.582  0.00  0.00    +0.000 C 
ENDROOT
BRANCH   1  17
ATOM     13  C   UNL     1       0.385  11.326  19.692  0.00  0.00    +0.000 C 
ATOM     14  C   UNL     1       1.018  10.068  19.180  0.00  0.00    +0.000 A 
ATOM     15  C   UNL     1       1.424   9.973  17.855  0.00  0.00    +0.000 A 
ATOM     16  C   UNL     1       2.181   8.873  17.469  0.00  0.00    +0.000 A 
ATOM     17  C   UNL     1       2.502   7.892  18.409  0.00  0.00    +0.000 A 
ATOM     18  C   UNL     1       1.885   7.970  19.647  0.00  0.00    +0.000 A 
ATOM     19  N   UNL     1       1.188   9.055  20.067  0.00  0.00    +0.000 NA
ENDBRANCH   1  17
BRANCH  12  20
ATOM     20  C   UNL     1       5.946   4.765  17.582  0.00  0.00    +0.000 C 
ATOM     21  O   UNL     1       6.909   5.524  17.711  0.00  0.00    +0.000 OA
ATOM     22  N   UNL     1       5.765   4.016  16.438  0.00  0.00    +0.000 N 
ATOM     23  H   UNL     1       5.117   3.230  16.510  0.00  0.00    +0.000 HD
BRANCH  22  24
ATOM     24  C   UNL     1       6.650   4.032  15.323  0.00  0.00    +0.000 C 
ATOM     25  C   UNL     1       6.576   5.159  14.329  0.00  0.00    +0.000 C 
ATOM     26  C   UNL     1       6.120   3.786  13.933  0.00  0.00    +0.000 C 
ENDBRANCH  22  24
ENDBRANCH  12  20
TORSDOF 3
ENDMDL
MODEL 3
REMARK VINA RESULT:      -7.6      1.103      1.479
REMARK  Name = 
REMARK  4 active torsions:
REMARK  status: ('A' for Active; 'I' for Inactive)
REMARK    1  A    between atoms: C_1  and  C_2
REMARK    2  A    between atoms: C_5  and  C_6
REMARK    3  A    between atoms: C_17  and  C_18
REMARK    4  A    between atoms: N_20  and  C_21
REMARK                            x       y       z     vdW  Elec       q    Type
REMARK                         _______ _______ _______ _____ _____    ______ ____
ROOT
ATOM      1  C   UNL     1       3.723   6.950  17.857  0.00  0.00    +0.000 C 
ATOM      2  O   UNL     1       4.774   7.382  17.386  0.00  0.00    +0.000 OA
ATOM      3  N   UNL     1       3.504   5.583  18.129  0.00  0.00    +0.000 N 
ATOM      4  C   UNL     1       2.218   5.142  18.686  0.00  0.00    +0.000 C 
ATOM      5  C   UNL     1       2.245   4.093  19.749  0.00  0.00    +0.000 A 
ATOM      6  C   UNL     1       1.247   4.074  20.730  0.00  0.00    +0.000 A 
ATOM      7  C   UNL     1       1.216   3.068  21.687  0.00  0.00    +0.000 A 
ATOM      8  C   UNL     1       2.174   2.059  21.646  0.00  0.00    +0.000 A 
ATOM      9  C   UNL     1       3.170   2.070  20.663  0.00  0.00    +0.000 A 
ATOM     10  C   UNL     1       3.219   3.102  19.721  0.00  0.00    +0.000 A 
ATOM     11  C   UNL     1       4.245   3.185  18.628  0.00  0.00    +0.000 C 
ATOM     12  C   UNL     1       4.682   4.658  18.342  0.00  0.00    +0.000 C 
ENDROOT
BRANCH   1  17
ATOM     13  C   UNL     1      -0.759  10.096  19.337  0.00  0.00    +0.000 C 
ATOM     14  C   UNL     1       0.559   9.452  19.028  0.00  0.00    +0.000 A 
ATOM     15  C   UNL     1       1.211   8.689  19.988  0.00  0.00    +0.000 A 
ATOM     16  C   UNL     1       2.325   7.950  19.605  0.00  0.00    +0.000 A 
ATOM     17  C   UNL     1       2.765   8.001  18.281  0.00  0.00    +0.000 A 
ATOM     18  C   UNL     1       2.178   8.942  17.451  0.00  0.00    +0.000 A 
ATOM     19  N   UNL     1       1.059   9.635  17.781  0.00  0.00    +0.000 NA
ENDBRANCH   1  17
BRANCH  12  20
ATOM     20  C   UNL     1       5.843   4.556  17.290  0.00  0.00    +0.000 C 
ATOM     21  O   UNL     1       6.909   5.162  17.414  0.00  0.00    +0.000 OA
ATOM     22  N   UNL     1       5.512   3.910  16.116  0.00  0.00    +0.000 N 
ATOM     23  H   UNL     1       4.761   3.221  16.176  0.00  0.00    +0.000 HD
BRANCH  22  24
ATOM     24  C   UNL     1       6.347   3.868  14.964  0.00  0.00    +0.000 C 
ATOM     25  C   UNL     1       6.443   5.073  14.068  0.00  0.00    +0.000 C 
ATOM     26  C   UNL     1       5.734   3.841  13.586  0.00  0.00    +0.000 C 
ENDBRANCH  22  24
ENDBRANCH  12  20
TORSDOF 3
ENDMDL
MODEL 4
REMARK VINA RESULT:      -7.4      3.667      6.856
REMARK  Name = 
REMARK  4 active torsions:
REMARK  status: ('A' for Active; 'I' for Inactive)
REMARK    1  A    between atoms: C_1  and  C_2
REMARK    2  A    between atoms: C_5  and  C_6
REMARK    3  A    between atoms: C_17  and  C_18
REMARK    4  A    between atoms: N_20  and  C_21
REMARK                            x       y       z     vdW  Elec       q    Type
REMARK                         _______ _______ _______ _____ _____    ______ ____
ROOT
ATOM      1  C   UNL     1       6.960   5.267  15.327  0.00  0.00    +0.000 C 
ATOM      2  O   UNL     1       7.817   6.139  15.192  0.00  0.00    +0.000 OA
ATOM      3  N   UNL     1       6.317   5.001  16.555  0.00  0.00    +0.000 N 
ATOM      4  C   UNL     1       5.308   3.937  16.639  0.00  0.00    +0.000 C 
ATOM      5  C   UNL     1       4.086   4.203  17.456  0.00  0.00    +0.000 A 
ATOM      6  C   UNL     1       2.872   3.599  17.107  0.00  0.00    +0.000 A 
ATOM      7  C   UNL     1       1.741   3.780  17.892  0.00  0.00    +0.000 A 
ATOM      8  C   UNL     1       1.832   4.548  19.049  0.00  0.00    +0.000 A 
ATOM      9  C   UNL     1       3.044   5.148  19.407  0.00  0.00    +0.000 A 
ATOM     10  C   UNL     1       4.173   4.991  18.597  0.00  0.00    +0.000 A 
ATOM     11  C   UNL     1       5.514   5.591  18.911  0.00  0.00    +0.000 C 
ATOM     12  C   UNL     1       6.261   6.069  17.624  0.00  0.00    +0.000 C 
ENDROOT
BRANCH   1  17
ATOM     13  C   UNL     1       5.410   1.820  11.097  0.00  0.00    +0.000 C 
ATOM     14  C   UNL     1       5.744   2.912  12.069  0.00  0.00    +0.000 A 
ATOM     15  C   UNL     1       4.791   3.367  12.970  0.00  0.00    +0.000 A 
ATOM     16  C   UNL     1       5.191   4.234  13.980  0.00  0.00    +0.000 A 
ATOM     17  C   UNL     1       6.527   4.634  14.057  0.00  0.00    +0.000 A 
ATOM     18  C   UNL     1       7.355   4.292  13.001  0.00  0.00    +0.000 A 
ATOM     19  N   UNL     1       7.006   3.406  12.034  0.00  0.00    +0.000 NA
ENDBRANCH   1  17
BRANCH  12  20
ATOM     20  C   UNL     1       7.560   6.787  18.133  0.00  0.00    +0.000 C 
ATOM     21  O   UNL     1       8.210   6.380  19.098  0.00  0.00    +0.000 OA
ATOM     22  N   UNL     1       7.810   8.017  17.561  0.00  0.00    +0.000 N 
ATOM     23  H   UNL     1       7.430   8.166  16.624  0.00  0.00    +0.000 HD
BRANCH  22  24
ATOM     24  C   UNL     1       8.823   8.915  18.005  0.00  0.00    +0.000 C 
ATOM     25  C   UNL     1       8.614   9.707  19.267  0.00  0.00    +0.000 C 
ATOM     26  C   UNL     1       8.594  10.404  17.939  0.00  0.00    +0.000 C 
ENDBRANCH  22  24
ENDBRANCH  12  20
TORSDOF 3
ENDMDL
MODEL 5
REMARK VINA RESULT:      -7.4      3.452      7.679
REMARK  Name = 
REMARK  4 active torsions:
REMARK  status: ('A' for Active; 'I' for Inactive)
REMARK    1  A    between atoms: C_1  and  C_2
REMARK    2  A    between atoms: C_5  and  C_6
REMARK    3  A    between atoms: C_17  and  C_18
REMARK    4  A    between atoms: N_20  and  C_21
REMARK                            x       y       z     vdW  Elec       q    Type
REMARK                         _______ _______ _______ _____ _____    ______ ____
ROOT
ATOM      1  C   UNL     1      -0.183  11.415  21.464  0.00  0.00    +0.000 C 
ATOM      2  O   UNL     1       0.709  10.701  21.920  0.00  0.00    +0.000 OA
ATOM      3  N   UNL     1      -0.612  11.350  20.121  0.00  0.00    +0.000 N 
ATOM      4  C   UNL     1      -1.679  12.242  19.647  0.00  0.00    +0.000 C 
ATOM      5  C   UNL     1      -2.703  11.668  18.723  0.00  0.00    +0.000 A 
ATOM      6  C   UNL     1      -4.008  12.174  18.735  0.00  0.00    +0.000 A 
ATOM      7  C   UNL     1      -4.957  11.702  17.838  0.00  0.00    +0.000 A 
ATOM      8  C   UNL     1      -4.590  10.735  16.905  0.00  0.00    +0.000 A 
ATOM      9  C   UNL     1      -3.285  10.231  16.885  0.00  0.00    +0.000 A 
ATOM     10  C   UNL     1      -2.341  10.685  17.811  0.00  0.00    +0.000 A 
ATOM     11  C   UNL     1      -0.918  10.206  17.853  0.00  0.00    +0.000 C 
ATOM     12  C   UNL     1      -0.379  10.091  19.316  0.00  0.00    +0.000 C 
ENDROOT
BRANCH   1  17
ATOM     13  C   UNL     1      -3.664  14.760  24.442  0.00  0.00    +0.000 C 
ATOM     14  C   UNL     1      -2.643  13.823  23.871  0.00  0.00    +0.000 A 
ATOM     15  C   UNL     1      -2.917  12.465  23.764  0.00  0.00    +0.000 A 
ATOM     16  C   UNL     1      -2.033  11.663  23.054  0.00  0.00    +0.000 A 
ATOM     17  C   UNL     1      -0.894  12.231  22.480  0.00  0.00    +0.000 A 
ATOM     18  C   UNL     1      -0.602  13.544  22.810  0.00  0.00    +0.000 A 
ATOM     19  N   UNL     1      -1.472  14.363  23.454  0.00  0.00    +0.000 NA
ENDBRANCH   1  17
BRANCH  12  20
ATOM     20  C   UNL     1       1.050   9.453  19.189  0.00  0.00    +0.000 C 
ATOM     21  O   UNL     1       1.883   9.845  18.371  0.00  0.00    +0.000 OA
ATOM     22  N   UNL     1       1.236   8.292  19.910  0.00  0.00    +0.000 N 
ATOM     23  H   UNL     1       0.654   8.176  20.741  0.00  0.00    +0.000 HD
BRANCH  22  24
ATOM     24  C   UNL     1       2.383   7.455  19.795  0.00  0.00    +0.000 C 
ATOM     25  C   UNL     1       2.496   6.502  18.636  0.00  0.00    +0.000 C 
ATOM     26  C   UNL     1       2.259   5.968  20.018  0.00  0.00    +0.000 C 
ENDBRANCH  22  24
ENDBRANCH  12  20
TORSDOF 3
ENDMDL
MODEL 6
REMARK VINA RESULT:      -7.3      1.984      5.220
REMARK  Name = 
REMARK  4 active torsions:
REMARK  status: ('A' for Active; 'I' for Inactive)
REMARK    1  A    between atoms: C_1  and  C_2
REMARK    2  A    between atoms: C_5  and  C_6
REMARK    3  A    between atoms: C_17  and  C_18
REMARK    4  A    between atoms: N_20  and  C_21
REMARK                            x       y       z     vdW  Elec       q    Type
REMARK                         _______ _______ _______ _____ _____    ______ ____
ROOT
ATOM      1  C   UNL     1       4.201   3.668  18.400  0.00  0.00    +0.000 C 
ATOM      2  O   UNL     1       4.686   2.900  17.571  0.00  0.00    +0.000 OA
ATOM      3  N   UNL     1       4.273   5.073  18.285  0.00  0.00    +0.000 N 
ATOM      4  C   UNL     1       3.676   5.926  19.321  0.00  0.00    +0.000 C 
ATOM      5  C   UNL     1       2.945   7.150  18.876  0.00  0.00    +0.000 A 
ATOM      6  C   UNL     1       1.872   7.632  19.635  0.00  0.00    +0.000 A 
ATOM      7  C   UNL     1       1.222   8.806  19.275  0.00  0.00    +0.000 A 
ATOM      8  C   UNL     1       1.667   9.516  18.163  0.00  0.00    +0.000 A 
ATOM      9  C   UNL     1       2.744   9.042  17.405  0.00  0.00    +0.000 A 
ATOM     10  C   UNL     1       3.374   7.843  17.751  0.00  0.00    +0.000 A 
ATOM     11  C   UNL     1       4.541   7.269  17.000  0.00  0.00    +0.000 C 
ATOM     12  C   UNL     1       4.485   5.708  16.929  0.00  0.00    +0.000 C 
ENDROOT
BRANCH   1  17
ATOM     13  C   UNL     1       0.827   2.259  22.737  0.00  0.00    +0.000 C 
ATOM     14  C   UNL     1       1.704   2.396  21.529  0.00  0.00    +0.000 A 
ATOM     15  C   UNL     1       1.150   2.661  20.284  0.00  0.00    +0.000 A 
ATOM     16  C   UNL     1       2.000   2.975  19.231  0.00  0.00    +0.000 A 
ATOM     17  C   UNL     1       3.380   3.004  19.443  0.00  0.00    +0.000 A 
ATOM     18  C   UNL     1       3.847   2.530  20.658  0.00  0.00    +0.000 A 
ATOM     19  N   UNL     1       3.041   2.270  21.718  0.00  0.00    +0.000 NA
ENDBRANCH   1  17
BRANCH  12  20
ATOM     20  C   UNL     1       5.681   5.286  16.005  0.00  0.00    +0.000 C 
ATOM     21  O   UNL     1       6.702   5.965  15.885  0.00  0.00    +0.000 OA
ATOM     22  N   UNL     1       5.428   4.211  15.178  0.00  0.00    +0.000 N 
ATOM     23  H   UNL     1       4.720   3.548  15.500  0.00  0.00    +0.000 HD
BRANCH  22  24
ATOM     24  C   UNL     1       6.299   3.781  14.136  0.00  0.00    +0.000 C 
ATOM     25  C   UNL     1       6.628   4.717  13.006  0.00  0.00    +0.000 C 
ATOM     26  C   UNL     1       5.755   3.523  12.754  0.00  0.00    +0.000 C 
ENDBRANCH  22  24
ENDBRANCH  12  20
TORSDOF 3
ENDMDL
MODEL 7
REMARK VINA RESULT:      -7.3      3.810      9.443
REMARK  Name = 
REMARK  4 active torsions:
REMARK  status: ('A' for Active; 'I' for Inactive)
REMARK    1  A    between atoms: C_1  and  C_2
REMARK    2  A    between atoms: C_5  and  C_6
REMARK    3  A    between atoms: C_17  and  C_18
REMARK    4  A    between atoms: N_20  and  C_21
REMARK                            x       y       z     vdW  Elec       q    Type
REMARK                         _______ _______ _______ _____ _____    ______ ____
ROOT
ATOM      1  C   UNL     1       0.100  10.661  20.156  0.00  0.00    +0.000 C 
ATOM      2  O   UNL     1       0.533  11.498  20.945  0.00  0.00    +0.000 OA
ATOM      3  N   UNL     1      -1.181  10.744  19.569  0.00  0.00    +0.000 N 
ATOM      4  C   UNL     1      -1.632   9.700  18.640  0.00  0.00    +0.000 C 
ATOM      5  C   UNL     1      -2.390  10.132  17.427  0.00  0.00    +0.000 A 
ATOM      6  C   UNL     1      -2.299   9.381  16.248  0.00  0.00    +0.000 A 
ATOM      7  C   UNL     1      -3.048   9.726  15.131  0.00  0.00    +0.000 A 
ATOM      8  C   UNL     1      -3.913  10.815  15.201  0.00  0.00    +0.000 A 
ATOM      9  C   UNL     1      -4.013  11.564  16.379  0.00  0.00    +0.000 A 
ATOM     10  C   UNL     1      -3.234  11.234  17.491  0.00  0.00    +0.000 A 
ATOM     11  C   UNL     1      -3.286  11.977  18.796  0.00  0.00    +0.000 C 
ATOM     12  C   UNL     1      -1.879  12.082  19.470  0.00  0.00    +0.000 C 
ENDROOT
BRANCH   1  17
ATOM     13  C   UNL     1       2.964   6.272  17.985  0.00  0.00    +0.000 C 
ATOM     14  C   UNL     1       2.427   7.522  18.614  0.00  0.00    +0.000 A 
ATOM     15  C   UNL     1       2.249   8.672  17.855  0.00  0.00    +0.000 A 
ATOM     16  C   UNL     1       1.570   9.743  18.421  0.00  0.00    +0.000 A 
ATOM     17  C   UNL     1       1.096   9.646  19.731  0.00  0.00    +0.000 A 
ATOM     18  C   UNL     1       1.496   8.547  20.473  0.00  0.00    +0.000 A 
ATOM     19  N   UNL     1       2.112   7.465  19.932  0.00  0.00    +0.000 NA
ENDBRANCH   1  17
BRANCH  12  20
ATOM     20  C   UNL     1      -2.084  12.995  20.730  0.00  0.00    +0.000 C 
ATOM     21  O   UNL     1      -1.607  14.127  20.816  0.00  0.00    +0.000 OA
ATOM     22  N   UNL     1      -2.657  12.368  21.818  0.00  0.00    +0.000 N 
ATOM     23  H   UNL     1      -3.258  11.568  21.614  0.00  0.00    +0.000 HD
BRANCH  22  24
ATOM     24  C   UNL     1      -2.763  12.951  23.113  0.00  0.00    +0.000 C 
ATOM     25  C   UNL     1      -3.724  12.372  24.114  0.00  0.00    +0.000 C 
ATOM     26  C   UNL     1      -4.006  13.712  23.500  0.00  0.00    +0.000 C 
ENDBRANCH  22  24
ENDBRANCH  12  20
TORSDOF 3
ENDMDL
MODEL 8
REMARK VINA RESULT:      -7.2      4.098      6.966
REMARK  Name = 
REMARK  4 active torsions:
REMARK  status: ('A' for Active; 'I' for Inactive)
REMARK    1  A    between atoms: C_1  and  C_2
REMARK    2  A    between atoms: C_5  and  C_6
REMARK    3  A    between atoms: C_17  and  C_18
REMARK    4  A    between atoms: N_20  and  C_21
REMARK                            x       y       z     vdW  Elec       q    Type
REMARK                         _______ _______ _______ _____ _____    ______ ____
ROOT
ATOM      1  C   UNL     1       6.052   5.807  17.684  0.00  0.00    +0.000 C 
ATOM      2  O   UNL     1       5.126   5.880  18.490  0.00  0.00    +0.000 OA
ATOM      3  N   UNL     1       6.100   4.848  16.650  0.00  0.00    +0.000 N 
ATOM      4  C   UNL     1       7.245   4.818  15.730  0.00  0.00    +0.000 C 
ATOM      5  C   UNL     1       6.965   4.572  14.283  0.00  0.00    +0.000 A 
ATOM      6  C   UNL     1       7.803   5.130  13.310  0.00  0.00    +0.000 A 
ATOM      7  C   UNL     1       7.601   4.859  11.963  0.00  0.00    +0.000 A 
ATOM      8  C   UNL     1       6.568   4.003  11.589  0.00  0.00    +0.000 A 
ATOM      9  C   UNL     1       5.732   3.438  12.558  0.00  0.00    +0.000 A 
ATOM     10  C   UNL     1       5.918   3.739  13.910  0.00  0.00    +0.000 A 
ATOM     11  C   UNL     1       5.074   3.168  15.014  0.00  0.00    +0.000 C 
ATOM     12  C   UNL     1       4.823   4.205  16.158  0.00  0.00    +0.000 C 
ENDROOT
BRANCH   1  17
ATOM     13  C   UNL     1       9.139  10.384  18.986  0.00  0.00    +0.000 C 
ATOM     14  C   UNL     1       8.505   9.120  18.488  0.00  0.00    +0.000 A 
ATOM     15  C   UNL     1       8.785   7.905  19.099  0.00  0.00    +0.000 A 
ATOM     16  C   UNL     1       8.033   6.792  18.740  0.00  0.00    +0.000 A 
ATOM     17  C   UNL     1       7.032   6.918  17.775  0.00  0.00    +0.000 A 
ATOM     18  C   UNL     1       6.963   8.114  17.080  0.00  0.00    +0.000 A 
ATOM     19  N   UNL     1       7.646   9.229  17.444  0.00  0.00    +0.000 NA
ENDBRANCH   1  17
BRANCH  12  20
ATOM     20  C   UNL     1       3.824   3.506  17.147  0.00  0.00    +0.000 C 
ATOM     21  O   UNL     1       2.619   3.764  17.168  0.00  0.00    +0.000 OA
ATOM     22  N   UNL     1       4.415   2.739  18.128  0.00  0.00    +0.000 N 
ATOM     23  H   UNL     1       5.334   2.349  17.907  0.00  0.00    +0.000 HD
BRANCH  22  24
ATOM     24  C   UNL     1       3.715   2.172  19.231  0.00  0.00    +0.000 C 
ATOM     25  C   UNL     1       3.277   3.054  20.369  0.00  0.00    +0.000 C 
ATOM     26  C   UNL     1       4.385   2.065  20.578  0.00  0.00    +0.000 C 
ENDBRANCH  22  24
ENDBRANCH  12  20
TORSDOF 3
ENDMDL
MODEL 9
REMARK VINA RESULT:      -7.2      1.882      2.432
REMARK  Name = 
REMARK  4 active torsions:
REMARK  status: ('A' for Active; 'I' for Inactive)
REMARK    1  A    between atoms: C_1  and  C_2
REMARK    2  A    between atoms: C_5  and  C_6
REMARK    3  A    between atoms: C_17  and  C_18
REMARK    4  A    between atoms: N_20  and  C_21
REMARK                            x       y       z     vdW  Elec       q    Type
REMARK                         _______ _______ _______ _____ _____    ______ ____
ROOT
ATOM      1  C   UNL     1       3.012   7.890  18.072  0.00  0.00    +0.000 C 
ATOM      2  O   UNL     1       3.982   8.646  18.099  0.00  0.00    +0.000 OA
ATOM      3  N   UNL     1       3.094   6.546  17.649  0.00  0.00    +0.000 N 
ATOM      4  C   UNL     1       1.889   5.706  17.637  0.00  0.00    +0.000 C 
ATOM      5  C   UNL     1       2.026   4.291  18.097  0.00  0.00    +0.000 A 
ATOM      6  C   UNL     1       0.939   3.652  18.707  0.00  0.00    +0.000 A 
ATOM      7  C   UNL     1       1.023   2.318  19.081  0.00  0.00    +0.000 A 
ATOM      8  C   UNL     1       2.193   1.610  18.819  0.00  0.00    +0.000 A 
ATOM      9  C   UNL     1       3.279   2.241  18.204  0.00  0.00    +0.000 A 
ATOM     10  C   UNL     1       3.203   3.594  17.859  0.00  0.00    +0.000 A 
ATOM     11  C   UNL     1       4.317   4.346  17.187  0.00  0.00    +0.000 C 
ATOM     12  C   UNL     1       4.421   5.821  17.695  0.00  0.00    +0.000 C 
ENDROOT
BRANCH   1  17
ATOM     13  C   UNL     1      -1.032  11.036  20.506  0.00  0.00    +0.000 C 
ATOM     14  C   UNL     1      -0.141  10.042  19.824  0.00  0.00    +0.000 A 
ATOM     15  C   UNL     1       0.013  10.067  18.444  0.00  0.00    +0.000 A 
ATOM     16  C   UNL     1       0.992   9.264  17.870  0.00  0.00    +0.000 A 
ATOM     17  C   UNL     1       1.782   8.450  18.684  0.00  0.00    +0.000 A 
ATOM     18  C   UNL     1       1.420   8.340  20.017  0.00  0.00    +0.000 A 
ATOM     19  N   UNL     1       0.508   9.149  20.612  0.00  0.00    +0.000 NA
ENDBRANCH   1  17
BRANCH  12  20
ATOM     20  C   UNL     1       5.702   6.413  17.008  0.00  0.00    +0.000 C 
ATOM     21  O   UNL     1       6.137   5.991  15.936  0.00  0.00    +0.000 OA
ATOM     22  N   UNL     1       6.425   7.296  17.784  0.00  0.00    +0.000 N 
ATOM     23  H   UNL     1       5.902   7.801  18.502  0.00  0.00    +0.000 HD
BRANCH  22  24
ATOM     24  C   UNL     1       7.708   7.804  17.432  0.00  0.00    +0.000 C 
ATOM     25  C   UNL     1       8.642   8.280  18.511  0.00  0.00    +0.000 C 
ATOM     26  C   UNL     1       8.006   9.275  17.584  0.00  0.00    +0.000 C 
ENDBRANCH  22  24
ENDBRANCH  12  20
TORSDOF 3
ENDMDL
