MODEL 1
REMARK VINA RESULT:      -9.1      0.000      0.000
REMARK  Name = 
REMARK  4 active torsions:
REMARK  status: ('A' for Active; 'I' for Inactive)
REMARK    1  A    between atoms: C_2  and  C_3
REMARK    2  A    between atoms: C_3  and  C_4
REMARK    3  A    between atoms: C_23  and  O_24
REMARK    4  A    between atoms: C_23  and  C_25
REMARK                            x       y       z     vdW  Elec       q    Type
REMARK                         _______ _______ _______ _____ _____    ______ ____
ROOT
ATOM      1  O   UNL     1       1.493   4.778  19.598  0.00  0.00    +0.000 OA
ATOM      2  C   UNL     1       2.306   5.703  19.495  0.00  0.00    +0.000 C 
ATOM      3  N   UNL     1       3.292   5.696  18.539  0.00  0.00    +0.000 N 
ATOM      4  C   UNL     1       3.366   4.690  17.486  0.00  0.00    +0.000 C 
ATOM      5  C   UNL     1       4.746   4.993  16.872  0.00  0.00    +0.000 C 
ATOM      6  C   UNL     1       4.750   6.528  16.943  0.00  0.00    +0.000 C 
ATOM      7  C   UNL     1       4.488   6.535  18.448  0.00  0.00    +0.000 C 
ATOM      8  C   UNL     1       5.666   5.703  18.995  0.00  0.00    +0.000 C 
ATOM      9  C   UNL     1       5.889   4.636  17.875  0.00  0.00    +0.000 C 
ENDROOT
BRANCH   9  10
ATOM     10  C   UNL     1       7.293   4.759  17.198  0.00  0.00    +0.000 C 
ATOM     11  F   UNL     1       7.281   4.312  15.919  0.00  0.00    +0.000 F 
ATOM     12  F   UNL     1       7.738   6.036  17.158  0.00  0.00    +0.000 F 
ATOM     13  F   UNL     1       8.237   4.039  17.849  0.00  0.00    +0.000 F 
ENDBRANCH   9  10
BRANCH   9  14
ATOM     14  O   UNL     1       5.688   3.309  18.392  0.00  0.00    +0.000 OA
ATOM     15  H   UNL     1       6.224   3.182  19.193  0.00  0.00    +0.000 HD
ENDBRANCH   9  14
BRANCH   2  16
ATOM     16  C   UNL     1       2.211   6.909  20.414  0.00  0.00    +0.000 C 
BRANCH  16  17
ATOM     17  C   UNL     1       1.618   8.135  19.764  0.00  0.00    +0.000 A 
ATOM     18  C   UNL     1       1.818   8.376  18.392  0.00  0.00    +0.000 A 
ATOM     19  C   UNL     1       1.252   9.477  17.747  0.00  0.00    +0.000 A 
ATOM     20  C   UNL     1       0.447  10.374  18.454  0.00  0.00    +0.000 A 
ATOM     21  C   UNL     1       0.205  10.156  19.823  0.00  0.00    +0.000 A 
ATOM     22  C   UNL     1       0.794   9.054  20.443  0.00  0.00    +0.000 A 
ATOM     23  N   UNL     1       0.393   9.079  21.762  0.00  0.00    +0.000 N 
ATOM     24  C   UNL     1      -0.435  10.151  22.008  0.00  0.00    +0.000 A 
ATOM     25  C   UNL     1      -1.061  10.554  23.194  0.00  0.00    +0.000 A 
ATOM     26  C   UNL     1      -1.860  11.701  23.148  0.00  0.00    +0.000 A 
ATOM     27  C   UNL     1      -2.022  12.414  21.962  0.00  0.00    +0.000 A 
ATOM     28  C   UNL     1      -1.385  11.998  20.787  0.00  0.00    +0.000 A 
ATOM     29  C   UNL     1      -0.572  10.845  20.810  0.00  0.00    +0.000 A 
ATOM     30  H   UNL     1       0.684   8.405  22.460  0.00  0.00    +0.000 HD
ENDBRANCH  16  17
ENDBRANCH   2  16
TORSDOF 4
ENDMDL
MODEL 2
REMARK VINA RESULT:      -8.7      2.250      3.177
REMARK  Name = 
REMARK  4 active torsions:
REMARK  status: ('A' for Active; 'I' for Inactive)
REMARK    1  A    between atoms: C_2  and  C_3
REMARK    2  A    between atoms: C_3  and  C_4
REMARK    3  A    between atoms: C_23  and  O_24
REMARK    4  A    between atoms: C_23  and  C_25
REMARK                            x       y       z     vdW  Elec       q    Type
REMARK                         _______ _______ _______ _____ _____    ______ ____
ROOT
ATOM      1  O   UNL     1       2.000   7.029  20.066  0.00  0.00    +0.000 OA
ATOM      2  C   UNL     1       2.478   7.292  18.957  0.00  0.00    +0.000 C 
ATOM      3  N   UNL     1       3.315   6.422  18.305  0.00  0.00    +0.000 N 
ATOM      4  C   UNL     1       3.584   5.072  18.787  0.00  0.00    +0.000 C 
ATOM      5  C   UNL     1       4.736   4.641  17.858  0.00  0.00    +0.000 C 
ATOM      6  C   UNL     1       4.279   5.278  16.537  0.00  0.00    +0.000 C 
ATOM      7  C   UNL     1       4.183   6.672  17.153  0.00  0.00    +0.000 C 
ATOM      8  C   UNL     1       5.608   6.893  17.700  0.00  0.00    +0.000 C 
ATOM      9  C   UNL     1       6.030   5.461  18.164  0.00  0.00    +0.000 C 
ENDROOT
BRANCH   9  10
ATOM     10  C   UNL     1       7.253   4.906  17.363  0.00  0.00    +0.000 C 
ATOM     11  F   UNL     1       6.904   3.878  16.551  0.00  0.00    +0.000 F 
ATOM     12  F   UNL     1       7.824   5.845  16.574  0.00  0.00    +0.000 F 
ATOM     13  F   UNL     1       8.226   4.438  18.179  0.00  0.00    +0.000 F 
ENDBRANCH   9  10
BRANCH   9  14
ATOM     14  O   UNL     1       6.296   5.444  19.577  0.00  0.00    +0.000 OA
ATOM     15  H   UNL     1       7.040   6.038  19.779  0.00  0.00    +0.000 HD
ENDBRANCH   9  14
BRANCH   2  16
ATOM     16  C   UNL     1       2.114   8.592  18.258  0.00  0.00    +0.000 C 
BRANCH  16  17
ATOM     17  C   UNL     1       1.072   9.410  18.979  0.00  0.00    +0.000 A 
ATOM     18  C   UNL     1       1.320   9.885  20.280  0.00  0.00    +0.000 A 
ATOM     19  C   UNL     1       0.398  10.680  20.964  0.00  0.00    +0.000 A 
ATOM     20  C   UNL     1      -0.808  11.042  20.359  0.00  0.00    +0.000 A 
ATOM     21  C   UNL     1      -1.085  10.606  19.049  0.00  0.00    +0.000 A 
ATOM     22  C   UNL     1      -0.149   9.803  18.396  0.00  0.00    +0.000 A 
ATOM     23  N   UNL     1      -0.665   9.528  17.147  0.00  0.00    +0.000 N 
ATOM     24  C   UNL     1      -1.891  10.129  16.974  0.00  0.00    +0.000 A 
ATOM     25  C   UNL     1      -2.757  10.111  15.874  0.00  0.00    +0.000 A 
ATOM     26  C   UNL     1      -3.955  10.825  15.980  0.00  0.00    +0.000 A 
ATOM     27  C   UNL     1      -4.271  11.524  17.142  0.00  0.00    +0.000 A 
ATOM     28  C   UNL     1      -3.395  11.528  18.234  0.00  0.00    +0.000 A 
ATOM     29  C   UNL     1      -2.181  10.812  18.151  0.00  0.00    +0.000 A 
ATOM     30  H   UNL     1      -0.206   8.947  16.456  0.00  0.00    +0.000 HD
ENDBRANCH  16  17
ENDBRANCH   2  16
TORSDOF 4
ENDMDL
MODEL 3
REMARK VINA RESULT:      -8.6      2.474      4.163
REMARK  Name = 
REMARK  4 active torsions:
REMARK  status: ('A' for Active; 'I' for Inactive)
REMARK    1  A    between atoms: C_2  and  C_3
REMARK    2  A    between atoms: C_3  and  C_4
REMARK    3  A    between atoms: C_23  and  O_24
REMARK    4  A    between atoms: C_23  and  C_25
REMARK                            x       y       z     vdW  Elec       q    Type
REMARK                         _______ _______ _______ _____ _____    ______ ____
ROOT
ATOM      1  O   UNL     1       4.634   2.108  17.099  0.00  0.00    +0.000 OA
ATOM      2  C   UNL     1       4.221   3.271  17.025  0.00  0.00    +0.000 C 
ATOM      3  N   UNL     1       5.051   4.313  16.695  0.00  0.00    +0.000 N 
ATOM      4  C   UNL     1       6.430   4.119  16.260  0.00  0.00    +0.000 C 
ATOM      5  C   UNL     1       6.957   5.567  16.263  0.00  0.00    +0.000 C 
ATOM      6  C   UNL     1       5.721   6.313  15.737  0.00  0.00    +0.000 C 
ATOM      7  C   UNL     1       4.820   5.752  16.836  0.00  0.00    +0.000 C 
ATOM      8  C   UNL     1       5.543   6.202  18.122  0.00  0.00    +0.000 C 
ATOM      9  C   UNL     1       7.051   6.118  17.722  0.00  0.00    +0.000 C 
ENDROOT
BRANCH   9  10
ATOM     10  C   UNL     1       7.760   7.512  17.754  0.00  0.00    +0.000 C 
ATOM     11  F   UNL     1       8.458   7.753  16.618  0.00  0.00    +0.000 F 
ATOM     12  F   UNL     1       6.885   8.534  17.895  0.00  0.00    +0.000 F 
ATOM     13  F   UNL     1       8.642   7.611  18.777  0.00  0.00    +0.000 F 
ENDBRANCH   9  10
BRANCH   9  14
ATOM     14  O   UNL     1       7.745   5.175  18.556  0.00  0.00    +0.000 OA
ATOM     15  H   UNL     1       7.117   4.516  18.902  0.00  0.00    +0.000 HD
ENDBRANCH   9  14
BRANCH   2  16
ATOM     16  C   UNL     1       2.753   3.577  17.267  0.00  0.00    +0.000 C 
BRANCH  16  17
ATOM     17  C   UNL     1       2.436   4.016  18.675  0.00  0.00    +0.000 A 
ATOM     18  C   UNL     1       2.505   3.095  19.736  0.00  0.00    +0.000 A 
ATOM     19  C   UNL     1       2.260   3.472  21.057  0.00  0.00    +0.000 A 
ATOM     20  C   UNL     1       1.950   4.799  21.367  0.00  0.00    +0.000 A 
ATOM     21  C   UNL     1       1.892   5.756  20.337  0.00  0.00    +0.000 A 
ATOM     22  C   UNL     1       2.131   5.346  19.025  0.00  0.00    +0.000 A 
ATOM     23  N   UNL     1       2.016   6.468  18.232  0.00  0.00    +0.000 N 
ATOM     24  C   UNL     1       1.720   7.580  18.986  0.00  0.00    +0.000 A 
ATOM     25  C   UNL     1       1.518   8.909  18.594  0.00  0.00    +0.000 A 
ATOM     26  C   UNL     1       1.228   9.844  19.593  0.00  0.00    +0.000 A 
ATOM     27  C   UNL     1       1.144   9.460  20.929  0.00  0.00    +0.000 A 
ATOM     28  C   UNL     1       1.346   8.126  21.303  0.00  0.00    +0.000 A 
ATOM     29  C   UNL     1       1.637   7.165  20.311  0.00  0.00    +0.000 A 
ATOM     30  H   UNL     1       2.121   6.468  17.224  0.00  0.00    +0.000 HD
ENDBRANCH  16  17
ENDBRANCH   2  16
TORSDOF 4
ENDMDL
MODEL 4
REMARK VINA RESULT:      -8.6      2.716      3.893
REMARK  Name = 
REMARK  4 active torsions:
REMARK  status: ('A' for Active; 'I' for Inactive)
REMARK    1  A    between atoms: C_2  and  C_3
REMARK    2  A    between atoms: C_3  and  C_4
REMARK    3  A    between atoms: C_23  and  O_24
REMARK    4  A    between atoms: C_23  and  C_25
REMARK                            x       y       z     vdW  Elec       q    Type
REMARK                         _______ _______ _______ _____ _____    ______ ____
ROOT
ATOM      1  O   UNL     1       1.716   8.229  21.326  0.00  0.00    +0.000 OA
ATOM      2  C   UNL     1       1.821   8.157  20.097  0.00  0.00    +0.000 C 
ATOM      3  N   UNL     1       2.079   6.968  19.461  0.00  0.00    +0.000 N 
ATOM      4  C   UNL     1       2.096   5.687  20.157  0.00  0.00    +0.000 C 
ATOM      5  C   UNL     1       2.662   4.756  19.068  0.00  0.00    +0.000 C 
ATOM      6  C   UNL     1       1.971   5.334  17.823  0.00  0.00    +0.000 C 
ATOM      7  C   UNL     1       2.512   6.739  18.082  0.00  0.00    +0.000 C 
ATOM      8  C   UNL     1       4.036   6.507  18.119  0.00  0.00    +0.000 C 
ATOM      9  C   UNL     1       4.158   5.093  18.774  0.00  0.00    +0.000 C 
ENDROOT
BRANCH   9  10
ATOM     10  C   UNL     1       4.797   4.039  17.812  0.00  0.00    +0.000 C 
ATOM     11  F   UNL     1       4.534   4.314  16.510  0.00  0.00    +0.000 F 
ATOM     12  F   UNL     1       6.143   3.978  17.930  0.00  0.00    +0.000 F 
ATOM     13  F   UNL     1       4.329   2.789  18.043  0.00  0.00    +0.000 F 
ENDBRANCH   9  10
BRANCH   9  14
ATOM     14  O   UNL     1       4.893   5.167  20.007  0.00  0.00    +0.000 OA
ATOM     15  H   UNL     1       4.290   5.029  20.759  0.00  0.00    +0.000 HD
ENDBRANCH   9  14
BRANCH   2  16
ATOM     16  C   UNL     1       1.628   9.397  19.240  0.00  0.00    +0.000 C 
BRANCH  16  17
ATOM     17  C   UNL     1       0.406  10.208  19.592  0.00  0.00    +0.000 A 
ATOM     18  C   UNL     1       0.346  10.905  20.813  0.00  0.00    +0.000 A 
ATOM     19  C   UNL     1      -0.750  11.698  21.157  0.00  0.00    +0.000 A 
ATOM     20  C   UNL     1      -1.827  11.835  20.277  0.00  0.00    +0.000 A 
ATOM     21  C   UNL     1      -1.796  11.172  19.036  0.00  0.00    +0.000 A 
ATOM     22  C   UNL     1      -0.692  10.377  18.726  0.00  0.00    +0.000 A 
ATOM     23  N   UNL     1      -0.918   9.857  17.469  0.00  0.00    +0.000 N 
ATOM     24  C   UNL     1      -2.120  10.293  16.961  0.00  0.00    +0.000 A 
ATOM     25  C   UNL     1      -2.736  10.014  15.735  0.00  0.00    +0.000 A 
ATOM     26  C   UNL     1      -3.977  10.608  15.482  0.00  0.00    +0.000 A 
ATOM     27  C   UNL     1      -4.574  11.446  16.421  0.00  0.00    +0.000 A 
ATOM     28  C   UNL     1      -3.945  11.711  17.643  0.00  0.00    +0.000 A 
ATOM     29  C   UNL     1      -2.693  11.120  17.921  0.00  0.00    +0.000 A 
ATOM     30  H   UNL     1      -0.287   9.224  16.992  0.00  0.00    +0.000 HD
ENDBRANCH  16  17
ENDBRANCH   2  16
TORSDOF 4
ENDMDL
MODEL 5
REMARK VINA RESULT:      -8.5      4.500      8.749
REMARK  Name = 
REMARK  4 active torsions:
REMARK  status: ('A' for Active; 'I' for Inactive)
REMARK    1  A    between atoms: C_2  and  C_3
REMARK    2  A    between atoms: C_3  and  C_4
REMARK    3  A    between atoms: C_23  and  O_24
REMARK    4  A    between atoms: C_23  and  C_25
REMARK                            x       y       z     vdW  Elec       q    Type
REMARK                         _______ _______ _______ _____ _____    ______ ____
ROOT
ATOM      1  O   UNL     1       2.723   8.429  18.093  0.00  0.00    +0.000 OA
ATOM      2  C   UNL     1       2.067   8.173  19.108  0.00  0.00    +0.000 C 
ATOM      3  N   UNL     1       1.062   8.998  19.548  0.00  0.00    +0.000 N 
ATOM      4  C   UNL     1       0.589  10.145  18.782  0.00  0.00    +0.000 C 
ATOM      5  C   UNL     1      -0.330  10.838  19.806  0.00  0.00    +0.000 C 
ATOM      6  C   UNL     1      -0.968   9.612  20.478  0.00  0.00    +0.000 C 
ATOM      7  C   UNL     1       0.387   9.012  20.846  0.00  0.00    +0.000 C 
ATOM      8  C   UNL     1       1.034  10.138  21.679  0.00  0.00    +0.000 C 
ATOM      9  C   UNL     1       0.505  11.434  20.984  0.00  0.00    +0.000 C 
ENDROOT
BRANCH   9  10
ATOM     10  C   UNL     1      -0.391  12.300  21.930  0.00  0.00    +0.000 C 
ATOM     11  F   UNL     1      -0.705  11.643  23.073  0.00  0.00    +0.000 F 
ATOM     12  F   UNL     1       0.210  13.454  22.299  0.00  0.00    +0.000 F 
ATOM     13  F   UNL     1      -1.565  12.641  21.348  0.00  0.00    +0.000 F 
ENDBRANCH   9  10
BRANCH   9  14
ATOM     14  O   UNL     1       1.596  12.213  20.464  0.00  0.00    +0.000 OA
ATOM     15  H   UNL     1       1.552  12.234  19.492  0.00  0.00    +0.000 HD
ENDBRANCH   9  14
BRANCH   2  16
ATOM     16  C   UNL     1       2.335   6.897  19.889  0.00  0.00    +0.000 C 
BRANCH  16  17
ATOM     17  C   UNL     1       2.450   5.660  19.031  0.00  0.00    +0.000 A 
ATOM     18  C   UNL     1       1.417   4.704  19.028  0.00  0.00    +0.000 A 
ATOM     19  C   UNL     1       1.468   3.568  18.218  0.00  0.00    +0.000 A 
ATOM     20  C   UNL     1       2.554   3.356  17.365  0.00  0.00    +0.000 A 
ATOM     21  C   UNL     1       3.597   4.300  17.323  0.00  0.00    +0.000 A 
ATOM     22  C   UNL     1       3.524   5.419  18.153  0.00  0.00    +0.000 A 
ATOM     23  N   UNL     1       4.656   6.168  17.910  0.00  0.00    +0.000 N 
ATOM     24  C   UNL     1       5.447   5.574  16.953  0.00  0.00    +0.000 A 
ATOM     25  C   UNL     1       6.671   5.986  16.412  0.00  0.00    +0.000 A 
ATOM     26  C   UNL     1       7.256   5.171  15.436  0.00  0.00    +0.000 A 
ATOM     27  C   UNL     1       6.637   3.994  15.023  0.00  0.00    +0.000 A 
ATOM     28  C   UNL     1       5.415   3.596  15.577  0.00  0.00    +0.000 A 
ATOM     29  C   UNL     1       4.808   4.401  16.566  0.00  0.00    +0.000 A 
ATOM     30  H   UNL     1       4.881   7.033  18.387  0.00  0.00    +0.000 HD
ENDBRANCH  16  17
ENDBRANCH   2  16
TORSDOF 4
ENDMDL
MODEL 6
REMARK VINA RESULT:      -8.3      4.740      8.751
REMARK  Name = 
REMARK  4 active torsions:
REMARK  status: ('A' for Active; 'I' for Inactive)
REMARK    1  A    between atoms: C_2  and  C_3
REMARK    2  A    between atoms: C_3  and  C_4
REMARK    3  A    between atoms: C_23  and  O_24
REMARK    4  A    between atoms: C_23  and  C_25
REMARK                            x       y       z     vdW  Elec       q    Type
REMARK                         _______ _______ _______ _____ _____    ______ ____
ROOT
ATOM      1  O   UNL     1       1.361   8.523  17.777  0.00  0.00    +0.000 OA
ATOM      2  C   UNL     1       1.264   8.921  18.943  0.00  0.00    +0.000 C 
ATOM      3  N   UNL     1       0.464   9.985  19.280  0.00  0.00    +0.000 N 
ATOM      4  C   UNL     1      -0.441  10.625  18.332  0.00  0.00    +0.000 C 
ATOM      5  C   UNL     1      -0.887  11.867  19.128  0.00  0.00    +0.000 C 
ATOM      6  C   UNL     1      -0.998  11.267  20.538  0.00  0.00    +0.000 C 
ATOM      7  C   UNL     1       0.443  10.762  20.520  0.00  0.00    +0.000 C 
ATOM      8  C   UNL     1       1.245  12.054  20.259  0.00  0.00    +0.000 C 
ATOM      9  C   UNL     1       0.302  12.863  19.311  0.00  0.00    +0.000 C 
ENDROOT
BRANCH   9  10
ATOM     10  C   UNL     1      -0.180  14.207  19.949  0.00  0.00    +0.000 C 
ATOM     11  F   UNL     1      -1.527  14.343  19.889  0.00  0.00    +0.000 F 
ATOM     12  F   UNL     1       0.162  14.313  21.254  0.00  0.00    +0.000 F 
ATOM     13  F   UNL     1       0.344  15.286  19.321  0.00  0.00    +0.000 F 
ENDBRANCH   9  10
BRANCH   9  14
ATOM     14  O   UNL     1       0.939  13.101  18.044  0.00  0.00    +0.000 OA
ATOM     15  H   UNL     1       0.503  12.575  17.351  0.00  0.00    +0.000 HD
ENDBRANCH   9  14
BRANCH   2  16
ATOM     16  C   UNL     1       2.011   8.209  20.059  0.00  0.00    +0.000 C 
BRANCH  16  17
ATOM     17  C   UNL     1       2.260   6.744  19.798  0.00  0.00    +0.000 A 
ATOM     18  C   UNL     1       1.600   5.766  20.565  0.00  0.00    +0.000 A 
ATOM     19  C   UNL     1       1.773   4.402  20.327  0.00  0.00    +0.000 A 
ATOM     20  C   UNL     1       2.607   3.964  19.295  0.00  0.00    +0.000 A 
ATOM     21  C   UNL     1       3.269   4.911  18.491  0.00  0.00    +0.000 A 
ATOM     22  C   UNL     1       3.085   6.268  18.760  0.00  0.00    +0.000 A 
ATOM     23  N   UNL     1       3.834   6.961  17.834  0.00  0.00    +0.000 N 
ATOM     24  C   UNL     1       4.484   6.101  16.978  0.00  0.00    +0.000 A 
ATOM     25  C   UNL     1       5.340   6.373  15.903  0.00  0.00    +0.000 A 
ATOM     26  C   UNL     1       5.863   5.284  15.198  0.00  0.00    +0.000 A 
ATOM     27  C   UNL     1       5.540   3.978  15.558  0.00  0.00    +0.000 A 
ATOM     28  C   UNL     1       4.686   3.724  16.637  0.00  0.00    +0.000 A 
ATOM     29  C   UNL     1       4.148   4.808  17.365  0.00  0.00    +0.000 A 
ATOM     30  H   UNL     1       3.907   7.971  17.800  0.00  0.00    +0.000 HD
ENDBRANCH  16  17
ENDBRANCH   2  16
TORSDOF 4
ENDMDL
MODEL 7
REMARK VINA RESULT:      -8.3      2.662      3.628
REMARK  Name = 
REMARK  4 active torsions:
REMARK  status: ('A' for Active; 'I' for Inactive)
REMARK    1  A    between atoms: C_2  and  C_3
REMARK    2  A    between atoms: C_3  and  C_4
REMARK    3  A    between atoms: C_23  and  O_24
REMARK    4  A    between atoms: C_23  and  C_25
REMARK                            x       y       z     vdW  Elec       q    Type
REMARK                         _______ _______ _______ _____ _____    ______ ____
ROOT
ATOM      1  O   UNL     1       4.238   7.960  17.536  0.00  0.00    +0.000 OA
ATOM      2  C   UNL     1       3.282   7.349  18.027  0.00  0.00    +0.000 C 
ATOM      3  N   UNL     1       3.441   6.134  18.647  0.00  0.00    +0.000 N 
ATOM      4  C   UNL     1       4.749   5.546  18.910  0.00  0.00    +0.000 C 
ATOM      5  C   UNL     1       4.359   4.129  19.372  0.00  0.00    +0.000 C 
ATOM      6  C   UNL     1       3.097   4.443  20.192  0.00  0.00    +0.000 C 
ATOM      7  C   UNL     1       2.421   5.154  19.021  0.00  0.00    +0.000 C 
ATOM      8  C   UNL     1       2.418   4.065  17.929  0.00  0.00    +0.000 C 
ATOM      9  C   UNL     1       3.759   3.306  18.188  0.00  0.00    +0.000 C 
ENDROOT
BRANCH   9  10
ATOM     10  C   UNL     1       3.535   1.813  18.595  0.00  0.00    +0.000 C 
ATOM     11  F   UNL     1       2.245   1.566  18.932  0.00  0.00    +0.000 F 
ATOM     12  F   UNL     1       3.845   0.953  17.598  0.00  0.00    +0.000 F 
ATOM     13  F   UNL     1       4.286   1.457  19.664  0.00  0.00    +0.000 F 
ENDBRANCH   9  10
BRANCH   9  14
ATOM     14  O   UNL     1       4.623   3.397  17.043  0.00  0.00    +0.000 OA
ATOM     15  H   UNL     1       4.292   2.820  16.333  0.00  0.00    +0.000 HD
ENDBRANCH   9  14
BRANCH   2  16
ATOM     16  C   UNL     1       1.889   7.954  17.990  0.00  0.00    +0.000 C 
BRANCH  16  17
ATOM     17  C   UNL     1       1.474   8.631  19.273  0.00  0.00    +0.000 A 
ATOM     18  C   UNL     1       1.589   7.952  20.500  0.00  0.00    +0.000 A 
ATOM     19  C   UNL     1       1.255   8.559  21.712  0.00  0.00    +0.000 A 
ATOM     20  C   UNL     1       0.806   9.882  21.740  0.00  0.00    +0.000 A 
ATOM     21  C   UNL     1       0.698  10.603  20.536  0.00  0.00    +0.000 A 
ATOM     22  C   UNL     1       1.029   9.966  19.339  0.00  0.00    +0.000 A 
ATOM     23  N   UNL     1       0.839  10.889  18.333  0.00  0.00    +0.000 N 
ATOM     24  C   UNL     1       0.406  12.093  18.840  0.00  0.00    +0.000 A 
ATOM     25  C   UNL     1       0.093  13.289  18.182  0.00  0.00    +0.000 A 
ATOM     26  C   UNL     1      -0.326  14.370  18.965  0.00  0.00    +0.000 A 
ATOM     27  C   UNL     1      -0.426  14.254  20.349  0.00  0.00    +0.000 A 
ATOM     28  C   UNL     1      -0.113  13.050  20.990  0.00  0.00    +0.000 A 
ATOM     29  C   UNL     1       0.310  11.944  20.220  0.00  0.00    +0.000 A 
ATOM     30  H   UNL     1       0.984  10.698  17.349  0.00  0.00    +0.000 HD
ENDBRANCH  16  17
ENDBRANCH   2  16
TORSDOF 4
ENDMDL
MODEL 8
REMARK VINA RESULT:      -8.2      3.298      4.365
REMARK  Name = 
REMARK  4 active torsions:
REMARK  status: ('A' for Active; 'I' for Inactive)
REMARK    1  A    between atoms: C_2  and  C_3
REMARK    2  A    between atoms: C_3  and  C_4
REMARK    3  A    between atoms: C_23  and  O_24
REMARK    4  A    between atoms: C_23  and  C_25
REMARK                            x       y       z     vdW  Elec       q    Type
REMARK                         _______ _______ _______ _____ _____    ______ ____
ROOT
ATOM      1  O   UNL     1       4.139   7.981  17.859  0.00  0.00    +0.000 OA
ATOM      2  C   UNL     1       2.992   7.544  18.006  0.00  0.00    +0.000 C 
ATOM      3  N   UNL     1       2.739   6.407  18.732  0.00  0.00    +0.000 N 
ATOM      4  C   UNL     1       3.766   5.719  19.506  0.00  0.00    +0.000 C 
ATOM      5  C   UNL     1       3.033   4.422  19.899  0.00  0.00    +0.000 C 
ATOM      6  C   UNL     1       1.623   4.971  20.166  0.00  0.00    +0.000 C 
ATOM      7  C   UNL     1       1.521   5.597  18.776  0.00  0.00    +0.000 C 
ATOM      8  C   UNL     1       1.749   4.386  17.848  0.00  0.00    +0.000 C 
ATOM      9  C   UNL     1       2.782   3.526  18.645  0.00  0.00    +0.000 C 
ENDROOT
BRANCH   9  10
ATOM     10  C   UNL     1       2.211   2.128  19.054  0.00  0.00    +0.000 C 
ATOM     11  F   UNL     1       2.129   1.988  20.399  0.00  0.00    +0.000 F 
ATOM     12  F   UNL     1       0.967   1.915  18.565  0.00  0.00    +0.000 F 
ATOM     13  F   UNL     1       2.985   1.111  18.607  0.00  0.00    +0.000 F 
ENDBRANCH   9  10
BRANCH   9  14
ATOM     14  O   UNL     1       4.002   3.379  17.898  0.00  0.00    +0.000 OA
ATOM     15  H   UNL     1       4.328   2.465  17.975  0.00  0.00    +0.000 HD
ENDBRANCH   9  14
BRANCH   2  16
ATOM     16  C   UNL     1       1.809   8.287  17.408  0.00  0.00    +0.000 C 
BRANCH  16  17
ATOM     17  C   UNL     1       0.986   9.051  18.415  0.00  0.00    +0.000 A 
ATOM     18  C   UNL     1       1.484   9.275  19.712  0.00  0.00    +0.000 A 
ATOM     19  C   UNL     1       0.771  10.013  20.658  0.00  0.00    +0.000 A 
ATOM     20  C   UNL     1      -0.469  10.568  20.333  0.00  0.00    +0.000 A 
ATOM     21  C   UNL     1      -0.993  10.385  19.039  0.00  0.00    +0.000 A 
ATOM     22  C   UNL     1      -0.262   9.634  18.119  0.00  0.00    +0.000 A 
ATOM     23  N   UNL     1      -0.993   9.617  16.950  0.00  0.00    +0.000 N 
ATOM     24  C   UNL     1      -2.160  10.335  17.085  0.00  0.00    +0.000 A 
ATOM     25  C   UNL     1      -3.184  10.574  16.161  0.00  0.00    +0.000 A 
ATOM     26  C   UNL     1      -4.268  11.352  16.581  0.00  0.00    +0.000 A 
ATOM     27  C   UNL     1      -4.321  11.867  17.875  0.00  0.00    +0.000 A 
ATOM     28  C   UNL     1      -3.290  11.614  18.787  0.00  0.00    +0.000 A 
ATOM     29  C   UNL     1      -2.187  10.828  18.386  0.00  0.00    +0.000 A 
ATOM     30  H   UNL     1      -0.713   9.128  16.109  0.00  0.00    +0.000 HD
ENDBRANCH  16  17
ENDBRANCH   2  16
TORSDOF 4
ENDMDL
MODEL 9
REMARK VINA RESULT:      -8.2      1.869      2.651
REMARK  Name = 
REMARK  4 active torsions:
REMARK  status: ('A' for Active; 'I' for Inactive)
REMARK    1  A    between atoms: C_2  and  C_3
REMARK    2  A    between atoms: C_3  and  C_4
REMARK    3  A    between atoms: C_23  and  O_24
REMARK    4  A    between atoms: C_23  and  C_25
REMARK                            x       y       z     vdW  Elec       q    Type
REMARK                         _______ _______ _______ _____ _____    ______ ____
ROOT
ATOM      1  O   UNL     1       5.216   5.907  20.010  0.00  0.00    +0.000 OA
ATOM      2  C   UNL     1       4.473   5.513  19.104  0.00  0.00    +0.000 C 
ATOM      3  N   UNL     1       4.957   4.820  18.022  0.00  0.00    +0.000 N 
ATOM      4  C   UNL     1       6.339   4.365  17.929  0.00  0.00    +0.000 C 
ATOM      5  C   UNL     1       6.404   3.888  16.465  0.00  0.00    +0.000 C 
ATOM      6  C   UNL     1       5.014   3.252  16.319  0.00  0.00    +0.000 C 
ATOM      7  C   UNL     1       4.299   4.532  16.747  0.00  0.00    +0.000 C 
ATOM      8  C   UNL     1       4.822   5.563  15.725  0.00  0.00    +0.000 C 
ATOM      9  C   UNL     1       6.294   5.098  15.483  0.00  0.00    +0.000 C 
ENDROOT
BRANCH   9  10
ATOM     10  C   UNL     1       6.548   4.652  14.006  0.00  0.00    +0.000 C 
ATOM     11  F   UNL     1       7.460   5.441  13.387  0.00  0.00    +0.000 F 
ATOM     12  F   UNL     1       7.012   3.384  13.921  0.00  0.00    +0.000 F 
ATOM     13  F   UNL     1       5.421   4.705  13.257  0.00  0.00    +0.000 F 
ENDBRANCH   9  10
BRANCH   9  14
ATOM     14  O   UNL     1       7.221   6.127  15.871  0.00  0.00    +0.000 OA
ATOM     15  H   UNL     1       7.986   5.729  16.322  0.00  0.00    +0.000 HD
ENDBRANCH   9  14
BRANCH   2  16
ATOM     16  C   UNL     1       2.975   5.756  19.184  0.00  0.00    +0.000 C 
BRANCH  16  17
ATOM     17  C   UNL     1       2.565   7.180  18.897  0.00  0.00    +0.000 A 
ATOM     18  C   UNL     1       2.856   7.763  17.651  0.00  0.00    +0.000 A 
ATOM     19  C   UNL     1       2.457   9.062  17.333  0.00  0.00    +0.000 A 
ATOM     20  C   UNL     1       1.733   9.824  18.254  0.00  0.00    +0.000 A 
ATOM     21  C   UNL     1       1.402   9.269  19.504  0.00  0.00    +0.000 A 
ATOM     22  C   UNL     1       1.825   7.972  19.797  0.00  0.00    +0.000 A 
ATOM     23  N   UNL     1       1.368   7.682  21.065  0.00  0.00    +0.000 N 
ATOM     24  C   UNL     1       0.663   8.741  21.592  0.00  0.00    +0.000 A 
ATOM     25  C   UNL     1       0.034   8.877  22.836  0.00  0.00    +0.000 A 
ATOM     26  C   UNL     1      -0.619  10.084  23.104  0.00  0.00    +0.000 A 
ATOM     27  C   UNL     1      -0.638  11.112  22.164  0.00  0.00    +0.000 A 
ATOM     28  C   UNL     1      -0.000  10.960  20.927  0.00  0.00    +0.000 A 
ATOM     29  C   UNL     1       0.667   9.751  20.635  0.00  0.00    +0.000 A 
ATOM     30  H   UNL     1       1.543   6.810  21.549  0.00  0.00    +0.000 HD
ENDBRANCH  16  17
ENDBRANCH   2  16
TORSDOF 4
ENDMDL
