MODEL 1
REMARK VINA RESULT:      -8.8      0.000      0.000
REMARK  Name = 
REMARK  2 active torsions:
REMARK  status: ('A' for Active; 'I' for Inactive)
REMARK    1  A    between atoms: C_2  and  C_3
REMARK    2  A    between atoms: N_20  and  C_21
REMARK                            x       y       z     vdW  Elec       q    Type
REMARK                         _______ _______ _______ _____ _____    ______ ____
ROOT
ATOM      1  O   UNL     1       0.860  11.581  21.690  0.00  0.00    +0.000 OA
ATOM      2  C   UNL     1       1.071  11.487  20.482  0.00  0.00    +0.000 C 
ATOM      3  N   UNL     1       1.087  10.237  19.845  0.00  0.00    +0.000 N 
ATOM      4  C   UNL     1       1.205  10.017  18.390  0.00  0.00    +0.000 C 
ATOM      5  C   UNL     1       2.181   8.911  17.969  0.00  0.00    +0.000 C 
ATOM      6  C   UNL     1       2.203   7.822  18.961  0.00  0.00    +0.000 A 
ATOM      7  C   UNL     1       1.540   7.865  20.168  0.00  0.00    +0.000 A 
ATOM      8  N   UNL     1       1.644   6.662  20.808  0.00  0.00    +0.000 NA
ATOM      9  C   UNL     1       2.388   5.915  20.013  0.00  0.00    +0.000 A 
ATOM     10  N   UNL     1       2.794   6.581  18.870  0.00  0.00    +0.000 N 
ATOM     11  C   UNL     1       0.764   9.045  20.669  0.00  0.00    +0.000 C 
ENDROOT
BRANCH   2  12
ATOM     12  C   UNL     1       1.339  12.662  19.681  0.00  0.00    +0.000 A 
ATOM     13  N   UNL     1       2.446  12.846  18.875  0.00  0.00    +0.000 N 
ATOM     14  C   UNL     1       2.585  14.171  18.540  0.00  0.00    +0.000 A 
ATOM     15  C   UNL     1       3.680  14.861  18.011  0.00  0.00    +0.000 A 
ATOM     16  C   UNL     1       3.502  16.215  17.717  0.00  0.00    +0.000 A 
ATOM     17  C   UNL     1       2.273  16.837  17.917  0.00  0.00    +0.000 A 
ATOM     18  C   UNL     1       1.193  16.130  18.465  0.00  0.00    +0.000 A 
ATOM     19  C   UNL     1       1.361  14.775  18.817  0.00  0.00    +0.000 A 
ATOM     20  C   UNL     1       0.563  13.797  19.486  0.00  0.00    +0.000 A 
ATOM     21 CL   UNL     1      -1.003  14.096  20.087  0.00  0.00    +0.000 Cl
ATOM     22  H   UNL     1       3.156  12.146  18.717  0.00  0.00    +0.000 HD
ENDBRANCH   2  12
BRANCH  10  23
ATOM     23  C   UNL     1       3.620   6.069  17.829  0.00  0.00    +0.000 A 
ATOM     24  C   UNL     1       4.479   6.925  17.127  0.00  0.00    +0.000 A 
ATOM     25  C   UNL     1       5.323   6.407  16.136  0.00  0.00    +0.000 A 
ATOM     26  C   UNL     1       5.295   5.048  15.838  0.00  0.00    +0.000 A 
ATOM     27  F   UNL     1       6.106   4.558  14.891  0.00  0.00    +0.000 F 
ATOM     28  C   UNL     1       4.431   4.194  16.503  0.00  0.00    +0.000 A 
ATOM     29  C   UNL     1       3.586   4.704  17.492  0.00  0.00    +0.000 A 
ENDBRANCH  10  23
TORSDOF 2
ENDMDL
MODEL 2
REMARK VINA RESULT:      -8.8      0.885      1.353
REMARK  Name = 
REMARK  2 active torsions:
REMARK  status: ('A' for Active; 'I' for Inactive)
REMARK    1  A    between atoms: C_2  and  C_3
REMARK    2  A    between atoms: N_20  and  C_21
REMARK                            x       y       z     vdW  Elec       q    Type
REMARK                         _______ _______ _______ _____ _____    ______ ____
ROOT
ATOM      1  O   UNL     1       0.706  10.740  22.136  0.00  0.00    +0.000 OA
ATOM      2  C   UNL     1       0.846  10.751  20.914  0.00  0.00    +0.000 C 
ATOM      3  N   UNL     1       0.974   9.557  20.189  0.00  0.00    +0.000 N 
ATOM      4  C   UNL     1       1.022   9.447  18.718  0.00  0.00    +0.000 C 
ATOM      5  C   UNL     1       2.096   8.503  18.163  0.00  0.00    +0.000 C 
ATOM      6  C   UNL     1       2.317   7.364  19.071  0.00  0.00    +0.000 A 
ATOM      7  C   UNL     1       1.734   7.246  20.314  0.00  0.00    +0.000 A 
ATOM      8  N   UNL     1       2.027   6.027  20.859  0.00  0.00    +0.000 NA
ATOM      9  C   UNL     1       2.803   5.433  19.972  0.00  0.00    +0.000 A 
ATOM     10  N   UNL     1       3.048   6.217  18.858  0.00  0.00    +0.000 N 
ATOM     11  C   UNL     1       0.855   8.283  20.942  0.00  0.00    +0.000 C 
ENDROOT
BRANCH   2  12
ATOM     12  C   UNL     1       0.916  12.000  20.185  0.00  0.00    +0.000 A 
ATOM     13  N   UNL     1       2.078  12.642  19.807  0.00  0.00    +0.000 N 
ATOM     14  C   UNL     1       1.819  13.946  19.459  0.00  0.00    +0.000 A 
ATOM     15  C   UNL     1       2.686  15.032  19.303  0.00  0.00    +0.000 A 
ATOM     16  C   UNL     1       2.128  16.241  18.881  0.00  0.00    +0.000 A 
ATOM     17  C   UNL     1       0.768  16.345  18.601  0.00  0.00    +0.000 A 
ATOM     18  C   UNL     1      -0.086  15.248  18.780  0.00  0.00    +0.000 A 
ATOM     19  C   UNL     1       0.444  14.029  19.253  0.00  0.00    +0.000 A 
ATOM     20  C   UNL     1      -0.109  12.776  19.661  0.00  0.00    +0.000 A 
ATOM     21 CL   UNL     1      -1.777  12.426  19.658  0.00  0.00    +0.000 Cl
ATOM     22  H   UNL     1       3.006  12.271  19.951  0.00  0.00    +0.000 HD
ENDBRANCH   2  12
BRANCH  10  23
ATOM     23  C   UNL     1       3.861   5.881  17.737  0.00  0.00    +0.000 A 
ATOM     24  C   UNL     1       3.984   4.546  17.332  0.00  0.00    +0.000 A 
ATOM     25  C   UNL     1       4.747   4.227  16.201  0.00  0.00    +0.000 A 
ATOM     26  C   UNL     1       5.397   5.234  15.494  0.00  0.00    +0.000 A 
ATOM     27  F   UNL     1       6.124   4.923  14.413  0.00  0.00    +0.000 F 
ATOM     28  C   UNL     1       5.310   6.555  15.900  0.00  0.00    +0.000 A 
ATOM     29  C   UNL     1       4.550   6.880  17.027  0.00  0.00    +0.000 A 
ENDBRANCH  10  23
TORSDOF 2
ENDMDL
MODEL 3
REMARK VINA RESULT:      -8.4      1.599      2.080
REMARK  Name = 
REMARK  2 active torsions:
REMARK  status: ('A' for Active; 'I' for Inactive)
REMARK    1  A    between atoms: C_2  and  C_3
REMARK    2  A    between atoms: N_20  and  C_21
REMARK                            x       y       z     vdW  Elec       q    Type
REMARK                         _______ _______ _______ _____ _____    ______ ____
ROOT
ATOM      1  O   UNL     1       0.654   9.650  22.044  0.00  0.00    +0.000 OA
ATOM      2  C   UNL     1       0.917   9.773  20.850  0.00  0.00    +0.000 C 
ATOM      3  N   UNL     1       1.252   8.661  20.063  0.00  0.00    +0.000 N 
ATOM      4  C   UNL     1       1.464   8.676  18.602  0.00  0.00    +0.000 C 
ATOM      5  C   UNL     1       2.689   7.896  18.107  0.00  0.00    +0.000 C 
ATOM      6  C   UNL     1       2.941   6.717  18.954  0.00  0.00    +0.000 A 
ATOM      7  C   UNL     1       2.250   6.439  20.113  0.00  0.00    +0.000 A 
ATOM      8  N   UNL     1       2.620   5.217  20.602  0.00  0.00    +0.000 NA
ATOM      9  C   UNL     1       3.545   4.780  19.768  0.00  0.00    +0.000 A 
ATOM     10  N   UNL     1       3.814   5.673  18.745  0.00  0.00    +0.000 N 
ATOM     11  C   UNL     1       1.200   7.325  20.709  0.00  0.00    +0.000 C 
ENDROOT
BRANCH   2  12
ATOM     12  C   UNL     1       0.922  11.077  20.220  0.00  0.00    +0.000 A 
ATOM     13  N   UNL     1       1.926  12.018  20.334  0.00  0.00    +0.000 N 
ATOM     14  C   UNL     1       1.480  13.252  19.928  0.00  0.00    +0.000 A 
ATOM     15  C   UNL     1       2.021  14.524  20.136  0.00  0.00    +0.000 A 
ATOM     16  C   UNL     1       1.364  15.605  19.544  0.00  0.00    +0.000 A 
ATOM     17  C   UNL     1       0.233  15.411  18.755  0.00  0.00    +0.000 A 
ATOM     18  C   UNL     1      -0.303  14.129  18.573  0.00  0.00    +0.000 A 
ATOM     19  C   UNL     1       0.314  13.027  19.201  0.00  0.00    +0.000 A 
ATOM     20  C   UNL     1       0.001  11.640  19.346  0.00  0.00    +0.000 A 
ATOM     21 CL   UNL     1      -1.387  10.903  18.686  0.00  0.00    +0.000 Cl
ATOM     22  H   UNL     1       2.795  11.865  20.825  0.00  0.00    +0.000 HD
ENDBRANCH   2  12
BRANCH  10  23
ATOM     23  C   UNL     1       4.771   5.515  17.701  0.00  0.00    +0.000 A 
ATOM     24  C   UNL     1       4.492   4.681  16.611  0.00  0.00    +0.000 A 
ATOM     25  C   UNL     1       5.416   4.566  15.565  0.00  0.00    +0.000 A 
ATOM     26  C   UNL     1       6.619   5.264  15.620  0.00  0.00    +0.000 A 
ATOM     27  F   UNL     1       7.499   5.152  14.617  0.00  0.00    +0.000 F 
ATOM     28  C   UNL     1       6.923   6.068  16.705  0.00  0.00    +0.000 A 
ATOM     29  C   UNL     1       6.004   6.188  17.752  0.00  0.00    +0.000 A 
ENDBRANCH  10  23
TORSDOF 2
ENDMDL
MODEL 4
REMARK VINA RESULT:      -8.3      1.153      1.381
REMARK  Name = 
REMARK  2 active torsions:
REMARK  status: ('A' for Active; 'I' for Inactive)
REMARK    1  A    between atoms: C_2  and  C_3
REMARK    2  A    between atoms: N_20  and  C_21
REMARK                            x       y       z     vdW  Elec       q    Type
REMARK                         _______ _______ _______ _____ _____    ______ ____
ROOT
ATOM      1  O   UNL     1       0.745  10.064  21.745  0.00  0.00    +0.000 OA
ATOM      2  C   UNL     1       1.009  10.135  20.546  0.00  0.00    +0.000 C 
ATOM      3  N   UNL     1       1.306   8.985  19.800  0.00  0.00    +0.000 N 
ATOM      4  C   UNL     1       1.515   8.939  18.340  0.00  0.00    +0.000 C 
ATOM      5  C   UNL     1       2.712   8.103  17.872  0.00  0.00    +0.000 C 
ATOM      6  C   UNL     1       2.930   6.948  18.761  0.00  0.00    +0.000 A 
ATOM      7  C   UNL     1       2.234   6.736  19.931  0.00  0.00    +0.000 A 
ATOM      8  N   UNL     1       2.567   5.522  20.464  0.00  0.00    +0.000 NA
ATOM      9  C   UNL     1       3.475   5.025  19.645  0.00  0.00    +0.000 A 
ATOM     10  N   UNL     1       3.769   5.870  18.589  0.00  0.00    +0.000 N 
ATOM     11  C   UNL     1       1.214   7.676  20.495  0.00  0.00    +0.000 C 
ENDROOT
BRANCH   2  12
ATOM     12  C   UNL     1       1.052  11.414  19.869  0.00  0.00    +0.000 A 
ATOM     13  N   UNL     1       2.091  11.868  19.081  0.00  0.00    +0.000 N 
ATOM     14  C   UNL     1       1.992  13.224  18.885  0.00  0.00    +0.000 A 
ATOM     15  C   UNL     1       2.939  14.144  18.423  0.00  0.00    +0.000 A 
ATOM     16  C   UNL     1       2.523  15.469  18.272  0.00  0.00    +0.000 A 
ATOM     17  C   UNL     1       1.209  15.844  18.543  0.00  0.00    +0.000 A 
ATOM     18  C   UNL     1       0.281  14.909  19.020  0.00  0.00    +0.000 A 
ATOM     19  C   UNL     1       0.689  13.574  19.229  0.00  0.00    +0.000 A 
ATOM     20  C   UNL     1       0.087  12.410  19.798  0.00  0.00    +0.000 A 
ATOM     21 CL   UNL     1      -1.493  12.370  20.435  0.00  0.00    +0.000 Cl
ATOM     22  H   UNL     1       2.908  11.322  18.847  0.00  0.00    +0.000 HD
ENDBRANCH   2  12
BRANCH  10  23
ATOM     23  C   UNL     1       4.717   5.644  17.550  0.00  0.00    +0.000 A 
ATOM     24  C   UNL     1       5.916   6.369  17.522  0.00  0.00    +0.000 A 
ATOM     25  C   UNL     1       6.865   6.108  16.525  0.00  0.00    +0.000 A 
ATOM     26  C   UNL     1       6.609   5.145  15.555  0.00  0.00    +0.000 A 
ATOM     27  F   UNL     1       7.521   4.899  14.605  0.00  0.00    +0.000 F 
ATOM     28  C   UNL     1       5.416   4.442  15.551  0.00  0.00    +0.000 A 
ATOM     29  C   UNL     1       4.465   4.696  16.543  0.00  0.00    +0.000 A 
ENDBRANCH  10  23
TORSDOF 2
ENDMDL
MODEL 5
REMARK VINA RESULT:      -7.8      2.691      4.191
REMARK  Name = 
REMARK  2 active torsions:
REMARK  status: ('A' for Active; 'I' for Inactive)
REMARK    1  A    between atoms: C_2  and  C_3
REMARK    2  A    between atoms: N_20  and  C_21
REMARK                            x       y       z     vdW  Elec       q    Type
REMARK                         _______ _______ _______ _____ _____    ______ ____
ROOT
ATOM      1  O   UNL     1      -0.256  15.493  22.877  0.00  0.00    +0.000 OA
ATOM      2  C   UNL     1      -0.212  15.103  21.712  0.00  0.00    +0.000 C 
ATOM      3  N   UNL     1      -0.441  13.757  21.389  0.00  0.00    +0.000 N 
ATOM      4  C   UNL     1      -0.534  13.205  20.023  0.00  0.00    +0.000 C 
ATOM      5  C   UNL     1       0.227  11.894  19.790  0.00  0.00    +0.000 C 
ATOM      6  C   UNL     1       0.228  11.061  21.005  0.00  0.00    +0.000 A 
ATOM      7  C   UNL     1      -0.268  11.474  22.222  0.00  0.00    +0.000 A 
ATOM      8  N   UNL     1      -0.245  10.440  23.116  0.00  0.00    +0.000 NA
ATOM      9  C   UNL     1       0.288   9.429  22.457  0.00  0.00    +0.000 A 
ATOM     10  N   UNL     1       0.633   9.754  21.156  0.00  0.00    +0.000 N 
ATOM     11  C   UNL     1      -0.813  12.841  22.498  0.00  0.00    +0.000 C 
ENDROOT
BRANCH   2  12
ATOM     12  C   UNL     1       0.108  16.015  20.634  0.00  0.00    +0.000 A 
ATOM     13  N   UNL     1      -0.758  16.936  20.081  0.00  0.00    +0.000 N 
ATOM     14  C   UNL     1      -0.281  17.384  18.872  0.00  0.00    +0.000 A 
ATOM     15  C   UNL     1      -0.929  18.069  17.840  0.00  0.00    +0.000 A 
ATOM     16  C   UNL     1      -0.157  18.448  16.740  0.00  0.00    +0.000 A 
ATOM     17  C   UNL     1       1.208  18.177  16.694  0.00  0.00    +0.000 A 
ATOM     18  C   UNL     1       1.834  17.474  17.732  0.00  0.00    +0.000 A 
ATOM     19  C   UNL     1       1.067  17.037  18.832  0.00  0.00    +0.000 A 
ATOM     20  C   UNL     1       1.315  16.219  19.978  0.00  0.00    +0.000 A 
ATOM     21 CL   UNL     1       2.818  15.493  20.321  0.00  0.00    +0.000 Cl
ATOM     22  H   UNL     1      -1.695  17.109  20.417  0.00  0.00    +0.000 HD
ENDBRANCH   2  12
BRANCH  10  23
ATOM     23  C   UNL     1       1.249   8.901  20.196  0.00  0.00    +0.000 A 
ATOM     24  C   UNL     1       1.381   9.320  18.866  0.00  0.00    +0.000 A 
ATOM     25  C   UNL     1       2.030   8.496  17.936  0.00  0.00    +0.000 A 
ATOM     26  C   UNL     1       2.524   7.257  18.330  0.00  0.00    +0.000 A 
ATOM     27  F   UNL     1       3.144   6.475  17.438  0.00  0.00    +0.000 F 
ATOM     28  C   UNL     1       2.375   6.816  19.634  0.00  0.00    +0.000 A 
ATOM     29  C   UNL     1       1.729   7.633  20.567  0.00  0.00    +0.000 A 
ENDBRANCH  10  23
TORSDOF 2
ENDMDL
MODEL 6
REMARK VINA RESULT:      -7.7      1.700      2.669
REMARK  Name = 
REMARK  2 active torsions:
REMARK  status: ('A' for Active; 'I' for Inactive)
REMARK    1  A    between atoms: C_2  and  C_3
REMARK    2  A    between atoms: N_20  and  C_21
REMARK                            x       y       z     vdW  Elec       q    Type
REMARK                         _______ _______ _______ _____ _____    ______ ____
ROOT
ATOM      1  O   UNL     1       1.187   8.554  22.102  0.00  0.00    +0.000 OA
ATOM      2  C   UNL     1       1.316   8.747  20.894  0.00  0.00    +0.000 C 
ATOM      3  N   UNL     1       1.666   7.702  20.027  0.00  0.00    +0.000 N 
ATOM      4  C   UNL     1       1.727   7.793  18.554  0.00  0.00    +0.000 C 
ATOM      5  C   UNL     1       2.959   7.150  17.906  0.00  0.00    +0.000 C 
ATOM      6  C   UNL     1       3.401   5.969  18.667  0.00  0.00    +0.000 A 
ATOM      7  C   UNL     1       2.859   5.584  19.874  0.00  0.00    +0.000 A 
ATOM      8  N   UNL     1       3.385   4.384  20.265  0.00  0.00    +0.000 NA
ATOM      9  C   UNL     1       4.255   4.068  19.325  0.00  0.00    +0.000 A 
ATOM     10  N   UNL     1       4.338   5.020  18.324  0.00  0.00    +0.000 N 
ATOM     11  C   UNL     1       1.800   6.343  20.611  0.00  0.00    +0.000 C 
ENDROOT
BRANCH   2  12
ATOM     12  C   UNL     1       1.139  10.069  20.330  0.00  0.00    +0.000 A 
ATOM     13  N   UNL     1       1.708  10.521  19.156  0.00  0.00    +0.000 N 
ATOM     14  C   UNL     1       1.644  11.892  19.084  0.00  0.00    +0.000 A 
ATOM     15  C   UNL     1       2.329  12.788  18.258  0.00  0.00    +0.000 A 
ATOM     16  C   UNL     1       2.007  14.142  18.377  0.00  0.00    +0.000 A 
ATOM     17  C   UNL     1       1.021  14.570  19.263  0.00  0.00    +0.000 A 
ATOM     18  C   UNL     1       0.358  13.655  20.094  0.00  0.00    +0.000 A 
ATOM     19  C   UNL     1       0.700  12.288  20.028  0.00  0.00    +0.000 A 
ATOM     20  C   UNL     1       0.347  11.120  20.772  0.00  0.00    +0.000 A 
ATOM     21 CL   UNL     1      -0.731  11.122  22.091  0.00  0.00    +0.000 Cl
ATOM     22  H   UNL     1       2.263   9.948  18.536  0.00  0.00    +0.000 HD
ENDBRANCH   2  12
BRANCH  10  23
ATOM     23  C   UNL     1       5.194   4.992  17.185  0.00  0.00    +0.000 A 
ATOM     24  C   UNL     1       4.806   4.303  16.030  0.00  0.00    +0.000 A 
ATOM     25  C   UNL     1       5.630   4.318  14.898  0.00  0.00    +0.000 A 
ATOM     26  C   UNL     1       6.841   5.002  14.928  0.00  0.00    +0.000 A 
ATOM     27  F   UNL     1       7.625   5.015  13.842  0.00  0.00    +0.000 F 
ATOM     28  C   UNL     1       7.254   5.663  16.073  0.00  0.00    +0.000 A 
ATOM     29  C   UNL     1       6.435   5.652  17.206  0.00  0.00    +0.000 A 
ENDBRANCH  10  23
TORSDOF 2
ENDMDL
MODEL 7
REMARK VINA RESULT:      -7.7      4.309      8.832
REMARK  Name = 
REMARK  2 active torsions:
REMARK  status: ('A' for Active; 'I' for Inactive)
REMARK    1  A    between atoms: C_2  and  C_3
REMARK    2  A    between atoms: N_20  and  C_21
REMARK                            x       y       z     vdW  Elec       q    Type
REMARK                         _______ _______ _______ _____ _____    ______ ____
ROOT
ATOM      1  O   UNL     1       4.397   3.446  18.137  0.00  0.00    +0.000 OA
ATOM      2  C   UNL     1       4.547   4.549  17.615  0.00  0.00    +0.000 C 
ATOM      3  N   UNL     1       4.141   5.721  18.270  0.00  0.00    +0.000 N 
ATOM      4  C   UNL     1       4.382   7.098  17.795  0.00  0.00    +0.000 C 
ATOM      5  C   UNL     1       3.183   8.048  17.895  0.00  0.00    +0.000 C 
ATOM      6  C   UNL     1       2.351   7.727  19.068  0.00  0.00    +0.000 A 
ATOM      7  C   UNL     1       2.554   6.632  19.879  0.00  0.00    +0.000 A 
ATOM      8  N   UNL     1       1.708   6.676  20.952  0.00  0.00    +0.000 NA
ATOM      9  C   UNL     1       0.983   7.764  20.772  0.00  0.00    +0.000 A 
ATOM     10  N   UNL     1       1.307   8.443  19.610  0.00  0.00    +0.000 N 
ATOM     11  C   UNL     1       3.598   5.584  19.645  0.00  0.00    +0.000 C 
ENDROOT
BRANCH   2  12
ATOM     12  C   UNL     1       5.119   4.674  16.291  0.00  0.00    +0.000 A 
ATOM     13  N   UNL     1       4.537   4.226  15.122  0.00  0.00    +0.000 N 
ATOM     14  C   UNL     1       5.466   4.170  14.110  0.00  0.00    +0.000 A 
ATOM     15  C   UNL     1       5.420   3.519  12.874  0.00  0.00    +0.000 A 
ATOM     16  C   UNL     1       6.510   3.694  12.017  0.00  0.00    +0.000 A 
ATOM     17  C   UNL     1       7.581   4.508  12.377  0.00  0.00    +0.000 A 
ATOM     18  C   UNL     1       7.614   5.138  13.628  0.00  0.00    +0.000 A 
ATOM     19  C   UNL     1       6.548   4.938  14.531  0.00  0.00    +0.000 A 
ATOM     20  C   UNL     1       6.293   5.298  15.890  0.00  0.00    +0.000 A 
ATOM     21 CL   UNL     1       7.377   6.186  16.859  0.00  0.00    +0.000 Cl
ATOM     22  H   UNL     1       3.617   3.815  15.066  0.00  0.00    +0.000 HD
ENDBRANCH   2  12
BRANCH  10  23
ATOM     23  C   UNL     1       0.699   9.632  19.115  0.00  0.00    +0.000 A 
ATOM     24  C   UNL     1      -0.434   9.554  18.294  0.00  0.00    +0.000 A 
ATOM     25  C   UNL     1      -1.056  10.727  17.849  0.00  0.00    +0.000 A 
ATOM     26  C   UNL     1      -0.538  11.968  18.208  0.00  0.00    +0.000 A 
ATOM     27  F   UNL     1      -1.138  13.087  17.781  0.00  0.00    +0.000 F 
ATOM     28  C   UNL     1       0.598  12.062  18.994  0.00  0.00    +0.000 A 
ATOM     29  C   UNL     1       1.223  10.895  19.441  0.00  0.00    +0.000 A 
ENDBRANCH  10  23
TORSDOF 2
ENDMDL
MODEL 8
REMARK VINA RESULT:      -7.7      7.272      8.675
REMARK  Name = 
REMARK  2 active torsions:
REMARK  status: ('A' for Active; 'I' for Inactive)
REMARK    1  A    between atoms: C_2  and  C_3
REMARK    2  A    between atoms: N_20  and  C_21
REMARK                            x       y       z     vdW  Elec       q    Type
REMARK                         _______ _______ _______ _____ _____    ______ ____
ROOT
ATOM      1  O   UNL     1      -6.375  12.813  24.487  0.00  0.00    +0.000 OA
ATOM      2  C   UNL     1      -5.601  13.314  23.674  0.00  0.00    +0.000 C 
ATOM      3  N   UNL     1      -5.794  13.148  22.294  0.00  0.00    +0.000 N 
ATOM      4  C   UNL     1      -5.004  13.802  21.232  0.00  0.00    +0.000 C 
ATOM      5  C   UNL     1      -4.577  12.891  20.074  0.00  0.00    +0.000 C 
ATOM      6  C   UNL     1      -5.594  11.858  19.812  0.00  0.00    +0.000 A 
ATOM      7  C   UNL     1      -6.709  11.659  20.597  0.00  0.00    +0.000 A 
ATOM      8  N   UNL     1      -7.525  10.721  20.027  0.00  0.00    +0.000 NA
ATOM      9  C   UNL     1      -6.894  10.337  18.934  0.00  0.00    +0.000 A 
ATOM     10  N   UNL     1      -5.680  10.977  18.757  0.00  0.00    +0.000 N 
ATOM     11  C   UNL     1      -7.007  12.412  21.856  0.00  0.00    +0.000 C 
ENDROOT
BRANCH   2  12
ATOM     12  C   UNL     1      -4.445  14.067  24.112  0.00  0.00    +0.000 A 
ATOM     13  N   UNL     1      -4.483  15.261  24.805  0.00  0.00    +0.000 N 
ATOM     14  C   UNL     1      -3.261  15.887  24.758  0.00  0.00    +0.000 A 
ATOM     15  C   UNL     1      -2.908  17.209  25.046  0.00  0.00    +0.000 A 
ATOM     16  C   UNL     1      -1.555  17.543  24.961  0.00  0.00    +0.000 A 
ATOM     17  C   UNL     1      -0.599  16.586  24.630  0.00  0.00    +0.000 A 
ATOM     18  C   UNL     1      -0.976  15.271  24.329  0.00  0.00    +0.000 A 
ATOM     19  C   UNL     1      -2.342  14.919  24.360  0.00  0.00    +0.000 A 
ATOM     20  C   UNL     1      -3.096  13.757  24.008  0.00  0.00    +0.000 A 
ATOM     21 CL   UNL     1      -2.406  12.326  23.392  0.00  0.00    +0.000 Cl
ATOM     22  H   UNL     1      -5.331  15.703  25.130  0.00  0.00    +0.000 HD
ENDBRANCH   2  12
BRANCH  10  23
ATOM     23  C   UNL     1      -4.750  10.772  17.698  0.00  0.00    +0.000 A 
ATOM     24  C   UNL     1      -3.725   9.826  17.834  0.00  0.00    +0.000 A 
ATOM     25  C   UNL     1      -2.843   9.595  16.772  0.00  0.00    +0.000 A 
ATOM     26  C   UNL     1      -2.973  10.317  15.589  0.00  0.00    +0.000 A 
ATOM     27  F   UNL     1      -2.127  10.091  14.576  0.00  0.00    +0.000 F 
ATOM     28  C   UNL     1      -3.962  11.276  15.450  0.00  0.00    +0.000 A 
ATOM     29  C   UNL     1      -4.846  11.512  16.506  0.00  0.00    +0.000 A 
ENDBRANCH  10  23
TORSDOF 2
ENDMDL
MODEL 9
REMARK VINA RESULT:      -7.4      5.737      8.324
REMARK  Name = 
REMARK  2 active torsions:
REMARK  status: ('A' for Active; 'I' for Inactive)
REMARK    1  A    between atoms: C_2  and  C_3
REMARK    2  A    between atoms: N_20  and  C_21
REMARK                            x       y       z     vdW  Elec       q    Type
REMARK                         _______ _______ _______ _____ _____    ______ ____
ROOT
ATOM      1  O   UNL     1       6.844  17.447  19.109  0.00  0.00    +0.000 OA
ATOM      2  C   UNL     1       6.634  16.279  18.786  0.00  0.00    +0.000 C 
ATOM      3  N   UNL     1       5.372  15.869  18.331  0.00  0.00    +0.000 N 
ATOM      4  C   UNL     1       5.043  14.530  17.804  0.00  0.00    +0.000 C 
ATOM      5  C   UNL     1       3.734  13.922  18.323  0.00  0.00    +0.000 C 
ATOM      6  C   UNL     1       2.727  14.969  18.568  0.00  0.00    +0.000 A 
ATOM      7  C   UNL     1       2.982  16.320  18.476  0.00  0.00    +0.000 A 
ATOM      8  N   UNL     1       1.825  17.031  18.632  0.00  0.00    +0.000 NA
ATOM      9  C   UNL     1       0.892  16.123  18.849  0.00  0.00    +0.000 A 
ATOM     10  N   UNL     1       1.387  14.831  18.854  0.00  0.00    +0.000 N 
ATOM     11  C   UNL     1       4.326  16.912  18.182  0.00  0.00    +0.000 C 
ENDROOT
BRANCH   2  12
ATOM     12  C   UNL     1       7.676  15.279  18.894  0.00  0.00    +0.000 A 
ATOM     13  N   UNL     1       8.632  15.012  17.935  0.00  0.00    +0.000 N 
ATOM     14  C   UNL     1       9.232  13.799  18.174  0.00  0.00    +0.000 A 
ATOM     15  C   UNL     1      10.016  12.997  17.340  0.00  0.00    +0.000 A 
ATOM     16  C   UNL     1      10.544  11.826  17.890  0.00  0.00    +0.000 A 
ATOM     17  C   UNL     1      10.317  11.494  19.224  0.00  0.00    +0.000 A 
ATOM     18  C   UNL     1       9.514  12.305  20.037  0.00  0.00    +0.000 A 
ATOM     19  C   UNL     1       8.929  13.468  19.492  0.00  0.00    +0.000 A 
ATOM     20  C   UNL     1       7.989  14.439  19.955  0.00  0.00    +0.000 A 
ATOM     21 CL   UNL     1       7.269  14.407  21.499  0.00  0.00    +0.000 Cl
ATOM     22  H   UNL     1       8.737  15.534  17.077  0.00  0.00    +0.000 HD
ENDBRANCH   2  12
BRANCH  10  23
ATOM     23  C   UNL     1       0.650  13.633  19.083  0.00  0.00    +0.000 A 
ATOM     24  C   UNL     1      -0.394  13.274  18.221  0.00  0.00    +0.000 A 
ATOM     25  C   UNL     1      -1.084  12.072  18.424  0.00  0.00    +0.000 A 
ATOM     26  C   UNL     1      -0.745  11.246  19.492  0.00  0.00    +0.000 A 
ATOM     27  F   UNL     1      -1.407  10.098  19.680  0.00  0.00    +0.000 F 
ATOM     28  C   UNL     1       0.264  11.602  20.370  0.00  0.00    +0.000 A 
ATOM     29  C   UNL     1       0.957  12.800  20.173  0.00  0.00    +0.000 A 
ENDBRANCH  10  23
TORSDOF 2
ENDMDL
