MODEL 1
REMARK VINA RESULT:      -8.1      0.000      0.000
REMARK  Name = 
REMARK  4 active torsions:
REMARK  status: ('A' for Active; 'I' for Inactive)
REMARK    1  A    between atoms: C_4  and  C_5
REMARK    2  A    between atoms: N_7  and  C_8
REMARK    3  A    between atoms: C_13  and  O_14
REMARK    4  A    between atoms: O_14  and  C_15
REMARK                            x       y       z     vdW  Elec       q    Type
REMARK                         _______ _______ _______ _____ _____    ______ ____
ROOT
ATOM      1  C   UNL     1       2.676   5.955  18.311  0.00  0.00    +0.000 C 
ATOM      2  O   UNL     1       1.758   5.198  18.630  0.00  0.00    +0.000 OA
ATOM      3  N   UNL     1       2.715   7.297  18.681  0.00  0.00    +0.000 N 
ATOM      4  H   UNL     1       3.295   7.941  18.151  0.00  0.00    +0.000 HD
ENDROOT
BRANCH   1   8
ATOM      5  O   UNL     1       3.946   2.295  19.200  0.00  0.00    +0.000 OA
ATOM      6  C   UNL     1       4.317   3.352  18.695  0.00  0.00    +0.000 C 
ATOM      7  C   UNL     1       3.751   3.883  17.393  0.00  0.00    +0.000 C 
ATOM      8  C   UNL     1       3.770   5.422  17.367  0.00  0.00    +0.000 C 
ATOM      9  C   UNL     1       5.172   5.887  17.679  0.00  0.00    +0.000 A 
ATOM     10  C   UNL     1       5.750   6.977  17.019  0.00  0.00    +0.000 A 
ATOM     11  C   UNL     1       7.006   7.435  17.412  0.00  0.00    +0.000 A 
ATOM     12  C   UNL     1       7.671   6.808  18.464  0.00  0.00    +0.000 A 
ATOM     13  F   UNL     1       8.863   7.275  18.856  0.00  0.00    +0.000 F 
ATOM     14  C   UNL     1       7.130   5.697  19.100  0.00  0.00    +0.000 A 
ATOM     15  C   UNL     1       5.894   5.219  18.678  0.00  0.00    +0.000 A 
ATOM     16  N   UNL     1       5.372   4.047  19.231  0.00  0.00    +0.000 N 
ATOM     17  H   UNL     1       5.832   3.597  20.014  0.00  0.00    +0.000 HD
ENDBRANCH   1   8
BRANCH   3  18
ATOM     18  C   UNL     1       1.861   7.882  19.670  0.00  0.00    +0.000 A 
ATOM     19  C   UNL     1       1.669   7.265  20.915  0.00  0.00    +0.000 A 
ATOM     20  C   UNL     1       0.836   7.824  21.884  0.00  0.00    +0.000 A 
ATOM     21  C   UNL     1       0.187   8.996  21.583  0.00  0.00    +0.000 A 
ATOM     22  N   UNL     1       0.345   9.640  20.415  0.00  0.00    +0.000 NA
ATOM     23  C   UNL     1       1.201   9.111  19.495  0.00  0.00    +0.000 A 
BRANCH  23  24
ATOM     24  O   UNL     1       1.425   9.857  18.335  0.00  0.00    +0.000 OA
BRANCH  24  25
ATOM     25  C   UNL     1       1.044  11.197  18.384  0.00  0.00    +0.000 A 
ATOM     26  C   UNL     1       1.980  12.202  18.687  0.00  0.00    +0.000 A 
ATOM     27  C   UNL     1       1.579  13.536  18.811  0.00  0.00    +0.000 A 
ATOM     28  C   UNL     1       0.254  13.883  18.569  0.00  0.00    +0.000 A 
ATOM     29 CL   UNL     1      -0.236  15.526  18.722  0.00  0.00    +0.000 Cl
ATOM     30  C   UNL     1      -0.675  12.909  18.205  0.00  0.00    +0.000 A 
ATOM     31  C   UNL     1      -0.280  11.567  18.116  0.00  0.00    +0.000 A 
ATOM     32 CL   UNL     1      -1.470  10.393  17.683  0.00  0.00    +0.000 Cl
ENDBRANCH  24  25
ENDBRANCH  23  24
ENDBRANCH   3  18
TORSDOF 4
ENDMDL
MODEL 2
REMARK VINA RESULT:      -8.1      3.762      7.670
REMARK  Name = 
REMARK  4 active torsions:
REMARK  status: ('A' for Active; 'I' for Inactive)
REMARK    1  A    between atoms: C_4  and  C_5
REMARK    2  A    between atoms: N_7  and  C_8
REMARK    3  A    between atoms: C_13  and  O_14
REMARK    4  A    between atoms: O_14  and  C_15
REMARK                            x       y       z     vdW  Elec       q    Type
REMARK                         _______ _______ _______ _____ _____    ______ ____
ROOT
ATOM      1  C   UNL     1       1.399   7.331  20.830  0.00  0.00    +0.000 C 
ATOM      2  O   UNL     1       0.262   7.011  21.184  0.00  0.00    +0.000 OA
ATOM      3  N   UNL     1       2.411   6.401  20.607  0.00  0.00    +0.000 N 
ATOM      4  H   UNL     1       3.380   6.708  20.631  0.00  0.00    +0.000 HD
ENDROOT
BRANCH   1   8
ATOM      5  O   UNL     1       0.319   9.442  24.020  0.00  0.00    +0.000 OA
ATOM      6  C   UNL     1       0.494   9.540  22.808  0.00  0.00    +0.000 C 
ATOM      7  C   UNL     1       1.859   9.406  22.163  0.00  0.00    +0.000 C 
ATOM      8  C   UNL     1       1.744   8.828  20.740  0.00  0.00    +0.000 C 
ATOM      9  C   UNL     1       0.762   9.670  19.962  0.00  0.00    +0.000 A 
ATOM     10  C   UNL     1       0.972   9.990  18.616  0.00  0.00    +0.000 A 
ATOM     11  C   UNL     1      -0.012  10.681  17.910  0.00  0.00    +0.000 A 
ATOM     12  C   UNL     1      -1.197  11.039  18.549  0.00  0.00    +0.000 A 
ATOM     13  F   UNL     1      -2.149  11.674  17.854  0.00  0.00    +0.000 F 
ATOM     14  C   UNL     1      -1.401  10.767  19.896  0.00  0.00    +0.000 A 
ATOM     15  C   UNL     1      -0.401  10.112  20.607  0.00  0.00    +0.000 A 
ATOM     16  N   UNL     1      -0.537   9.914  21.983  0.00  0.00    +0.000 N 
ATOM     17  H   UNL     1      -1.404  10.145  22.455  0.00  0.00    +0.000 HD
ENDBRANCH   1   8
BRANCH   3  18
ATOM     18  C   UNL     1       2.197   4.989  20.502  0.00  0.00    +0.000 A 
ATOM     19  C   UNL     1       2.030   4.197  21.648  0.00  0.00    +0.000 A 
ATOM     20  C   UNL     1       1.825   2.820  21.557  0.00  0.00    +0.000 A 
ATOM     21  C   UNL     1       1.808   2.248  20.309  0.00  0.00    +0.000 A 
ATOM     22  N   UNL     1       1.945   2.959  19.177  0.00  0.00    +0.000 NA
ATOM     23  C   UNL     1       2.094   4.311  19.276  0.00  0.00    +0.000 A 
BRANCH  23  24
ATOM     24  O   UNL     1       2.129   5.033  18.080  0.00  0.00    +0.000 OA
BRANCH  24  25
ATOM     25  C   UNL     1       3.345   5.034  17.398  0.00  0.00    +0.000 A 
ATOM     26  C   UNL     1       3.907   3.835  16.924  0.00  0.00    +0.000 A 
ATOM     27  C   UNL     1       5.162   3.830  16.309  0.00  0.00    +0.000 A 
ATOM     28  C   UNL     1       5.835   5.030  16.104  0.00  0.00    +0.000 A 
ATOM     29 CL   UNL     1       7.380   5.020  15.346  0.00  0.00    +0.000 Cl
ATOM     30  C   UNL     1       5.265   6.236  16.511  0.00  0.00    +0.000 A 
ATOM     31  C   UNL     1       4.022   6.236  17.159  0.00  0.00    +0.000 A 
ATOM     32 CL   UNL     1       3.365   7.752  17.664  0.00  0.00    +0.000 Cl
ENDBRANCH  24  25
ENDBRANCH  23  24
ENDBRANCH   3  18
TORSDOF 4
ENDMDL
MODEL 3
REMARK VINA RESULT:      -7.9      1.583      2.346
REMARK  Name = 
REMARK  4 active torsions:
REMARK  status: ('A' for Active; 'I' for Inactive)
REMARK    1  A    between atoms: C_4  and  C_5
REMARK    2  A    between atoms: N_7  and  C_8
REMARK    3  A    between atoms: C_13  and  O_14
REMARK    4  A    between atoms: O_14  and  C_15
REMARK                            x       y       z     vdW  Elec       q    Type
REMARK                         _______ _______ _______ _____ _____    ______ ____
ROOT
ATOM      1  C   UNL     1       2.268   6.468  19.046  0.00  0.00    +0.000 C 
ATOM      2  O   UNL     1       1.801   5.742  19.927  0.00  0.00    +0.000 OA
ATOM      3  N   UNL     1       2.022   7.836  18.984  0.00  0.00    +0.000 N 
ATOM      4  H   UNL     1       2.150   8.323  18.102  0.00  0.00    +0.000 HD
ENDROOT
BRANCH   1   8
ATOM      5  O   UNL     1       3.001   2.599  19.588  0.00  0.00    +0.000 OA
ATOM      6  C   UNL     1       3.459   3.605  19.052  0.00  0.00    +0.000 C 
ATOM      7  C   UNL     1       2.776   4.300  17.891  0.00  0.00    +0.000 C 
ATOM      8  C   UNL     1       3.065   5.812  17.904  0.00  0.00    +0.000 C 
ATOM      9  C   UNL     1       4.560   6.012  17.964  0.00  0.00    +0.000 A 
ATOM     10  C   UNL     1       5.198   7.024  17.238  0.00  0.00    +0.000 A 
ATOM     11  C   UNL     1       6.565   7.237  17.405  0.00  0.00    +0.000 A 
ATOM     12  C   UNL     1       7.282   6.444  18.299  0.00  0.00    +0.000 A 
ATOM     13  F   UNL     1       8.588   6.677  18.477  0.00  0.00    +0.000 F 
ATOM     14  C   UNL     1       6.672   5.406  18.994  0.00  0.00    +0.000 A 
ATOM     15  C   UNL     1       5.316   5.173  18.795  0.00  0.00    +0.000 A 
ATOM     16  N   UNL     1       4.699   4.076  19.402  0.00  0.00    +0.000 N 
ATOM     17  H   UNL     1       5.202   3.509  20.075  0.00  0.00    +0.000 HD
ENDBRANCH   1   8
BRANCH   3  18
ATOM     18  C   UNL     1       1.438   8.597  20.048  0.00  0.00    +0.000 A 
ATOM     19  C   UNL     1       1.672   8.261  21.389  0.00  0.00    +0.000 A 
ATOM     20  C   UNL     1       1.105   8.993  22.432  0.00  0.00    +0.000 A 
ATOM     21  C   UNL     1       0.289  10.050  22.114  0.00  0.00    +0.000 A 
ATOM     22  N   UNL     1       0.042  10.428  20.849  0.00  0.00    +0.000 NA
ATOM     23  C   UNL     1       0.642   9.737  19.838  0.00  0.00    +0.000 A 
BRANCH  23  24
ATOM     24  O   UNL     1       0.451  10.218  18.540  0.00  0.00    +0.000 OA
BRANCH  24  25
ATOM     25  C   UNL     1      -0.864  10.510  18.182  0.00  0.00    +0.000 A 
ATOM     26  C   UNL     1      -1.747   9.490  17.785  0.00  0.00    +0.000 A 
ATOM     27  C   UNL     1      -3.041   9.795  17.353  0.00  0.00    +0.000 A 
ATOM     28  C   UNL     1      -3.484  11.114  17.377  0.00  0.00    +0.000 A 
ATOM     29 CL   UNL     1      -5.078  11.486  16.845  0.00  0.00    +0.000 Cl
ATOM     30  C   UNL     1      -2.643  12.131  17.827  0.00  0.00    +0.000 A 
ATOM     31  C   UNL     1      -1.334  11.829  18.226  0.00  0.00    +0.000 A 
ATOM     32 CL   UNL     1      -0.322  13.125  18.756  0.00  0.00    +0.000 Cl
ENDBRANCH  24  25
ENDBRANCH  23  24
ENDBRANCH   3  18
TORSDOF 4
ENDMDL
MODEL 4
REMARK VINA RESULT:      -7.9      4.259      8.137
REMARK  Name = 
REMARK  4 active torsions:
REMARK  status: ('A' for Active; 'I' for Inactive)
REMARK    1  A    between atoms: C_4  and  C_5
REMARK    2  A    between atoms: N_7  and  C_8
REMARK    3  A    between atoms: C_13  and  O_14
REMARK    4  A    between atoms: O_14  and  C_15
REMARK                            x       y       z     vdW  Elec       q    Type
REMARK                         _______ _______ _______ _____ _____    ______ ____
ROOT
ATOM      1  C   UNL     1       1.582   7.429  20.703  0.00  0.00    +0.000 C 
ATOM      2  O   UNL     1       0.715   7.019  21.478  0.00  0.00    +0.000 OA
ATOM      3  N   UNL     1       2.503   6.589  20.084  0.00  0.00    +0.000 N 
ATOM      4  H   UNL     1       3.367   6.982  19.722  0.00  0.00    +0.000 HD
ENDROOT
BRANCH   1   8
ATOM      5  O   UNL     1       0.333   9.606  23.786  0.00  0.00    +0.000 OA
ATOM      6  C   UNL     1       0.454   9.639  22.564  0.00  0.00    +0.000 C 
ATOM      7  C   UNL     1       1.803   9.638  21.872  0.00  0.00    +0.000 C 
ATOM      8  C   UNL     1       1.720   8.949  20.498  0.00  0.00    +0.000 C 
ATOM      9  C   UNL     1       0.609   9.596  19.706  0.00  0.00    +0.000 A 
ATOM     10  C   UNL     1       0.730   9.843  18.334  0.00  0.00    +0.000 A 
ATOM     11  C   UNL     1      -0.359  10.346  17.625  0.00  0.00    +0.000 A 
ATOM     12  C   UNL     1      -1.560  10.591  18.288  0.00  0.00    +0.000 A 
ATOM     13  F   UNL     1      -2.611  11.043  17.593  0.00  0.00    +0.000 F 
ATOM     14  C   UNL     1      -1.682  10.393  19.658  0.00  0.00    +0.000 A 
ATOM     15  C   UNL     1      -0.581   9.928  20.369  0.00  0.00    +0.000 A 
ATOM     16  N   UNL     1      -0.644   9.814  21.760  0.00  0.00    +0.000 N 
ATOM     17  H   UNL     1      -1.518   9.963  22.251  0.00  0.00    +0.000 HD
ENDBRANCH   1   8
BRANCH   3  18
ATOM     18  C   UNL     1       2.398   5.161  20.059  0.00  0.00    +0.000 A 
ATOM     19  C   UNL     1       1.152   4.526  20.176  0.00  0.00    +0.000 A 
ATOM     20  C   UNL     1       1.039   3.136  20.157  0.00  0.00    +0.000 A 
ATOM     21  C   UNL     1       2.188   2.394  20.038  0.00  0.00    +0.000 A 
ATOM     22  N   UNL     1       3.405   2.946  19.906  0.00  0.00    +0.000 NA
ATOM     23  C   UNL     1       3.498   4.307  19.875  0.00  0.00    +0.000 A 
BRANCH  23  24
ATOM     24  O   UNL     1       4.763   4.849  19.631  0.00  0.00    +0.000 OA
BRANCH  24  25
ATOM     25  C   UNL     1       5.225   4.764  18.319  0.00  0.00    +0.000 A 
ATOM     26  C   UNL     1       4.364   4.382  17.274  0.00  0.00    +0.000 A 
ATOM     27  C   UNL     1       4.848   4.223  15.973  0.00  0.00    +0.000 A 
ATOM     28  C   UNL     1       6.181   4.508  15.693  0.00  0.00    +0.000 A 
ATOM     29 CL   UNL     1       6.774   4.311  14.089  0.00  0.00    +0.000 Cl
ATOM     30  C   UNL     1       7.035   4.949  16.704  0.00  0.00    +0.000 A 
ATOM     31  C   UNL     1       6.557   5.074  18.015  0.00  0.00    +0.000 A 
ATOM     32 CL   UNL     1       7.656   5.603  19.238  0.00  0.00    +0.000 Cl
ENDBRANCH  24  25
ENDBRANCH  23  24
ENDBRANCH   3  18
TORSDOF 4
ENDMDL
MODEL 5
REMARK VINA RESULT:      -7.8      3.958      7.777
REMARK  Name = 
REMARK  4 active torsions:
REMARK  status: ('A' for Active; 'I' for Inactive)
REMARK    1  A    between atoms: C_4  and  C_5
REMARK    2  A    between atoms: N_7  and  C_8
REMARK    3  A    between atoms: C_13  and  O_14
REMARK    4  A    between atoms: O_14  and  C_15
REMARK                            x       y       z     vdW  Elec       q    Type
REMARK                         _______ _______ _______ _____ _____    ______ ____
ROOT
ATOM      1  C   UNL     1       1.859   7.797  19.989  0.00  0.00    +0.000 C 
ATOM      2  O   UNL     1       1.684   7.722  18.771  0.00  0.00    +0.000 OA
ATOM      3  N   UNL     1       1.947   6.678  20.811  0.00  0.00    +0.000 N 
ATOM      4  H   UNL     1       1.774   6.780  21.807  0.00  0.00    +0.000 HD
ENDROOT
BRANCH   1   8
ATOM      5  O   UNL     1      -0.859   8.273  22.849  0.00  0.00    +0.000 OA
ATOM      6  C   UNL     1      -0.235   8.896  21.995  0.00  0.00    +0.000 C 
ATOM      7  C   UNL     1       1.267   9.091  22.055  0.00  0.00    +0.000 C 
ATOM      8  C   UNL     1       1.870   9.191  20.642  0.00  0.00    +0.000 C 
ATOM      9  C   UNL     1       1.128  10.264  19.882  0.00  0.00    +0.000 A 
ATOM     10  C   UNL     1       1.788  11.146  19.019  0.00  0.00    +0.000 A 
ATOM     11  C   UNL     1       1.048  12.052  18.260  0.00  0.00    +0.000 A 
ATOM     12  C   UNL     1      -0.341  12.065  18.362  0.00  0.00    +0.000 A 
ATOM     13  F   UNL     1      -1.045  12.915  17.605  0.00  0.00    +0.000 F 
ATOM     14  C   UNL     1      -1.008  11.225  19.247  0.00  0.00    +0.000 A 
ATOM     15  C   UNL     1      -0.264  10.351  20.031  0.00  0.00    +0.000 A 
ATOM     16  N   UNL     1      -0.898   9.568  20.998  0.00  0.00    +0.000 N 
ATOM     17  H   UNL     1      -1.909   9.548  21.064  0.00  0.00    +0.000 HD
ENDBRANCH   1   8
BRANCH   3  18
ATOM     18  C   UNL     1       2.108   5.338  20.331  0.00  0.00    +0.000 A 
ATOM     19  C   UNL     1       1.046   4.422  20.376  0.00  0.00    +0.000 A 
ATOM     20  C   UNL     1       1.194   3.114  19.915  0.00  0.00    +0.000 A 
ATOM     21  C   UNL     1       2.419   2.733  19.427  0.00  0.00    +0.000 A 
ATOM     22  N   UNL     1       3.466   3.571  19.344  0.00  0.00    +0.000 NA
ATOM     23  C   UNL     1       3.295   4.861  19.751  0.00  0.00    +0.000 A 
BRANCH  23  24
ATOM     24  O   UNL     1       4.369   5.734  19.554  0.00  0.00    +0.000 OA
BRANCH  24  25
ATOM     25  C   UNL     1       5.045   5.613  18.341  0.00  0.00    +0.000 A 
ATOM     26  C   UNL     1       4.343   5.602  17.122  0.00  0.00    +0.000 A 
ATOM     27  C   UNL     1       5.016   5.402  15.914  0.00  0.00    +0.000 A 
ATOM     28  C   UNL     1       6.402   5.279  15.908  0.00  0.00    +0.000 A 
ATOM     29 CL   UNL     1       7.228   5.034  14.418  0.00  0.00    +0.000 Cl
ATOM     30  C   UNL     1       7.121   5.351  17.100  0.00  0.00    +0.000 A 
ATOM     31  C   UNL     1       6.442   5.515  18.315  0.00  0.00    +0.000 A 
ATOM     32 CL   UNL     1       7.372   5.577  19.769  0.00  0.00    +0.000 Cl
ENDBRANCH  24  25
ENDBRANCH  23  24
ENDBRANCH   3  18
TORSDOF 4
ENDMDL
MODEL 6
REMARK VINA RESULT:      -7.8      2.240      3.477
REMARK  Name = 
REMARK  4 active torsions:
REMARK  status: ('A' for Active; 'I' for Inactive)
REMARK    1  A    between atoms: C_4  and  C_5
REMARK    2  A    between atoms: N_7  and  C_8
REMARK    3  A    between atoms: C_13  and  O_14
REMARK    4  A    between atoms: O_14  and  C_15
REMARK                            x       y       z     vdW  Elec       q    Type
REMARK                         _______ _______ _______ _____ _____    ______ ____
ROOT
ATOM      1  C   UNL     1       2.255   8.006  18.489  0.00  0.00    +0.000 C 
ATOM      2  O   UNL     1       2.261   8.103  19.718  0.00  0.00    +0.000 OA
ATOM      3  N   UNL     1       1.920   9.064  17.648  0.00  0.00    +0.000 N 
ATOM      4  H   UNL     1       1.624   8.866  16.697  0.00  0.00    +0.000 HD
ENDROOT
BRANCH   1   8
ATOM      5  O   UNL     1       1.629   4.953  20.957  0.00  0.00    +0.000 OA
ATOM      6  C   UNL     1       2.306   5.293  19.990  0.00  0.00    +0.000 C 
ATOM      7  C   UNL     1       1.708   5.562  18.623  0.00  0.00    +0.000 C 
ATOM      8  C   UNL     1       2.520   6.625  17.862  0.00  0.00    +0.000 C 
ATOM      9  C   UNL     1       3.967   6.195  17.841  0.00  0.00    +0.000 A 
ATOM     10  C   UNL     1       4.772   6.375  16.710  0.00  0.00    +0.000 A 
ATOM     11  C   UNL     1       6.128   6.059  16.771  0.00  0.00    +0.000 A 
ATOM     12  C   UNL     1       6.670   5.573  17.959  0.00  0.00    +0.000 A 
ATOM     13  F   UNL     1       7.980   5.302  18.019  0.00  0.00    +0.000 F 
ATOM     14  C   UNL     1       5.875   5.347  19.077  0.00  0.00    +0.000 A 
ATOM     15  C   UNL     1       4.515   5.627  18.999  0.00  0.00    +0.000 A 
ATOM     16  N   UNL     1       3.676   5.317  20.072  0.00  0.00    +0.000 N 
ATOM     17  H   UNL     1       4.060   4.989  20.950  0.00  0.00    +0.000 HD
ENDBRANCH   1   8
BRANCH   3  18
ATOM     18  C   UNL     1       1.805  10.426  18.077  0.00  0.00    +0.000 A 
ATOM     19  C   UNL     1       2.803  11.364  17.775  0.00  0.00    +0.000 A 
ATOM     20  C   UNL     1       2.703  12.692  18.192  0.00  0.00    +0.000 A 
ATOM     21  C   UNL     1       1.603  13.060  18.925  0.00  0.00    +0.000 A 
ATOM     22  N   UNL     1       0.608  12.210  19.230  0.00  0.00    +0.000 NA
ATOM     23  C   UNL     1       0.692  10.927  18.774  0.00  0.00    +0.000 A 
BRANCH  23  24
ATOM     24  O   UNL     1      -0.405  10.096  19.016  0.00  0.00    +0.000 OA
BRANCH  24  25
ATOM     25  C   UNL     1      -1.631  10.539  18.522  0.00  0.00    +0.000 A 
ATOM     26  C   UNL     1      -2.079  10.149  17.247  0.00  0.00    +0.000 A 
ATOM     27  C   UNL     1      -3.272  10.657  16.725  0.00  0.00    +0.000 A 
ATOM     28  C   UNL     1      -4.059  11.504  17.498  0.00  0.00    +0.000 A 
ATOM     29 CL   UNL     1      -5.527  12.127  16.852  0.00  0.00    +0.000 Cl
ATOM     30  C   UNL     1      -3.662  11.851  18.789  0.00  0.00    +0.000 A 
ATOM     31  C   UNL     1      -2.448  11.370  19.299  0.00  0.00    +0.000 A 
ATOM     32 CL   UNL     1      -1.988  11.843  20.895  0.00  0.00    +0.000 Cl
ENDBRANCH  24  25
ENDBRANCH  23  24
ENDBRANCH   3  18
TORSDOF 4
ENDMDL
MODEL 7
REMARK VINA RESULT:      -7.7      2.394      3.528
REMARK  Name = 
REMARK  4 active torsions:
REMARK  status: ('A' for Active; 'I' for Inactive)
REMARK    1  A    between atoms: C_4  and  C_5
REMARK    2  A    between atoms: N_7  and  C_8
REMARK    3  A    between atoms: C_13  and  O_14
REMARK    4  A    between atoms: O_14  and  C_15
REMARK                            x       y       z     vdW  Elec       q    Type
REMARK                         _______ _______ _______ _____ _____    ______ ____
ROOT
ATOM      1  C   UNL     1       2.067   7.892  18.454  0.00  0.00    +0.000 C 
ATOM      2  O   UNL     1       2.168   8.012  19.677  0.00  0.00    +0.000 OA
ATOM      3  N   UNL     1       1.507   8.872  17.641  0.00  0.00    +0.000 N 
ATOM      4  H   UNL     1       1.160   8.614  16.721  0.00  0.00    +0.000 HD
ENDROOT
BRANCH   1   8
ATOM      5  O   UNL     1       1.519   4.733  20.805  0.00  0.00    +0.000 OA
ATOM      6  C   UNL     1       2.229   5.149  19.892  0.00  0.00    +0.000 C 
ATOM      7  C   UNL     1       1.701   5.410  18.496  0.00  0.00    +0.000 C 
ATOM      8  C   UNL     1       2.477   6.552  17.815  0.00  0.00    +0.000 C 
ATOM      9  C   UNL     1       3.951   6.232  17.879  0.00  0.00    +0.000 A 
ATOM     10  C   UNL     1       4.811   6.503  16.809  0.00  0.00    +0.000 A 
ATOM     11  C   UNL     1       6.180   6.287  16.952  0.00  0.00    +0.000 A 
ATOM     12  C   UNL     1       6.680   5.810  18.162  0.00  0.00    +0.000 A 
ATOM     13  F   UNL     1       8.001   5.636  18.302  0.00  0.00    +0.000 F 
ATOM     14  C   UNL     1       5.835   5.494  19.219  0.00  0.00    +0.000 A 
ATOM     15  C   UNL     1       4.465   5.675  19.058  0.00  0.00    +0.000 A 
ATOM     16  N   UNL     1       3.585   5.273  20.066  0.00  0.00    +0.000 N 
ATOM     17  H   UNL     1       3.936   4.950  20.960  0.00  0.00    +0.000 HD
ENDBRANCH   1   8
BRANCH   3  18
ATOM     18  C   UNL     1       1.231  10.211  18.069  0.00  0.00    +0.000 A 
ATOM     19  C   UNL     1       2.267  11.139  18.249  0.00  0.00    +0.000 A 
ATOM     20  C   UNL     1       2.009  12.444  18.670  0.00  0.00    +0.000 A 
ATOM     21  C   UNL     1       0.707  12.799  18.924  0.00  0.00    +0.000 A 
ATOM     22  N   UNL     1      -0.326  11.958  18.752  0.00  0.00    +0.000 NA
ATOM     23  C   UNL     1      -0.068  10.700  18.292  0.00  0.00    +0.000 A 
BRANCH  23  24
ATOM     24  O   UNL     1      -1.170   9.884  18.023  0.00  0.00    +0.000 OA
BRANCH  24  25
ATOM     25  C   UNL     1      -2.387  10.539  17.836  0.00  0.00    +0.000 A 
ATOM     26  C   UNL     1      -2.974  11.281  18.877  0.00  0.00    +0.000 A 
ATOM     27  C   UNL     1      -4.230  11.872  18.711  0.00  0.00    +0.000 A 
ATOM     28  C   UNL     1      -4.878  11.782  17.483  0.00  0.00    +0.000 A 
ATOM     29 CL   UNL     1      -6.424  12.511  17.282  0.00  0.00    +0.000 Cl
ATOM     30  C   UNL     1      -4.282  11.104  16.420  0.00  0.00    +0.000 A 
ATOM     31  C   UNL     1      -3.039  10.482  16.598  0.00  0.00    +0.000 A 
ATOM     32 CL   UNL     1      -2.350   9.636  15.259  0.00  0.00    +0.000 Cl
ENDBRANCH  24  25
ENDBRANCH  23  24
ENDBRANCH   3  18
TORSDOF 4
ENDMDL
MODEL 8
REMARK VINA RESULT:      -7.7      1.013      1.099
REMARK  Name = 
REMARK  4 active torsions:
REMARK  status: ('A' for Active; 'I' for Inactive)
REMARK    1  A    between atoms: C_4  and  C_5
REMARK    2  A    between atoms: N_7  and  C_8
REMARK    3  A    between atoms: C_13  and  O_14
REMARK    4  A    between atoms: O_14  and  C_15
REMARK                            x       y       z     vdW  Elec       q    Type
REMARK                         _______ _______ _______ _____ _____    ______ ____
ROOT
ATOM      1  C   UNL     1       2.252   6.549  19.104  0.00  0.00    +0.000 C 
ATOM      2  O   UNL     1       1.870   5.819  20.021  0.00  0.00    +0.000 OA
ATOM      3  N   UNL     1       1.925   7.900  19.025  0.00  0.00    +0.000 N 
ATOM      4  H   UNL     1       1.983   8.372  18.127  0.00  0.00    +0.000 HD
ENDROOT
BRANCH   1   8
ATOM      5  O   UNL     1       2.885   2.646  19.511  0.00  0.00    +0.000 OA
ATOM      6  C   UNL     1       3.369   3.658  19.009  0.00  0.00    +0.000 C 
ATOM      7  C   UNL     1       2.702   4.409  17.874  0.00  0.00    +0.000 C 
ATOM      8  C   UNL     1       3.030   5.912  17.937  0.00  0.00    +0.000 C 
ATOM      9  C   UNL     1       4.530   6.071  18.001  0.00  0.00    +0.000 A 
ATOM     10  C   UNL     1       5.192   7.091  17.308  0.00  0.00    +0.000 A 
ATOM     11  C   UNL     1       6.565   7.262  17.479  0.00  0.00    +0.000 A 
ATOM     12  C   UNL     1       7.263   6.422  18.343  0.00  0.00    +0.000 A 
ATOM     13  F   UNL     1       8.575   6.615  18.527  0.00  0.00    +0.000 F 
ATOM     14  C   UNL     1       6.627   5.377  19.004  0.00  0.00    +0.000 A 
ATOM     15  C   UNL     1       5.265   5.185  18.801  0.00  0.00    +0.000 A 
ATOM     16  N   UNL     1       4.621   4.085  19.372  0.00  0.00    +0.000 N 
ATOM     17  H   UNL     1       5.110   3.482  20.024  0.00  0.00    +0.000 HD
ENDBRANCH   1   8
BRANCH   3  18
ATOM     18  C   UNL     1       1.349   8.652  20.099  0.00  0.00    +0.000 A 
ATOM     19  C   UNL     1       1.451   8.208  21.426  0.00  0.00    +0.000 A 
ATOM     20  C   UNL     1       0.890   8.930  22.479  0.00  0.00    +0.000 A 
ATOM     21  C   UNL     1       0.214  10.088  22.185  0.00  0.00    +0.000 A 
ATOM     22  N   UNL     1       0.099  10.570  20.936  0.00  0.00    +0.000 NA
ATOM     23  C   UNL     1       0.695   9.882  19.920  0.00  0.00    +0.000 A 
BRANCH  23  24
ATOM     24  O   UNL     1       0.648  10.462  18.649  0.00  0.00    +0.000 OA
BRANCH  24  25
ATOM     25  C   UNL     1       0.869  11.837  18.594  0.00  0.00    +0.000 A 
ATOM     26  C   UNL     1       2.176  12.357  18.578  0.00  0.00    +0.000 A 
ATOM     27  C   UNL     1       2.394  13.738  18.600  0.00  0.00    +0.000 A 
ATOM     28  C   UNL     1       1.309  14.609  18.571  0.00  0.00    +0.000 A 
ATOM     29 CL   UNL     1       1.582  16.308  18.598  0.00  0.00    +0.000 Cl
ATOM     30  C   UNL     1       0.008  14.111  18.522  0.00  0.00    +0.000 A 
ATOM     31  C   UNL     1      -0.211  12.727  18.536  0.00  0.00    +0.000 A 
ATOM     32 CL   UNL     1      -1.841  12.157  18.496  0.00  0.00    +0.000 Cl
ENDBRANCH  24  25
ENDBRANCH  23  24
ENDBRANCH   3  18
TORSDOF 4
ENDMDL
MODEL 9
REMARK VINA RESULT:      -7.7      4.155      8.348
REMARK  Name = 
REMARK  4 active torsions:
REMARK  status: ('A' for Active; 'I' for Inactive)
REMARK    1  A    between atoms: C_4  and  C_5
REMARK    2  A    between atoms: N_7  and  C_8
REMARK    3  A    between atoms: C_13  and  O_14
REMARK    4  A    between atoms: O_14  and  C_15
REMARK                            x       y       z     vdW  Elec       q    Type
REMARK                         _______ _______ _______ _____ _____    ______ ____
ROOT
ATOM      1  C   UNL     1       1.426   8.757  19.221  0.00  0.00    +0.000 C 
ATOM      2  O   UNL     1       1.096   8.798  20.408  0.00  0.00    +0.000 OA
ATOM      3  N   UNL     1       2.185   7.722  18.682  0.00  0.00    +0.000 N 
ATOM      4  H   UNL     1       2.690   7.878  17.814  0.00  0.00    +0.000 HD
ENDROOT
BRANCH   1   8
ATOM      5  O   UNL     1       1.792  12.287  21.011  0.00  0.00    +0.000 OA
ATOM      6  C   UNL     1       1.159  11.709  20.131  0.00  0.00    +0.000 C 
ATOM      7  C   UNL     1       1.800  11.210  18.852  0.00  0.00    +0.000 C 
ATOM      8  C   UNL     1       1.077   9.957  18.322  0.00  0.00    +0.000 C 
ATOM      9  C   UNL     1      -0.395  10.269  18.207  0.00  0.00    +0.000 A 
ATOM     10  C   UNL     1      -1.165   9.804  17.134  0.00  0.00    +0.000 A 
ATOM     11  C   UNL     1      -2.540  10.029  17.123  0.00  0.00    +0.000 A 
ATOM     12  C   UNL     1      -3.137  10.707  18.183  0.00  0.00    +0.000 A 
ATOM     13  F   UNL     1      -4.463  10.890  18.180  0.00  0.00    +0.000 F 
ATOM     14  C   UNL     1      -2.380  11.214  19.234  0.00  0.00    +0.000 A 
ATOM     15  C   UNL     1      -1.003  11.022  19.222  0.00  0.00    +0.000 A 
ATOM     16  N   UNL     1      -0.208  11.604  20.211  0.00  0.00    +0.000 N 
ATOM     17  H   UNL     1      -0.630  12.077  21.001  0.00  0.00    +0.000 HD
ENDBRANCH   1   8
BRANCH   3  18
ATOM     18  C   UNL     1       2.444   6.482  19.351  0.00  0.00    +0.000 A 
ATOM     19  C   UNL     1       1.412   5.774  19.983  0.00  0.00    +0.000 A 
ATOM     20  C   UNL     1       1.654   4.568  20.641  0.00  0.00    +0.000 A 
ATOM     21  C   UNL     1       2.941   4.093  20.671  0.00  0.00    +0.000 A 
ATOM     22  N   UNL     1       3.966   4.719  20.069  0.00  0.00    +0.000 NA
ATOM     23  C   UNL     1       3.709   5.871  19.386  0.00  0.00    +0.000 A 
BRANCH  23  24
ATOM     24  O   UNL     1       4.774   6.442  18.683  0.00  0.00    +0.000 OA
BRANCH  24  25
ATOM     25  C   UNL     1       5.131   5.812  17.492  0.00  0.00    +0.000 A 
ATOM     26  C   UNL     1       4.270   4.883  16.881  0.00  0.00    +0.000 A 
ATOM     27  C   UNL     1       4.664   4.197  15.729  0.00  0.00    +0.000 A 
ATOM     28  C   UNL     1       5.893   4.481  15.142  0.00  0.00    +0.000 A 
ATOM     29 CL   UNL     1       6.375   3.634  13.724  0.00  0.00    +0.000 Cl
ATOM     30  C   UNL     1       6.733   5.444  15.699  0.00  0.00    +0.000 A 
ATOM     31  C   UNL     1       6.353   6.106  16.875  0.00  0.00    +0.000 A 
ATOM     32 CL   UNL     1       7.436   7.276  17.539  0.00  0.00    +0.000 Cl
ENDBRANCH  24  25
ENDBRANCH  23  24
ENDBRANCH   3  18
TORSDOF 4
ENDMDL
