MODEL 1
REMARK VINA RESULT:      -8.7      0.000      0.000
REMARK  Name = 
REMARK  4 active torsions:
REMARK  status: ('A' for Active; 'I' for Inactive)
REMARK    1  A    between atoms: C_2  and  C_4
REMARK    2  A    between atoms: C_8  and  C_9
REMARK    3  A    between atoms: C_9  and  N_10
REMARK    4  A    between atoms: C_11  and  C_13
REMARK                            x       y       z     vdW  Elec       q    Type
REMARK                         _______ _______ _______ _____ _____    ______ ____
ROOT
ATOM      1  N   UNL     1      -0.428  10.007  18.990  0.00  0.00    +0.000 N 
ATOM      2  C   UNL     1       0.718   9.925  19.756  0.00  0.00    +0.000 C 
ATOM      3  O   UNL     1       1.043  10.817  20.532  0.00  0.00    +0.000 OA
ATOM      4  H   UNL     1      -0.719   9.173  18.496  0.00  0.00    +0.000 HD
ENDROOT
BRANCH   2   5
ATOM      5  C   UNL     1       1.482   8.694  19.599  0.00  0.00    +0.000 A 
ATOM      6  C   UNL     1       1.562   7.628  20.480  0.00  0.00    +0.000 A 
ATOM      7  C   UNL     1       2.304   6.527  19.942  0.00  0.00    +0.000 A 
ATOM      8  C   UNL     1       2.852   6.847  18.713  0.00  0.00    +0.000 A 
ATOM      9  S   UNL     1       2.425   8.407  18.198  0.00  0.00    +0.000 S 
ATOM     10  C   UNL     1       3.590   5.911  17.863  0.00  0.00    +0.000 A 
ATOM     11  C   UNL     1       4.571   6.339  16.959  0.00  0.00    +0.000 A 
ATOM     12  C   UNL     1       5.185   5.418  16.126  0.00  0.00    +0.000 A 
ATOM     13  F   UNL     1       6.139   5.831  15.280  0.00  0.00    +0.000 F 
ATOM     14  C   UNL     1       4.825   4.075  16.145  0.00  0.00    +0.000 A 
ATOM     15  C   UNL     1       3.874   3.628  17.066  0.00  0.00    +0.000 A 
ATOM     16  C   UNL     1       3.294   4.531  17.962  0.00  0.00    +0.000 A 
ATOM     17  S   UNL     1       2.200   3.885  19.244  0.00  0.00    +0.000 S 
ATOM     18  C   UNL     1       2.485   5.167  20.537  0.00  0.00    +0.000 C 
ENDBRANCH   2   5
BRANCH   1  19
ATOM     19  C   UNL     1      -1.378  11.079  19.138  0.00  0.00    +0.000 C 
BRANCH  19  24
ATOM     20  C   UNL     1      -4.656  11.568  17.227  0.00  0.00    +0.000 A 
ATOM     21  C   UNL     1      -4.308  11.067  15.969  0.00  0.00    +0.000 A 
ATOM     22  C   UNL     1      -3.043  10.514  15.762  0.00  0.00    +0.000 A 
ATOM     23  C   UNL     1      -2.113  10.488  16.802  0.00  0.00    +0.000 A 
ATOM     24  C   UNL     1      -2.424  11.035  18.054  0.00  0.00    +0.000 A 
ATOM     25  C   UNL     1      -3.713  11.548  18.268  0.00  0.00    +0.000 A 
BRANCH  20  27
ATOM     26  N   UNL     1      -6.151  13.501  17.210  0.00  0.00    +0.000 N 
ATOM     27  C   UNL     1      -5.989  12.169  17.491  0.00  0.00    +0.000 C 
ATOM     28  O   UNL     1      -6.923  11.501  17.910  0.00  0.00    +0.000 OA
ATOM     29  H   UNL     1      -7.087  13.869  17.313  0.00  0.00    +0.000 HD
ATOM     30  H   UNL     1      -5.497  14.024  16.648  0.00  0.00    +0.000 HD
ENDBRANCH  20  27
ENDBRANCH  19  24
ENDBRANCH   1  19
TORSDOF 4
ENDMDL
MODEL 2
REMARK VINA RESULT:      -8.6      1.657      2.037
REMARK  Name = 
REMARK  4 active torsions:
REMARK  status: ('A' for Active; 'I' for Inactive)
REMARK    1  A    between atoms: C_2  and  C_4
REMARK    2  A    between atoms: C_8  and  C_9
REMARK    3  A    between atoms: C_9  and  N_10
REMARK    4  A    between atoms: C_11  and  C_13
REMARK                            x       y       z     vdW  Elec       q    Type
REMARK                         _______ _______ _______ _____ _____    ______ ____
ROOT
ATOM      1  N   UNL     1       0.061  10.762  18.503  0.00  0.00    +0.000 N 
ATOM      2  C   UNL     1       0.672  10.331  19.664  0.00  0.00    +0.000 C 
ATOM      3  O   UNL     1       0.602  10.972  20.708  0.00  0.00    +0.000 OA
ATOM      4  H   UNL     1       0.022  10.112  17.729  0.00  0.00    +0.000 HD
ENDROOT
BRANCH   2   5
ATOM      5  C   UNL     1       1.366   9.054  19.563  0.00  0.00    +0.000 A 
ATOM      6  C   UNL     1       1.355   8.009  20.471  0.00  0.00    +0.000 A 
ATOM      7  C   UNL     1       2.046   6.853  19.985  0.00  0.00    +0.000 A 
ATOM      8  C   UNL     1       2.650   7.107  18.767  0.00  0.00    +0.000 A 
ATOM      9  S   UNL     1       2.332   8.675  18.200  0.00  0.00    +0.000 S 
ATOM     10  C   UNL     1       3.356   6.107  17.964  0.00  0.00    +0.000 A 
ATOM     11  C   UNL     1       4.387   6.451  17.081  0.00  0.00    +0.000 A 
ATOM     12  C   UNL     1       4.970   5.474  16.292  0.00  0.00    +0.000 A 
ATOM     13  F   UNL     1       5.972   5.808  15.467  0.00  0.00    +0.000 F 
ATOM     14  C   UNL     1       4.530   4.156  16.332  0.00  0.00    +0.000 A 
ATOM     15  C   UNL     1       3.528   3.790  17.234  0.00  0.00    +0.000 A 
ATOM     16  C   UNL     1       2.975   4.749  18.088  0.00  0.00    +0.000 A 
ATOM     17  S   UNL     1       1.806   4.204  19.351  0.00  0.00    +0.000 S 
ATOM     18  C   UNL     1       2.128   5.500  20.620  0.00  0.00    +0.000 C 
ENDBRANCH   2   5
BRANCH   1  19
ATOM     19  C   UNL     1      -0.796  11.919  18.468  0.00  0.00    +0.000 C 
BRANCH  19  24
ATOM     20  C   UNL     1      -3.432  10.733  15.961  0.00  0.00    +0.000 A 
ATOM     21  C   UNL     1      -4.601  10.872  16.718  0.00  0.00    +0.000 A 
ATOM     22  C   UNL     1      -4.540  11.408  18.005  0.00  0.00    +0.000 A 
ATOM     23  C   UNL     1      -3.310  11.779  18.551  0.00  0.00    +0.000 A 
ATOM     24  C   UNL     1      -2.123  11.596  17.829  0.00  0.00    +0.000 A 
ATOM     25  C   UNL     1      -2.196  11.099  16.519  0.00  0.00    +0.000 A 
BRANCH  20  27
ATOM     26  N   UNL     1      -4.671   9.916  14.020  0.00  0.00    +0.000 N 
ATOM     27  C   UNL     1      -3.449  10.163  14.589  0.00  0.00    +0.000 C 
ATOM     28  O   UNL     1      -2.417   9.950  13.970  0.00  0.00    +0.000 OA
ATOM     29  H   UNL     1      -4.662   9.612  13.056  0.00  0.00    +0.000 HD
ATOM     30  H   UNL     1      -5.531  10.293  14.388  0.00  0.00    +0.000 HD
ENDBRANCH  20  27
ENDBRANCH  19  24
ENDBRANCH   1  19
TORSDOF 4
ENDMDL
MODEL 3
REMARK VINA RESULT:      -8.6      5.428      9.784
REMARK  Name = 
REMARK  4 active torsions:
REMARK  status: ('A' for Active; 'I' for Inactive)
REMARK    1  A    between atoms: C_2  and  C_4
REMARK    2  A    between atoms: C_8  and  C_9
REMARK    3  A    between atoms: C_9  and  N_10
REMARK    4  A    between atoms: C_11  and  C_13
REMARK                            x       y       z     vdW  Elec       q    Type
REMARK                         _______ _______ _______ _____ _____    ______ ____
ROOT
ATOM      1  N   UNL     1       4.446   4.995  17.185  0.00  0.00    +0.000 N 
ATOM      2  C   UNL     1       3.556   4.981  18.241  0.00  0.00    +0.000 C 
ATOM      3  O   UNL     1       3.271   3.946  18.833  0.00  0.00    +0.000 OA
ATOM      4  H   UNL     1       4.757   5.898  16.849  0.00  0.00    +0.000 HD
ENDROOT
BRANCH   2   5
ATOM      5  C   UNL     1       3.016   6.282  18.614  0.00  0.00    +0.000 A 
ATOM      6  C   UNL     1       3.005   7.444  17.860  0.00  0.00    +0.000 A 
ATOM      7  C   UNL     1       2.275   8.501  18.492  0.00  0.00    +0.000 A 
ATOM      8  C   UNL     1       1.852   8.130  19.755  0.00  0.00    +0.000 A 
ATOM      9  S   UNL     1       2.269   6.530  20.136  0.00  0.00    +0.000 S 
ATOM     10  C   UNL     1       1.006   8.951  20.624  0.00  0.00    +0.000 A 
ATOM     11  C   UNL     1       1.047   8.848  22.019  0.00  0.00    +0.000 A 
ATOM     12  C   UNL     1       0.171   9.596  22.789  0.00  0.00    +0.000 A 
ATOM     13  F   UNL     1       0.233   9.509  24.125  0.00  0.00    +0.000 F 
ATOM     14  C   UNL     1      -0.776  10.428  22.202  0.00  0.00    +0.000 A 
ATOM     15  C   UNL     1      -0.804  10.569  20.812  0.00  0.00    +0.000 A 
ATOM     16  C   UNL     1       0.117   9.875  20.023  0.00  0.00    +0.000 A 
ATOM     17  S   UNL     1       0.157  10.214  18.250  0.00  0.00    +0.000 S 
ATOM     18  C   UNL     1       1.933   9.843  17.926  0.00  0.00    +0.000 C 
ENDBRANCH   2   5
BRANCH   1  19
ATOM     19  C   UNL     1       5.190   3.827  16.790  0.00  0.00    +0.000 C 
BRANCH  19  24
ATOM     20  C   UNL     1       5.891   3.602  13.035  0.00  0.00    +0.000 A 
ATOM     21  C   UNL     1       6.954   4.503  12.908  0.00  0.00    +0.000 A 
ATOM     22  C   UNL     1       7.480   5.126  14.041  0.00  0.00    +0.000 A 
ATOM     23  C   UNL     1       6.929   4.874  15.298  0.00  0.00    +0.000 A 
ATOM     24  C   UNL     1       5.829   4.017  15.438  0.00  0.00    +0.000 A 
ATOM     25  C   UNL     1       5.333   3.360  14.301  0.00  0.00    +0.000 A 
BRANCH  20  27
ATOM     26  N   UNL     1       5.984   1.863  11.321  0.00  0.00    +0.000 N 
ATOM     27  C   UNL     1       5.296   2.920  11.857  0.00  0.00    +0.000 C 
ATOM     28  O   UNL     1       4.216   3.261  11.397  0.00  0.00    +0.000 OA
ATOM     29  H   UNL     1       5.521   1.360  10.577  0.00  0.00    +0.000 HD
ATOM     30  H   UNL     1       6.741   1.403  11.803  0.00  0.00    +0.000 HD
ENDBRANCH  20  27
ENDBRANCH  19  24
ENDBRANCH   1  19
TORSDOF 4
ENDMDL
MODEL 4
REMARK VINA RESULT:      -8.2      2.677      3.805
REMARK  Name = 
REMARK  4 active torsions:
REMARK  status: ('A' for Active; 'I' for Inactive)
REMARK    1  A    between atoms: C_2  and  C_4
REMARK    2  A    between atoms: C_8  and  C_9
REMARK    3  A    between atoms: C_9  and  N_10
REMARK    4  A    between atoms: C_11  and  C_13
REMARK                            x       y       z     vdW  Elec       q    Type
REMARK                         _______ _______ _______ _____ _____    ______ ____
ROOT
ATOM      1  N   UNL     1       1.050  10.081  19.490  0.00  0.00    +0.000 N 
ATOM      2  C   UNL     1       1.899   9.654  18.489  0.00  0.00    +0.000 C 
ATOM      3  O   UNL     1       2.376  10.433  17.670  0.00  0.00    +0.000 OA
ATOM      4  H   UNL     1       0.824   9.420  20.223  0.00  0.00    +0.000 HD
ENDROOT
BRANCH   2   5
ATOM      5  C   UNL     1       2.210   8.231  18.504  0.00  0.00    +0.000 A 
ATOM      6  C   UNL     1       2.903   7.504  17.550  0.00  0.00    +0.000 A 
ATOM      7  C   UNL     1       3.137   6.151  17.955  0.00  0.00    +0.000 A 
ATOM      8  C   UNL     1       2.514   5.874  19.158  0.00  0.00    +0.000 A 
ATOM      9  S   UNL     1       1.727   7.230  19.808  0.00  0.00    +0.000 S 
ATOM     10  C   UNL     1       2.633   4.609  19.885  0.00  0.00    +0.000 A 
ATOM     11  C   UNL     1       1.627   4.142  20.740  0.00  0.00    +0.000 A 
ATOM     12  C   UNL     1       1.826   2.975  21.460  0.00  0.00    +0.000 A 
ATOM     13  F   UNL     1       0.848   2.522  22.258  0.00  0.00    +0.000 F 
ATOM     14  C   UNL     1       3.021   2.270  21.377  0.00  0.00    +0.000 A 
ATOM     15  C   UNL     1       4.019   2.704  20.501  0.00  0.00    +0.000 A 
ATOM     16  C   UNL     1       3.810   3.841  19.715  0.00  0.00    +0.000 A 
ATOM     17  S   UNL     1       5.052   4.270  18.477  0.00  0.00    +0.000 S 
ATOM     18  C   UNL     1       3.961   5.115  17.256  0.00  0.00    +0.000 C 
ENDBRANCH   2   5
BRANCH   1  19
ATOM     19  C   UNL     1       0.765  11.474  19.716  0.00  0.00    +0.000 C 
BRANCH  19  24
ATOM     20  C   UNL     1      -2.738  11.684  18.190  0.00  0.00    +0.000 A 
ATOM     21  C   UNL     1      -3.467  12.199  19.267  0.00  0.00    +0.000 A 
ATOM     22  C   UNL     1      -2.815  12.538  20.454  0.00  0.00    +0.000 A 
ATOM     23  C   UNL     1      -1.440  12.335  20.580  0.00  0.00    +0.000 A 
ATOM     24  C   UNL     1      -0.702  11.769  19.532  0.00  0.00    +0.000 A 
ATOM     25  C   UNL     1      -1.356  11.473  18.325  0.00  0.00    +0.000 A 
BRANCH  20  27
ATOM     26  N   UNL     1      -2.607  11.264  15.787  0.00  0.00    +0.000 N 
ATOM     27  C   UNL     1      -3.391  11.305  16.911  0.00  0.00    +0.000 C 
ATOM     28  O   UNL     1      -4.574  11.007  16.858  0.00  0.00    +0.000 OA
ATOM     29  H   UNL     1      -3.050  10.920  14.946  0.00  0.00    +0.000 HD
ATOM     30  H   UNL     1      -1.599  11.266  15.823  0.00  0.00    +0.000 HD
ENDBRANCH  20  27
ENDBRANCH  19  24
ENDBRANCH   1  19
TORSDOF 4
ENDMDL
MODEL 5
REMARK VINA RESULT:      -8.0      2.955      3.520
REMARK  Name = 
REMARK  4 active torsions:
REMARK  status: ('A' for Active; 'I' for Inactive)
REMARK    1  A    between atoms: C_2  and  C_4
REMARK    2  A    between atoms: C_8  and  C_9
REMARK    3  A    between atoms: C_9  and  N_10
REMARK    4  A    between atoms: C_11  and  C_13
REMARK                            x       y       z     vdW  Elec       q    Type
REMARK                         _______ _______ _______ _____ _____    ______ ____
ROOT
ATOM      1  N   UNL     1       0.517  11.073  20.878  0.00  0.00    +0.000 N 
ATOM      2  C   UNL     1       0.756  10.566  19.615  0.00  0.00    +0.000 C 
ATOM      3  O   UNL     1       0.496  11.207  18.602  0.00  0.00    +0.000 OA
ATOM      4  H   UNL     1       0.901  10.564  21.664  0.00  0.00    +0.000 HD
ENDROOT
BRANCH   2   5
ATOM      5  C   UNL     1       1.367   9.244  19.582  0.00  0.00    +0.000 A 
ATOM      6  C   UNL     1       1.273   8.243  20.535  0.00  0.00    +0.000 A 
ATOM      7  C   UNL     1       1.895   7.024  20.112  0.00  0.00    +0.000 A 
ATOM      8  C   UNL     1       2.534   7.185  18.896  0.00  0.00    +0.000 A 
ATOM      9  S   UNL     1       2.328   8.743  18.256  0.00  0.00    +0.000 S 
ATOM     10  C   UNL     1       3.187   6.107  18.151  0.00  0.00    +0.000 A 
ATOM     11  C   UNL     1       4.253   6.345  17.274  0.00  0.00    +0.000 A 
ATOM     12  C   UNL     1       4.784   5.298  16.539  0.00  0.00    +0.000 A 
ATOM     13  F   UNL     1       5.819   5.530  15.720  0.00  0.00    +0.000 F 
ATOM     14  C   UNL     1       4.258   4.014  16.628  0.00  0.00    +0.000 A 
ATOM     15  C   UNL     1       3.219   3.754  17.525  0.00  0.00    +0.000 A 
ATOM     16  C   UNL     1       2.716   4.784  18.325  0.00  0.00    +0.000 A 
ATOM     17  S   UNL     1       1.493   4.371  19.588  0.00  0.00    +0.000 S 
ATOM     18  C   UNL     1       1.878   5.699  20.806  0.00  0.00    +0.000 C 
ENDBRANCH   2   5
BRANCH   1  19
ATOM     19  C   UNL     1       0.067  12.424  21.093  0.00  0.00    +0.000 C 
BRANCH  19  24
ATOM     20  C   UNL     1      -3.369  12.615  22.765  0.00  0.00    +0.000 A 
ATOM     21  C   UNL     1      -4.204  12.714  21.647  0.00  0.00    +0.000 A 
ATOM     22  C   UNL     1      -3.662  12.652  20.362  0.00  0.00    +0.000 A 
ATOM     23  C   UNL     1      -2.283  12.520  20.190  0.00  0.00    +0.000 A 
ATOM     24  C   UNL     1      -1.426  12.475  21.298  0.00  0.00    +0.000 A 
ATOM     25  C   UNL     1      -1.981  12.493  22.587  0.00  0.00    +0.000 A 
BRANCH  20  27
ATOM     26  N   UNL     1      -3.878  13.899  24.781  0.00  0.00    +0.000 N 
ATOM     27  C   UNL     1      -3.902  12.683  24.150  0.00  0.00    +0.000 C 
ATOM     28  O   UNL     1      -4.379  11.702  24.702  0.00  0.00    +0.000 OA
ATOM     29  H   UNL     1      -4.324  13.942  25.687  0.00  0.00    +0.000 HD
ATOM     30  H   UNL     1      -3.721  14.766  24.290  0.00  0.00    +0.000 HD
ENDBRANCH  20  27
ENDBRANCH  19  24
ENDBRANCH   1  19
TORSDOF 4
ENDMDL
MODEL 6
REMARK VINA RESULT:      -8.0      1.564      2.092
REMARK  Name = 
REMARK  4 active torsions:
REMARK  status: ('A' for Active; 'I' for Inactive)
REMARK    1  A    between atoms: C_2  and  C_4
REMARK    2  A    between atoms: C_8  and  C_9
REMARK    3  A    between atoms: C_9  and  N_10
REMARK    4  A    between atoms: C_11  and  C_13
REMARK                            x       y       z     vdW  Elec       q    Type
REMARK                         _______ _______ _______ _____ _____    ______ ____
ROOT
ATOM      1  N   UNL     1       0.778  10.889  19.602  0.00  0.00    +0.000 N 
ATOM      2  C   UNL     1       0.594   9.900  20.548  0.00  0.00    +0.000 C 
ATOM      3  O   UNL     1      -0.116  10.072  21.533  0.00  0.00    +0.000 OA
ATOM      4  H   UNL     1       1.241  10.629  18.741  0.00  0.00    +0.000 HD
ENDROOT
BRANCH   2   5
ATOM      5  C   UNL     1       1.273   8.641  20.270  0.00  0.00    +0.000 A 
ATOM      6  C   UNL     1       1.268   7.488  21.036  0.00  0.00    +0.000 A 
ATOM      7  C   UNL     1       1.937   6.398  20.392  0.00  0.00    +0.000 A 
ATOM      8  C   UNL     1       2.520   6.802  19.205  0.00  0.00    +0.000 A 
ATOM      9  S   UNL     1       2.209   8.432  18.850  0.00  0.00    +0.000 S 
ATOM     10  C   UNL     1       3.201   5.908  18.266  0.00  0.00    +0.000 A 
ATOM     11  C   UNL     1       4.219   6.355  17.415  0.00  0.00    +0.000 A 
ATOM     12  C   UNL     1       4.776   5.483  16.494  0.00  0.00    +0.000 A 
ATOM     13  F   UNL     1       5.767   5.912  15.699  0.00  0.00    +0.000 F 
ATOM     14  C   UNL     1       4.323   4.174  16.374  0.00  0.00    +0.000 A 
ATOM     15  C   UNL     1       3.334   3.703  17.241  0.00  0.00    +0.000 A 
ATOM     16  C   UNL     1       2.807   4.549  18.221  0.00  0.00    +0.000 A 
ATOM     17  S   UNL     1       1.656   3.855  19.426  0.00  0.00    +0.000 S 
ATOM     18  C   UNL     1       2.016   4.974  20.845  0.00  0.00    +0.000 C 
ENDBRANCH   2   5
BRANCH   1  19
ATOM     19  C   UNL     1       0.057  12.135  19.640  0.00  0.00    +0.000 C 
BRANCH  19  24
ATOM     20  C   UNL     1      -2.931  11.135  17.469  0.00  0.00    +0.000 A 
ATOM     21  C   UNL     1      -3.997  11.539  18.281  0.00  0.00    +0.000 A 
ATOM     22  C   UNL     1      -3.746  12.190  19.490  0.00  0.00    +0.000 A 
ATOM     23  C   UNL     1      -2.433  12.412  19.906  0.00  0.00    +0.000 A 
ATOM     24  C   UNL     1      -1.353  11.966  19.133  0.00  0.00    +0.000 A 
ATOM     25  C   UNL     1      -1.611  11.353  17.897  0.00  0.00    +0.000 A 
BRANCH  20  27
ATOM     26  N   UNL     1      -4.299  10.722  15.487  0.00  0.00    +0.000 N 
ATOM     27  C   UNL     1      -3.150  10.435  16.177  0.00  0.00    +0.000 C 
ATOM     28  O   UNL     1      -2.326   9.656  15.722  0.00  0.00    +0.000 OA
ATOM     29  H   UNL     1      -4.387  10.302  14.572  0.00  0.00    +0.000 HD
ATOM     30  H   UNL     1      -4.879  11.519  15.700  0.00  0.00    +0.000 HD
ENDBRANCH  20  27
ENDBRANCH  19  24
ENDBRANCH   1  19
TORSDOF 4
ENDMDL
MODEL 7
REMARK VINA RESULT:      -8.0      2.503      3.515
REMARK  Name = 
REMARK  4 active torsions:
REMARK  status: ('A' for Active; 'I' for Inactive)
REMARK    1  A    between atoms: C_2  and  C_4
REMARK    2  A    between atoms: C_8  and  C_9
REMARK    3  A    between atoms: C_9  and  N_10
REMARK    4  A    between atoms: C_11  and  C_13
REMARK                            x       y       z     vdW  Elec       q    Type
REMARK                         _______ _______ _______ _____ _____    ______ ____
ROOT
ATOM      1  N   UNL     1       0.782  11.119  18.786  0.00  0.00    +0.000 N 
ATOM      2  C   UNL     1       1.125  10.333  19.868  0.00  0.00    +0.000 C 
ATOM      3  O   UNL     1       1.046  10.747  21.020  0.00  0.00    +0.000 OA
ATOM      4  H   UNL     1       0.717  10.667  17.883  0.00  0.00    +0.000 HD
ENDROOT
BRANCH   2   5
ATOM      5  C   UNL     1       1.547   8.977  19.541  0.00  0.00    +0.000 A 
ATOM      6  C   UNL     1       2.204   8.546  18.401  0.00  0.00    +0.000 A 
ATOM      7  C   UNL     1       2.580   7.166  18.473  0.00  0.00    +0.000 A 
ATOM      8  C   UNL     1       2.092   6.575  19.625  0.00  0.00    +0.000 A 
ATOM      9  S   UNL     1       1.264   7.675  20.618  0.00  0.00    +0.000 S 
ATOM     10  C   UNL     1       2.376   5.200  20.039  0.00  0.00    +0.000 A 
ATOM     11  C   UNL     1       1.492   4.463  20.837  0.00  0.00    +0.000 A 
ATOM     12  C   UNL     1       1.846   3.193  21.260  0.00  0.00    +0.000 A 
ATOM     13  F   UNL     1       0.984   2.485  22.004  0.00  0.00    +0.000 F 
ATOM     14  C   UNL     1       3.081   2.641  20.936  0.00  0.00    +0.000 A 
ATOM     15  C   UNL     1       3.958   3.350  20.110  0.00  0.00    +0.000 A 
ATOM     16  C   UNL     1       3.589   4.605  19.617  0.00  0.00    +0.000 A 
ATOM     17  S   UNL     1       4.676   5.411  18.422  0.00  0.00    +0.000 S 
ATOM     18  C   UNL     1       3.415   6.392  17.503  0.00  0.00    +0.000 C 
ENDBRANCH   2   5
BRANCH   1  19
ATOM     19  C   UNL     1       0.196  12.426  18.939  0.00  0.00    +0.000 C 
BRANCH  19  24
ATOM     20  C   UNL     1      -3.445  11.693  18.020  0.00  0.00    +0.000 A 
ATOM     21  C   UNL     1      -4.099  12.081  19.194  0.00  0.00    +0.000 A 
ATOM     22  C   UNL     1      -3.372  12.637  20.248  0.00  0.00    +0.000 A 
ATOM     23  C   UNL     1      -1.988  12.780  20.144  0.00  0.00    +0.000 A 
ATOM     24  C   UNL     1      -1.308  12.346  18.998  0.00  0.00    +0.000 A 
ATOM     25  C   UNL     1      -2.050  11.829  17.924  0.00  0.00    +0.000 A 
BRANCH  20  27
ATOM     26  N   UNL     1      -5.514  11.372  16.759  0.00  0.00    +0.000 N 
ATOM     27  C   UNL     1      -4.178  11.091  16.875  0.00  0.00    +0.000 C 
ATOM     28  O   UNL     1      -3.611  10.398  16.044  0.00  0.00    +0.000 OA
ATOM     29  H   UNL     1      -5.973  11.026  15.928  0.00  0.00    +0.000 HD
ATOM     30  H   UNL     1      -5.962  12.117  17.271  0.00  0.00    +0.000 HD
ENDBRANCH  20  27
ENDBRANCH  19  24
ENDBRANCH   1  19
TORSDOF 4
ENDMDL
MODEL 8
REMARK VINA RESULT:      -8.0      4.996      9.850
REMARK  Name = 
REMARK  4 active torsions:
REMARK  status: ('A' for Active; 'I' for Inactive)
REMARK    1  A    between atoms: C_2  and  C_4
REMARK    2  A    between atoms: C_8  and  C_9
REMARK    3  A    between atoms: C_9  and  N_10
REMARK    4  A    between atoms: C_11  and  C_13
REMARK                            x       y       z     vdW  Elec       q    Type
REMARK                         _______ _______ _______ _____ _____    ______ ____
ROOT
ATOM      1  N   UNL     1       2.459   5.737  18.754  0.00  0.00    +0.000 N 
ATOM      2  C   UNL     1       2.147   6.249  19.998  0.00  0.00    +0.000 C 
ATOM      3  O   UNL     1       2.307   5.597  21.024  0.00  0.00    +0.000 OA
ATOM      4  H   UNL     1       2.456   6.378  17.971  0.00  0.00    +0.000 HD
ENDROOT
BRANCH   2   5
ATOM      5  C   UNL     1       1.654   7.620  19.998  0.00  0.00    +0.000 A 
ATOM      6  C   UNL     1       1.908   8.613  19.066  0.00  0.00    +0.000 A 
ATOM      7  C   UNL     1       1.152   9.803  19.313  0.00  0.00    +0.000 A 
ATOM      8  C   UNL     1       0.435   9.704  20.491  0.00  0.00    +0.000 A 
ATOM      9  S   UNL     1       0.620   8.191  21.238  0.00  0.00    +0.000 S 
ATOM     10  C   UNL     1      -0.505  10.715  20.981  0.00  0.00    +0.000 A 
ATOM     11  C   UNL     1      -0.776  10.883  22.344  0.00  0.00    +0.000 A 
ATOM     12  C   UNL     1      -1.730  11.804  22.745  0.00  0.00    +0.000 A 
ATOM     13  F   UNL     1      -1.967  11.976  24.054  0.00  0.00    +0.000 F 
ATOM     14  C   UNL     1      -2.451  12.547  21.818  0.00  0.00    +0.000 A 
ATOM     15  C   UNL     1      -2.165  12.417  20.456  0.00  0.00    +0.000 A 
ATOM     16  C   UNL     1      -1.158  11.542  20.037  0.00  0.00    +0.000 A 
ATOM     17  S   UNL     1      -0.706  11.528  18.289  0.00  0.00    +0.000 S 
ATOM     18  C   UNL     1       1.059  11.024  18.453  0.00  0.00    +0.000 C 
ENDBRANCH   2   5
BRANCH   1  19
ATOM     19  C   UNL     1       3.104   4.460  18.587  0.00  0.00    +0.000 C 
BRANCH  19  24
ATOM     20  C   UNL     1       6.800   5.370  18.196  0.00  0.00    +0.000 A 
ATOM     21  C   UNL     1       7.092   4.773  16.965  0.00  0.00    +0.000 A 
ATOM     22  C   UNL     1       6.082   4.139  16.239  0.00  0.00    +0.000 A 
ATOM     23  C   UNL     1       4.787   4.073  16.752  0.00  0.00    +0.000 A 
ATOM     24  C   UNL     1       4.487   4.618  18.008  0.00  0.00    +0.000 A 
ATOM     25  C   UNL     1       5.496   5.293  18.713  0.00  0.00    +0.000 A 
BRANCH  20  27
ATOM     26  N   UNL     1       8.306   5.400  20.120  0.00  0.00    +0.000 N 
ATOM     27  C   UNL     1       7.843   6.050  19.005  0.00  0.00    +0.000 C 
ATOM     28  O   UNL     1       8.303   7.134  18.679  0.00  0.00    +0.000 OA
ATOM     29  H   UNL     1       9.076   5.839  20.606  0.00  0.00    +0.000 HD
ATOM     30  H   UNL     1       8.136   4.421  20.291  0.00  0.00    +0.000 HD
ENDBRANCH  20  27
ENDBRANCH  19  24
ENDBRANCH   1  19
TORSDOF 4
ENDMDL
MODEL 9
REMARK VINA RESULT:      -7.9      2.322      3.029
REMARK  Name = 
REMARK  4 active torsions:
REMARK  status: ('A' for Active; 'I' for Inactive)
REMARK    1  A    between atoms: C_2  and  C_4
REMARK    2  A    between atoms: C_8  and  C_9
REMARK    3  A    between atoms: C_9  and  N_10
REMARK    4  A    between atoms: C_11  and  C_13
REMARK                            x       y       z     vdW  Elec       q    Type
REMARK                         _______ _______ _______ _____ _____    ______ ____
ROOT
ATOM      1  N   UNL     1       0.711  11.246  20.269  0.00  0.00    +0.000 N 
ATOM      2  C   UNL     1       0.438  10.370  19.237  0.00  0.00    +0.000 C 
ATOM      3  O   UNL     1      -0.384  10.632  18.366  0.00  0.00    +0.000 OA
ATOM      4  H   UNL     1       1.509  11.040  20.856  0.00  0.00    +0.000 HD
ENDROOT
BRANCH   2   5
ATOM      5  C   UNL     1       1.221   9.140  19.244  0.00  0.00    +0.000 A 
ATOM      6  C   UNL     1       1.278   8.178  20.238  0.00  0.00    +0.000 A 
ATOM      7  C   UNL     1       2.051   7.036  19.851  0.00  0.00    +0.000 A 
ATOM      8  C   UNL     1       2.642   7.228  18.616  0.00  0.00    +0.000 A 
ATOM      9  S   UNL     1       2.218   8.716  17.918  0.00  0.00    +0.000 S 
ATOM     10  C   UNL     1       3.421   6.216  17.900  0.00  0.00    +0.000 A 
ATOM     11  C   UNL     1       4.431   6.556  16.991  0.00  0.00    +0.000 A 
ATOM     12  C   UNL     1       5.085   5.559  16.287  0.00  0.00    +0.000 A 
ATOM     13  F   UNL     1       6.066   5.892  15.436  0.00  0.00    +0.000 F 
ATOM     14  C   UNL     1       4.739   4.221  16.440  0.00  0.00    +0.000 A 
ATOM     15  C   UNL     1       3.759   3.863  17.369  0.00  0.00    +0.000 A 
ATOM     16  C   UNL     1       3.136   4.850  18.139  0.00  0.00    +0.000 A 
ATOM     17  S   UNL     1       2.001   4.333  19.444  0.00  0.00    +0.000 S 
ATOM     18  C   UNL     1       2.224   5.751  20.598  0.00  0.00    +0.000 C 
ENDBRANCH   2   5
BRANCH   1  19
ATOM     19  C   UNL     1       0.146  12.569  20.325  0.00  0.00    +0.000 C 
BRANCH  19  24
ATOM     20  C   UNL     1      -3.514  12.641  21.438  0.00  0.00    +0.000 A 
ATOM     21  C   UNL     1      -3.374  12.512  22.824  0.00  0.00    +0.000 A 
ATOM     22  C   UNL     1      -2.101  12.470  23.396  0.00  0.00    +0.000 A 
ATOM     23  C   UNL     1      -0.967  12.526  22.585  0.00  0.00    +0.000 A 
ATOM     24  C   UNL     1      -1.088  12.600  21.191  0.00  0.00    +0.000 A 
ATOM     25  C   UNL     1      -2.370  12.687  20.625  0.00  0.00    +0.000 A 
BRANCH  20  27
ATOM     26  N   UNL     1      -4.983  13.463  19.666  0.00  0.00    +0.000 N 
ATOM     27  C   UNL     1      -4.848  12.684  20.786  0.00  0.00    +0.000 C 
ATOM     28  O   UNL     1      -5.789  12.026  21.205  0.00  0.00    +0.000 OA
ATOM     29  H   UNL     1      -5.871  13.410  19.188  0.00  0.00    +0.000 HD
ATOM     30  H   UNL     1      -4.192  13.825  19.154  0.00  0.00    +0.000 HD
ENDBRANCH  20  27
ENDBRANCH  19  24
ENDBRANCH   1  19
TORSDOF 4
ENDMDL
