MODEL 1
REMARK VINA RESULT:      -8.7      0.000      0.000
REMARK  Name = 
REMARK  5 active torsions:
REMARK  status: ('A' for Active; 'I' for Inactive)
REMARK    1  A    between atoms: C_1  and  C_2
REMARK    2  A    between atoms: N_4  and  C_5
REMARK    3  A    between atoms: C_8  and  S_9
REMARK    4  A    between atoms: S_9  and  N_12
REMARK    5  A    between atoms: C_15  and  C_16
REMARK                            x       y       z     vdW  Elec       q    Type
REMARK                         _______ _______ _______ _____ _____    ______ ____
ROOT
ATOM      1  N   UNL     1       1.013   9.569  19.533  0.00  0.00    +0.000 NA
ATOM      2  C   UNL     1       1.445   9.474  18.128  0.00  0.00    +0.000 C 
ATOM      3  C   UNL     1       2.245   8.259  17.811  0.00  0.00    +0.000 C 
ATOM      4  C   UNL     1       2.428   7.222  18.637  0.00  0.00    +0.000 C 
ATOM      5  C   UNL     1       1.789   7.196  19.989  0.00  0.00    +0.000 C 
ATOM      6  C   UNL     1       1.518   8.596  20.532  0.00  0.00    +0.000 C 
ENDROOT
BRANCH   4   7
ATOM      7  C   UNL     1       3.233   6.095  18.314  0.00  0.00    +0.000 A 
ATOM      8  C   UNL     1       4.574   6.166  17.991  0.00  0.00    +0.000 A 
ATOM      9  N   UNL     1       5.010   4.888  17.747  0.00  0.00    +0.000 N 
ATOM     10  C   UNL     1       3.973   4.008  17.891  0.00  0.00    +0.000 A 
ATOM     11  N   UNL     1       4.082   2.676  17.717  0.00  0.00    +0.000 NA
ATOM     12  C   UNL     1       2.908   2.030  17.901  0.00  0.00    +0.000 A 
ATOM     13  C   UNL     1       1.695   2.623  18.227  0.00  0.00    +0.000 A 
ATOM     14  C   UNL     1       1.642   4.008  18.401  0.00  0.00    +0.000 A 
ATOM     15  C   UNL     1       2.835   4.731  18.232  0.00  0.00    +0.000 A 
ATOM     16  H   UNL     1       5.944   4.610  17.487  0.00  0.00    +0.000 HD
ENDBRANCH   4   7
BRANCH   1  17
ATOM     17  S   UNL     1       0.768  11.163  20.101  0.00  0.00    +0.000 S 
ATOM     18  O   UNL     1       1.558  12.050  19.269  0.00  0.00    +0.000 OA
ATOM     19  O   UNL     1       0.904  11.168  21.538  0.00  0.00    +0.000 OA
BRANCH  17  23
ATOM     20  C   UNL     1      -3.578  12.159  18.993  0.00  0.00    +0.000 A 
ATOM     21  C   UNL     1      -3.055  12.517  20.242  0.00  0.00    +0.000 A 
ATOM     22  C   UNL     1      -1.741  12.202  20.598  0.00  0.00    +0.000 A 
ATOM     23  C   UNL     1      -0.947  11.491  19.708  0.00  0.00    +0.000 A 
ATOM     24  C   UNL     1      -1.464  11.100  18.464  0.00  0.00    +0.000 A 
ATOM     25  C   UNL     1      -2.784  11.410  18.116  0.00  0.00    +0.000 A 
BRANCH  20  29
ATOM     26  C   UNL     1      -7.200  12.362  17.965  0.00  0.00    +0.000 C 
ATOM     27  C   UNL     1      -5.949  11.689  18.445  0.00  0.00    +0.000 C 
ATOM     28  O   UNL     1      -5.958  10.483  18.674  0.00  0.00    +0.000 OA
ATOM     29  N   UNL     1      -4.873  12.554  18.589  0.00  0.00    +0.000 N 
ATOM     30  H   UNL     1      -5.064  13.548  18.550  0.00  0.00    +0.000 HD
ENDBRANCH  20  29
ENDBRANCH  17  23
ENDBRANCH   1  17
TORSDOF 4
ENDMDL
MODEL 2
REMARK VINA RESULT:      -8.6      0.895      1.258
REMARK  Name = 
REMARK  5 active torsions:
REMARK  status: ('A' for Active; 'I' for Inactive)
REMARK    1  A    between atoms: C_1  and  C_2
REMARK    2  A    between atoms: N_4  and  C_5
REMARK    3  A    between atoms: C_8  and  S_9
REMARK    4  A    between atoms: S_9  and  N_12
REMARK    5  A    between atoms: C_15  and  C_16
REMARK                            x       y       z     vdW  Elec       q    Type
REMARK                         _______ _______ _______ _____ _____    ______ ____
ROOT
ATOM      1  N   UNL     1       1.103   9.504  19.612  0.00  0.00    +0.000 NA
ATOM      2  C   UNL     1       1.743   9.206  18.320  0.00  0.00    +0.000 C 
ATOM      3  C   UNL     1       2.464   7.904  18.276  0.00  0.00    +0.000 C 
ATOM      4  C   UNL     1       2.413   6.964  19.227  0.00  0.00    +0.000 C 
ATOM      5  C   UNL     1       1.565   7.152  20.445  0.00  0.00    +0.000 C 
ATOM      6  C   UNL     1       1.345   8.624  20.781  0.00  0.00    +0.000 C 
ENDROOT
BRANCH   4   7
ATOM      7  C   UNL     1       3.147   5.748  19.169  0.00  0.00    +0.000 A 
ATOM      8  C   UNL     1       4.519   5.664  19.303  0.00  0.00    +0.000 A 
ATOM      9  N   UNL     1       4.865   4.340  19.197  0.00  0.00    +0.000 N 
ATOM     10  C   UNL     1       3.747   3.583  18.982  0.00  0.00    +0.000 A 
ATOM     11  N   UNL     1       3.757   2.244  18.834  0.00  0.00    +0.000 NA
ATOM     12  C   UNL     1       2.522   1.735  18.616  0.00  0.00    +0.000 A 
ATOM     13  C   UNL     1       1.343   2.466  18.536  0.00  0.00    +0.000 A 
ATOM     14  C   UNL     1       1.392   3.852  18.703  0.00  0.00    +0.000 A 
ATOM     15  C   UNL     1       2.648   4.435  18.943  0.00  0.00    +0.000 A 
ATOM     16  H   UNL     1       5.796   3.955  19.252  0.00  0.00    +0.000 HD
ENDBRANCH   4   7
BRANCH   1  17
ATOM     17  S   UNL     1       0.923  11.169  19.955  0.00  0.00    +0.000 S 
ATOM     18  O   UNL     1       1.759  11.901  19.024  0.00  0.00    +0.000 OA
ATOM     19  O   UNL     1       1.045  11.363  21.381  0.00  0.00    +0.000 OA
BRANCH  17  23
ATOM     20  C   UNL     1      -3.486  11.944  18.922  0.00  0.00    +0.000 A 
ATOM     21  C   UNL     1      -2.747  10.972  18.236  0.00  0.00    +0.000 A 
ATOM     22  C   UNL     1      -1.401  10.741  18.527  0.00  0.00    +0.000 A 
ATOM     23  C   UNL     1      -0.772  11.513  19.496  0.00  0.00    +0.000 A 
ATOM     24  C   UNL     1      -1.489  12.511  20.172  0.00  0.00    +0.000 A 
ATOM     25  C   UNL     1      -2.835  12.744  19.870  0.00  0.00    +0.000 A 
BRANCH  20  29
ATOM     26  C   UNL     1      -7.241  12.187  19.162  0.00  0.00    +0.000 C 
ATOM     27  C   UNL     1      -5.847  11.985  19.676  0.00  0.00    +0.000 C 
ATOM     28  O   UNL     1      -5.668  11.734  20.864  0.00  0.00    +0.000 OA
ATOM     29  N   UNL     1      -4.870  12.121  18.699  0.00  0.00    +0.000 N 
ATOM     30  H   UNL     1      -5.149  12.518  17.811  0.00  0.00    +0.000 HD
ENDBRANCH  20  29
ENDBRANCH  17  23
ENDBRANCH   1  17
TORSDOF 4
ENDMDL
MODEL 3
REMARK VINA RESULT:      -8.4      2.377      2.843
REMARK  Name = 
REMARK  5 active torsions:
REMARK  status: ('A' for Active; 'I' for Inactive)
REMARK    1  A    between atoms: C_1  and  C_2
REMARK    2  A    between atoms: N_4  and  C_5
REMARK    3  A    between atoms: C_8  and  S_9
REMARK    4  A    between atoms: S_9  and  N_12
REMARK    5  A    between atoms: C_15  and  C_16
REMARK                            x       y       z     vdW  Elec       q    Type
REMARK                         _______ _______ _______ _____ _____    ______ ____
ROOT
ATOM      1  N   UNL     1       0.818  10.266  19.993  0.00  0.00    +0.000 NA
ATOM      2  C   UNL     1       1.175   9.861  18.622  0.00  0.00    +0.000 C 
ATOM      3  C   UNL     1       1.850   8.537  18.527  0.00  0.00    +0.000 C 
ATOM      4  C   UNL     1       1.980   7.667  19.535  0.00  0.00    +0.000 C 
ATOM      5  C   UNL     1       1.404   7.963  20.884  0.00  0.00    +0.000 C 
ATOM      6  C   UNL     1       1.282   9.460  21.148  0.00  0.00    +0.000 C 
ENDROOT
BRANCH   4   7
ATOM      7  C   UNL     1       2.668   6.427  19.417  0.00  0.00    +0.000 A 
ATOM      8  C   UNL     1       3.890   6.275  18.793  0.00  0.00    +0.000 A 
ATOM      9  N   UNL     1       4.237   4.950  18.880  0.00  0.00    +0.000 N 
ATOM     10  C   UNL     1       3.256   4.254  19.530  0.00  0.00    +0.000 A 
ATOM     11  N   UNL     1       3.302   2.929  19.772  0.00  0.00    +0.000 NA
ATOM     12  C   UNL     1       2.200   2.480  20.415  0.00  0.00    +0.000 A 
ATOM     13  C   UNL     1       1.111   3.251  20.800  0.00  0.00    +0.000 A 
ATOM     14  C   UNL     1       1.120   4.621  20.527  0.00  0.00    +0.000 A 
ATOM     15  C   UNL     1       2.244   5.146  19.870  0.00  0.00    +0.000 A 
ATOM     16  H   UNL     1       5.076   4.522  18.517  0.00  0.00    +0.000 HD
ENDBRANCH   4   7
BRANCH   1  17
ATOM     17  S   UNL     1       0.740  11.955  20.243  0.00  0.00    +0.000 S 
ATOM     18  O   UNL     1       0.669  12.588  18.941  0.00  0.00    +0.000 OA
ATOM     19  O   UNL     1       1.754  12.328  21.201  0.00  0.00    +0.000 OA
BRANCH  17  23
ATOM     20  C   UNL     1      -3.397  12.378  22.195  0.00  0.00    +0.000 A 
ATOM     21  C   UNL     1      -3.204  12.699  20.846  0.00  0.00    +0.000 A 
ATOM     22  C   UNL     1      -1.946  12.593  20.246  0.00  0.00    +0.000 A 
ATOM     23  C   UNL     1      -0.858  12.193  21.012  0.00  0.00    +0.000 A 
ATOM     24  C   UNL     1      -1.030  11.896  22.372  0.00  0.00    +0.000 A 
ATOM     25  C   UNL     1      -2.290  12.012  22.970  0.00  0.00    +0.000 A 
BRANCH  20  29
ATOM     26  C   UNL     1      -6.585  13.212  24.030  0.00  0.00    +0.000 C 
ATOM     27  C   UNL     1      -5.220  13.476  23.466  0.00  0.00    +0.000 C 
ATOM     28  O   UNL     1      -4.700  14.576  23.627  0.00  0.00    +0.000 OA
ATOM     29  N   UNL     1      -4.681  12.393  22.786  0.00  0.00    +0.000 N 
ATOM     30  H   UNL     1      -5.301  11.622  22.568  0.00  0.00    +0.000 HD
ENDBRANCH  20  29
ENDBRANCH  17  23
ENDBRANCH   1  17
TORSDOF 4
ENDMDL
MODEL 4
REMARK VINA RESULT:      -8.4      1.048      2.162
REMARK  Name = 
REMARK  5 active torsions:
REMARK  status: ('A' for Active; 'I' for Inactive)
REMARK    1  A    between atoms: C_1  and  C_2
REMARK    2  A    between atoms: N_4  and  C_5
REMARK    3  A    between atoms: C_8  and  S_9
REMARK    4  A    between atoms: S_9  and  N_12
REMARK    5  A    between atoms: C_15  and  C_16
REMARK                            x       y       z     vdW  Elec       q    Type
REMARK                         _______ _______ _______ _____ _____    ______ ____
ROOT
ATOM      1  N   UNL     1       1.137   9.354  19.491  0.00  0.00    +0.000 NA
ATOM      2  C   UNL     1       1.681   9.329  18.123  0.00  0.00    +0.000 C 
ATOM      3  C   UNL     1       2.529   8.143  17.819  0.00  0.00    +0.000 C 
ATOM      4  C   UNL     1       2.668   7.075  18.612  0.00  0.00    +0.000 C 
ATOM      5  C   UNL     1       1.923   6.978  19.906  0.00  0.00    +0.000 C 
ATOM      6  C   UNL     1       1.580   8.347  20.485  0.00  0.00    +0.000 C 
ENDROOT
BRANCH   4   7
ATOM      7  C   UNL     1       3.520   5.977  18.308  0.00  0.00    +0.000 A 
ATOM      8  C   UNL     1       3.164   4.653  18.468  0.00  0.00    +0.000 A 
ATOM      9  N   UNL     1       4.231   3.887  18.071  0.00  0.00    +0.000 N 
ATOM     10  C   UNL     1       5.262   4.694  17.677  0.00  0.00    +0.000 A 
ATOM     11  N   UNL     1       6.451   4.241  17.233  0.00  0.00    +0.000 NA
ATOM     12  C   UNL     1       7.307   5.242  16.923  0.00  0.00    +0.000 A 
ATOM     13  C   UNL     1       7.045   6.601  17.038  0.00  0.00    +0.000 A 
ATOM     14  C   UNL     1       5.793   7.014  17.500  0.00  0.00    +0.000 A 
ATOM     15  C   UNL     1       4.859   6.016  17.827  0.00  0.00    +0.000 A 
ATOM     16  H   UNL     1       4.282   2.879  18.069  0.00  0.00    +0.000 HD
ENDBRANCH   4   7
BRANCH   1  17
ATOM     17  S   UNL     1       0.814  10.917  20.104  0.00  0.00    +0.000 S 
ATOM     18  O   UNL     1       1.638  11.855  19.369  0.00  0.00    +0.000 OA
ATOM     19  O   UNL     1       0.846  10.863  21.547  0.00  0.00    +0.000 OA
BRANCH  17  23
ATOM     20  C   UNL     1      -3.459  11.822  18.678  0.00  0.00    +0.000 A 
ATOM     21  C   UNL     1      -2.911  12.495  19.777  0.00  0.00    +0.000 A 
ATOM     22  C   UNL     1      -1.620  12.215  20.232  0.00  0.00    +0.000 A 
ATOM     23  C   UNL     1      -0.877  11.225  19.603  0.00  0.00    +0.000 A 
ATOM     24  C   UNL     1      -1.422  10.521  18.519  0.00  0.00    +0.000 A 
ATOM     25  C   UNL     1      -2.719  10.800  18.072  0.00  0.00    +0.000 A 
BRANCH  20  29
ATOM     26  C   UNL     1      -7.133  12.308  17.978  0.00  0.00    +0.000 C 
ATOM     27  C   UNL     1      -5.936  11.868  18.767  0.00  0.00    +0.000 C 
ATOM     28  O   UNL     1      -6.094  11.311  19.850  0.00  0.00    +0.000 OA
ATOM     29  N   UNL     1      -4.726  12.164  18.154  0.00  0.00    +0.000 N 
ATOM     30  H   UNL     1      -4.746  12.794  17.362  0.00  0.00    +0.000 HD
ENDBRANCH  20  29
ENDBRANCH  17  23
ENDBRANCH   1  17
TORSDOF 4
ENDMDL
MODEL 5
REMARK VINA RESULT:      -8.4      2.184      2.679
REMARK  Name = 
REMARK  5 active torsions:
REMARK  status: ('A' for Active; 'I' for Inactive)
REMARK    1  A    between atoms: C_1  and  C_2
REMARK    2  A    between atoms: N_4  and  C_5
REMARK    3  A    between atoms: C_8  and  S_9
REMARK    4  A    between atoms: S_9  and  N_12
REMARK    5  A    between atoms: C_15  and  C_16
REMARK                            x       y       z     vdW  Elec       q    Type
REMARK                         _______ _______ _______ _____ _____    ______ ____
ROOT
ATOM      1  N   UNL     1       0.963   9.903  19.590  0.00  0.00    +0.000 NA
ATOM      2  C   UNL     1       1.346   8.862  20.558  0.00  0.00    +0.000 C 
ATOM      3  C   UNL     1       1.977   7.658  19.950  0.00  0.00    +0.000 C 
ATOM      4  C   UNL     1       2.357   7.552  18.672  0.00  0.00    +0.000 C 
ATOM      5  C   UNL     1       2.195   8.700  17.726  0.00  0.00    +0.000 C 
ATOM      6  C   UNL     1       1.061   9.635  18.135  0.00  0.00    +0.000 C 
ENDROOT
BRANCH   4   7
ATOM      7  C   UNL     1       2.921   6.371  18.116  0.00  0.00    +0.000 A 
ATOM      8  C   UNL     1       4.046   6.351  17.315  0.00  0.00    +0.000 A 
ATOM      9  N   UNL     1       4.289   5.044  16.975  0.00  0.00    +0.000 N 
ATOM     10  C   UNL     1       3.335   4.235  17.527  0.00  0.00    +0.000 A 
ATOM     11  N   UNL     1       3.298   2.896  17.376  0.00  0.00    +0.000 NA
ATOM     12  C   UNL     1       2.244   2.330  18.007  0.00  0.00    +0.000 A 
ATOM     13  C   UNL     1       1.274   3.005  18.738  0.00  0.00    +0.000 A 
ATOM     14  C   UNL     1       1.366   4.393  18.866  0.00  0.00    +0.000 A 
ATOM     15  C   UNL     1       2.447   5.034  18.239  0.00  0.00    +0.000 A 
ATOM     16  H   UNL     1       5.042   4.702  16.397  0.00  0.00    +0.000 HD
ENDBRANCH   4   7
BRANCH   1  17
ATOM     17  S   UNL     1      -0.342  10.892  20.081  0.00  0.00    +0.000 S 
ATOM     18  O   UNL     1       0.133  12.261  20.113  0.00  0.00    +0.000 OA
ATOM     19  O   UNL     1      -0.969  10.292  21.234  0.00  0.00    +0.000 OA
BRANCH  17  23
ATOM     20  C   UNL     1      -3.156  10.521  16.468  0.00  0.00    +0.000 A 
ATOM     21  C   UNL     1      -2.428  11.696  16.693  0.00  0.00    +0.000 A 
ATOM     22  C   UNL     1      -1.584  11.828  17.799  0.00  0.00    +0.000 A 
ATOM     23  C   UNL     1      -1.490  10.785  18.712  0.00  0.00    +0.000 A 
ATOM     24  C   UNL     1      -2.236   9.613  18.516  0.00  0.00    +0.000 A 
ATOM     25  C   UNL     1      -3.086   9.489  17.412  0.00  0.00    +0.000 A 
BRANCH  20  29
ATOM     26  C   UNL     1      -4.475   9.906  12.989  0.00  0.00    +0.000 C 
ATOM     27  C   UNL     1      -3.432   9.986  14.063  0.00  0.00    +0.000 C 
ATOM     28  O   UNL     1      -2.260   9.737  13.792  0.00  0.00    +0.000 OA
ATOM     29  N   UNL     1      -3.939  10.344  15.305  0.00  0.00    +0.000 N 
ATOM     30  H   UNL     1      -4.945  10.329  15.421  0.00  0.00    +0.000 HD
ENDBRANCH  20  29
ENDBRANCH  17  23
ENDBRANCH   1  17
TORSDOF 4
ENDMDL
MODEL 6
REMARK VINA RESULT:      -8.3      1.188      1.188
REMARK  Name = 
REMARK  5 active torsions:
REMARK  status: ('A' for Active; 'I' for Inactive)
REMARK    1  A    between atoms: C_1  and  C_2
REMARK    2  A    between atoms: N_4  and  C_5
REMARK    3  A    between atoms: C_8  and  S_9
REMARK    4  A    between atoms: S_9  and  N_12
REMARK    5  A    between atoms: C_15  and  C_16
REMARK                            x       y       z     vdW  Elec       q    Type
REMARK                         _______ _______ _______ _____ _____    ______ ____
ROOT
ATOM      1  N   UNL     1       1.168   9.457  19.506  0.00  0.00    +0.000 NA
ATOM      2  C   UNL     1       1.829   9.237  18.208  0.00  0.00    +0.000 C 
ATOM      3  C   UNL     1       2.640   7.990  18.134  0.00  0.00    +0.000 C 
ATOM      4  C   UNL     1       2.654   7.026  19.062  0.00  0.00    +0.000 C 
ATOM      5  C   UNL     1       1.794   7.124  20.282  0.00  0.00    +0.000 C 
ATOM      6  C   UNL     1       1.471   8.568  20.653  0.00  0.00    +0.000 C 
ENDROOT
BRANCH   4   7
ATOM      7  C   UNL     1       3.472   5.866  18.976  0.00  0.00    +0.000 A 
ATOM      8  C   UNL     1       4.538   5.732  18.109  0.00  0.00    +0.000 A 
ATOM      9  N   UNL     1       5.085   4.491  18.314  0.00  0.00    +0.000 N 
ATOM     10  C   UNL     1       4.381   3.826  19.279  0.00  0.00    +0.000 A 
ATOM     11  N   UNL     1       4.671   2.581  19.705  0.00  0.00    +0.000 NA
ATOM     12  C   UNL     1       3.813   2.143  20.655  0.00  0.00    +0.000 A 
ATOM     13  C   UNL     1       2.733   2.851  21.165  0.00  0.00    +0.000 A 
ATOM     14  C   UNL     1       2.482   4.141  20.690  0.00  0.00    +0.000 A 
ATOM     15  C   UNL     1       3.348   4.652  19.709  0.00  0.00    +0.000 A 
ATOM     16  H   UNL     1       5.879   4.095  17.832  0.00  0.00    +0.000 HD
ENDBRANCH   4   7
BRANCH   1  17
ATOM     17  S   UNL     1       0.872  11.097  19.889  0.00  0.00    +0.000 S 
ATOM     18  O   UNL     1       1.656  11.908  18.979  0.00  0.00    +0.000 OA
ATOM     19  O   UNL     1       0.977  11.263  21.319  0.00  0.00    +0.000 OA
BRANCH  17  23
ATOM     20  C   UNL     1      -3.471  11.822  18.575  0.00  0.00    +0.000 A 
ATOM     21  C   UNL     1      -2.926  12.510  19.666  0.00  0.00    +0.000 A 
ATOM     22  C   UNL     1      -1.613  12.284  20.087  0.00  0.00    +0.000 A 
ATOM     23  C   UNL     1      -0.842  11.333  19.431  0.00  0.00    +0.000 A 
ATOM     24  C   UNL     1      -1.382  10.613  18.355  0.00  0.00    +0.000 A 
ATOM     25  C   UNL     1      -2.701  10.838  17.943  0.00  0.00    +0.000 A 
BRANCH  20  29
ATOM     26  C   UNL     1      -7.178  12.150  17.969  0.00  0.00    +0.000 C 
ATOM     27  C   UNL     1      -5.944  11.759  18.726  0.00  0.00    +0.000 C 
ATOM     28  O   UNL     1      -6.051  11.191  19.809  0.00  0.00    +0.000 OA
ATOM     29  N   UNL     1      -4.764  12.110  18.085  0.00  0.00    +0.000 N 
ATOM     30  H   UNL     1      -4.831  12.743  17.297  0.00  0.00    +0.000 HD
ENDBRANCH  20  29
ENDBRANCH  17  23
ENDBRANCH   1  17
TORSDOF 4
ENDMDL
MODEL 7
REMARK VINA RESULT:      -8.3      3.795      5.983
REMARK  Name = 
REMARK  5 active torsions:
REMARK  status: ('A' for Active; 'I' for Inactive)
REMARK    1  A    between atoms: C_1  and  C_2
REMARK    2  A    between atoms: N_4  and  C_5
REMARK    3  A    between atoms: C_8  and  S_9
REMARK    4  A    between atoms: S_9  and  N_12
REMARK    5  A    between atoms: C_15  and  C_16
REMARK                            x       y       z     vdW  Elec       q    Type
REMARK                         _______ _______ _______ _____ _____    ______ ____
ROOT
ATOM      1  N   UNL     1       3.364   4.088  19.064  0.00  0.00    +0.000 NA
ATOM      2  C   UNL     1       2.940   3.698  17.709  0.00  0.00    +0.000 C 
ATOM      3  C   UNL     1       3.940   3.985  16.644  0.00  0.00    +0.000 C 
ATOM      4  C   UNL     1       5.198   4.388  16.860  0.00  0.00    +0.000 C 
ATOM      5  C   UNL     1       5.721   4.556  18.251  0.00  0.00    +0.000 C 
ATOM      6  C   UNL     1       4.615   4.859  19.256  0.00  0.00    +0.000 C 
ENDROOT
BRANCH   4   7
ATOM      7  C   UNL     1       6.114   4.692  15.815  0.00  0.00    +0.000 A 
ATOM      8  C   UNL     1       7.212   5.517  15.963  0.00  0.00    +0.000 A 
ATOM      9  N   UNL     1       7.856   5.570  14.753  0.00  0.00    +0.000 N 
ATOM     10  C   UNL     1       7.185   4.810  13.835  0.00  0.00    +0.000 A 
ATOM     11  N   UNL     1       7.568   4.660  12.552  0.00  0.00    +0.000 NA
ATOM     12  C   UNL     1       6.724   3.873  11.846  0.00  0.00    +0.000 A 
ATOM     13  C   UNL     1       5.574   3.267  12.336  0.00  0.00    +0.000 A 
ATOM     14  C   UNL     1       5.228   3.454  13.677  0.00  0.00    +0.000 A 
ATOM     15  C   UNL     1       6.074   4.255  14.462  0.00  0.00    +0.000 A 
ATOM     16  H   UNL     1       8.693   6.091  14.539  0.00  0.00    +0.000 HD
ENDBRANCH   4   7
BRANCH   1  17
ATOM     17  S   UNL     1       2.084   4.460  20.135  0.00  0.00    +0.000 S 
ATOM     18  O   UNL     1       2.557   4.218  21.483  0.00  0.00    +0.000 OA
ATOM     19  O   UNL     1       0.876   3.842  19.644  0.00  0.00    +0.000 OA
BRANCH  17  23
ATOM     20  C   UNL     1       1.431   8.984  19.669  0.00  0.00    +0.000 A 
ATOM     21  C   UNL     1       2.020   8.234  18.643  0.00  0.00    +0.000 A 
ATOM     22  C   UNL     1       2.242   6.862  18.781  0.00  0.00    +0.000 A 
ATOM     23  C   UNL     1       1.902   6.233  19.972  0.00  0.00    +0.000 A 
ATOM     24  C   UNL     1       1.338   6.976  21.020  0.00  0.00    +0.000 A 
ATOM     25  C   UNL     1       1.126   8.352  20.880  0.00  0.00    +0.000 A 
BRANCH  20  29
ATOM     26  C   UNL     1      -0.035  12.326  18.719  0.00  0.00    +0.000 C 
ATOM     27  C   UNL     1       0.044  10.829  18.765  0.00  0.00    +0.000 C 
ATOM     28  O   UNL     1      -0.805  10.158  18.186  0.00  0.00    +0.000 OA
ATOM     29  N   UNL     1       1.119  10.352  19.504  0.00  0.00    +0.000 N 
ATOM     30  H   UNL     1       1.619  11.016  20.082  0.00  0.00    +0.000 HD
ENDBRANCH  20  29
ENDBRANCH  17  23
ENDBRANCH   1  17
TORSDOF 4
ENDMDL
MODEL 8
REMARK VINA RESULT:      -8.3      1.573      1.837
REMARK  Name = 
REMARK  5 active torsions:
REMARK  status: ('A' for Active; 'I' for Inactive)
REMARK    1  A    between atoms: C_1  and  C_2
REMARK    2  A    between atoms: N_4  and  C_5
REMARK    3  A    between atoms: C_8  and  S_9
REMARK    4  A    between atoms: S_9  and  N_12
REMARK    5  A    between atoms: C_15  and  C_16
REMARK                            x       y       z     vdW  Elec       q    Type
REMARK                         _______ _______ _______ _____ _____    ______ ____
ROOT
ATOM      1  N   UNL     1       0.964   9.964  19.640  0.00  0.00    +0.000 NA
ATOM      2  C   UNL     1       1.504   9.494  18.353  0.00  0.00    +0.000 C 
ATOM      3  C   UNL     1       2.181   8.169  18.415  0.00  0.00    +0.000 C 
ATOM      4  C   UNL     1       2.168   7.349  19.473  0.00  0.00    +0.000 C 
ATOM      5  C   UNL     1       1.414   7.709  20.713  0.00  0.00    +0.000 C 
ATOM      6  C   UNL     1       1.262   9.217  20.886  0.00  0.00    +0.000 C 
ENDROOT
BRANCH   4   7
ATOM      7  C   UNL     1       2.861   6.107  19.511  0.00  0.00    +0.000 A 
ATOM      8  C   UNL     1       4.153   5.926  19.059  0.00  0.00    +0.000 A 
ATOM      9  N   UNL     1       4.481   4.609  19.260  0.00  0.00    +0.000 N 
ATOM     10  C   UNL     1       3.422   3.945  19.814  0.00  0.00    +0.000 A 
ATOM     11  N   UNL     1       3.432   2.636  20.131  0.00  0.00    +0.000 NA
ATOM     12  C   UNL     1       2.254   2.217  20.650  0.00  0.00    +0.000 A 
ATOM     13  C   UNL     1       1.127   3.004  20.849  0.00  0.00    +0.000 A 
ATOM     14  C   UNL     1       1.176   4.358  20.507  0.00  0.00    +0.000 A 
ATOM     15  C   UNL     1       2.378   4.851  19.973  0.00  0.00    +0.000 A 
ATOM     16  H   UNL     1       5.358   4.166  19.032  0.00  0.00    +0.000 HD
ENDBRANCH   4   7
BRANCH   1  17
ATOM     17  S   UNL     1       0.859  11.663  19.794  0.00  0.00    +0.000 S 
ATOM     18  O   UNL     1       1.482  12.249  18.624  0.00  0.00    +0.000 OA
ATOM     19  O   UNL     1       1.273  12.033  21.127  0.00  0.00    +0.000 OA
BRANCH  17  23
ATOM     20  C   UNL     1      -3.675  12.374  19.568  0.00  0.00    +0.000 A 
ATOM     21  C   UNL     1      -3.033  11.534  18.649  0.00  0.00    +0.000 A 
ATOM     22  C   UNL     1      -1.652  11.326  18.695  0.00  0.00    +0.000 A 
ATOM     23  C   UNL     1      -0.895  11.990  19.652  0.00  0.00    +0.000 A 
ATOM     24  C   UNL     1      -1.519  12.857  20.562  0.00  0.00    +0.000 A 
ATOM     25  C   UNL     1      -2.901  13.069  20.505  0.00  0.00    +0.000 A 
BRANCH  20  29
ATOM     26  C   UNL     1      -7.338  12.534  20.452  0.00  0.00    +0.000 C 
ATOM     27  C   UNL     1      -5.871  12.367  20.718  0.00  0.00    +0.000 C 
ATOM     28  O   UNL     1      -5.484  12.129  21.858  0.00  0.00    +0.000 OA
ATOM     29  N   UNL     1      -5.080  12.518  19.587  0.00  0.00    +0.000 N 
ATOM     30  H   UNL     1      -5.519  12.901  18.758  0.00  0.00    +0.000 HD
ENDBRANCH  20  29
ENDBRANCH  17  23
ENDBRANCH   1  17
TORSDOF 4
ENDMDL
MODEL 9
REMARK VINA RESULT:      -8.2      2.338      2.701
REMARK  Name = 
REMARK  5 active torsions:
REMARK  status: ('A' for Active; 'I' for Inactive)
REMARK    1  A    between atoms: C_1  and  C_2
REMARK    2  A    between atoms: N_4  and  C_5
REMARK    3  A    between atoms: C_8  and  S_9
REMARK    4  A    between atoms: S_9  and  N_12
REMARK    5  A    between atoms: C_15  and  C_16
REMARK                            x       y       z     vdW  Elec       q    Type
REMARK                         _______ _______ _______ _____ _____    ______ ____
ROOT
ATOM      1  N   UNL     1       0.799  10.245  20.022  0.00  0.00    +0.000 NA
ATOM      2  C   UNL     1       1.194   9.844  18.660  0.00  0.00    +0.000 C 
ATOM      3  C   UNL     1       1.876   8.523  18.580  0.00  0.00    +0.000 C 
ATOM      4  C   UNL     1       1.983   7.651  19.590  0.00  0.00    +0.000 C 
ATOM      5  C   UNL     1       1.370   7.942  20.923  0.00  0.00    +0.000 C 
ATOM      6  C   UNL     1       1.235   9.439  21.187  0.00  0.00    +0.000 C 
ENDROOT
BRANCH   4   7
ATOM      7  C   UNL     1       2.679   6.414  19.488  0.00  0.00    +0.000 A 
ATOM      8  C   UNL     1       3.930   6.273  18.921  0.00  0.00    +0.000 A 
ATOM      9  N   UNL     1       4.275   4.948  19.006  0.00  0.00    +0.000 N 
ATOM     10  C   UNL     1       3.266   4.241  19.599  0.00  0.00    +0.000 A 
ATOM     11  N   UNL     1       3.303   2.913  19.825  0.00  0.00    +0.000 NA
ATOM     12  C   UNL     1       2.173   2.453  20.408  0.00  0.00    +0.000 A 
ATOM     13  C   UNL     1       1.065   3.217  20.751  0.00  0.00    +0.000 A 
ATOM     14  C   UNL     1       1.084   4.590  20.498  0.00  0.00    +0.000 A 
ATOM     15  C   UNL     1       2.237   5.126  19.902  0.00  0.00    +0.000 A 
ATOM     16  H   UNL     1       5.132   4.527  18.678  0.00  0.00    +0.000 HD
ENDBRANCH   4   7
BRANCH   1  17
ATOM     17  S   UNL     1       0.708  11.933  20.273  0.00  0.00    +0.000 S 
ATOM     18  O   UNL     1       0.697  12.570  18.971  0.00  0.00    +0.000 OA
ATOM     19  O   UNL     1       1.675  12.304  21.278  0.00  0.00    +0.000 OA
BRANCH  17  23
ATOM     20  C   UNL     1      -3.461  12.724  22.036  0.00  0.00    +0.000 A 
ATOM     21  C   UNL     1      -2.365  12.466  22.869  0.00  0.00    +0.000 A 
ATOM     22  C   UNL     1      -1.097  12.204  22.345  0.00  0.00    +0.000 A 
ATOM     23  C   UNL     1      -0.925  12.167  20.967  0.00  0.00    +0.000 A 
ATOM     24  C   UNL     1      -2.018  12.395  20.118  0.00  0.00    +0.000 A 
ATOM     25  C   UNL     1      -3.288  12.648  20.648  0.00  0.00    +0.000 A 
BRANCH  20  29
ATOM     26  C   UNL     1      -6.609  13.133  24.071  0.00  0.00    +0.000 C 
ATOM     27  C   UNL     1      -5.226  12.635  23.773  0.00  0.00    +0.000 C 
ATOM     28  O   UNL     1      -4.654  11.912  24.584  0.00  0.00    +0.000 OA
ATOM     29  N   UNL     1      -4.724  13.081  22.558  0.00  0.00    +0.000 N 
ATOM     30  H   UNL     1      -5.227  13.823  22.089  0.00  0.00    +0.000 HD
ENDBRANCH  20  29
ENDBRANCH  17  23
ENDBRANCH   1  17
TORSDOF 4
ENDMDL
