MODEL 1
REMARK VINA RESULT:      -8.7      0.000      0.000
REMARK  Name = 
REMARK  6 active torsions:
REMARK  status: ('A' for Active; 'I' for Inactive)
REMARK    1  A    between atoms: C_1  and  C_2
REMARK    2  A    between atoms: C_7  and  N_8
REMARK    3  A    between atoms: C_9  and  C_11
REMARK    4  A    between atoms: C_15  and  S_16
REMARK    5  A    between atoms: S_16  and  N_19
REMARK    6  A    between atoms: N_19  and  C_20
REMARK                            x       y       z     vdW  Elec       q    Type
REMARK                         _______ _______ _______ _____ _____    ______ ____
ROOT
ATOM      1  C   UNL     1       8.054   8.024  18.176  0.00  0.00    +0.000 A 
ATOM      2  C   UNL     1       8.487   7.069  19.113  0.00  0.00    +0.000 A 
ATOM      3  C   UNL     1       7.952   5.779  19.120  0.00  0.00    +0.000 A 
ATOM      4  C   UNL     1       6.947   5.444  18.216  0.00  0.00    +0.000 A 
ATOM      5  C   UNL     1       6.498   6.410  17.304  0.00  0.00    +0.000 A 
ATOM      6  C   UNL     1       7.083   7.681  17.242  0.00  0.00    +0.000 A 
ENDROOT
BRANCH   1   8
ATOM      7  N   UNL     1       9.369   9.702  19.390  0.00  0.00    +0.000 N 
ATOM      8  C   UNL     1       8.493   9.429  18.349  0.00  0.00    +0.000 C 
ATOM      9  O   UNL     1       8.037  10.224  17.534  0.00  0.00    +0.000 OA
ATOM     10  H   UNL     1       9.577   8.980  20.065  0.00  0.00    +0.000 HD
BRANCH   7  17
ATOM     11  C   UNL     1       8.689  11.349  21.781  0.00  0.00    +0.000 C 
ATOM     12  C   UNL     1       9.655  11.755  20.705  0.00  0.00    +0.000 A 
ATOM     13  C   UNL     1      10.295  13.002  20.826  0.00  0.00    +0.000 A 
ATOM     14  C   UNL     1      11.207  13.422  19.868  0.00  0.00    +0.000 A 
ATOM     15  C   UNL     1      11.460  12.577  18.815  0.00  0.00    +0.000 A 
ATOM     16  N   UNL     1      10.864  11.380  18.671  0.00  0.00    +0.000 NA
ATOM     17  C   UNL     1       9.969  10.967  19.588  0.00  0.00    +0.000 A 
ENDBRANCH   7  17
ENDBRANCH   1   8
BRANCH   5  18
ATOM     18  S   UNL     1       5.121   6.065  16.238  0.00  0.00    +0.000 S 
ATOM     19  O   UNL     1       5.214   6.958  15.103  0.00  0.00    +0.000 OA
ATOM     20  O   UNL     1       5.054   4.628  16.064  0.00  0.00    +0.000 OA
BRANCH  18  21
ATOM     21  N   UNL     1       3.790   6.484  17.181  0.00  0.00    +0.000 N 
ATOM     22  H   UNL     1       3.152   7.125  16.717  0.00  0.00    +0.000 HD
BRANCH  21  23
ATOM     23  C   UNL     1       3.248   5.578  18.132  0.00  0.00    +0.000 A 
ATOM     24  C   UNL     1       3.701   5.601  19.450  0.00  0.00    +0.000 A 
ATOM     25  C   UNL     1       3.112   4.764  20.404  0.00  0.00    +0.000 A 
ATOM     26  C   UNL     1       2.098   3.886  20.024  0.00  0.00    +0.000 A 
ATOM     27 BR   UNL     1       1.273   2.783  21.321  0.00  0.00    +0.000 Br
ATOM     28  C   UNL     1       1.673   3.829  18.699  0.00  0.00    +0.000 A 
ATOM     29  C   UNL     1       2.245   4.684  17.751  0.00  0.00    +0.000 A 
ENDBRANCH  21  23
ENDBRANCH  18  21
ENDBRANCH   5  18
TORSDOF 5
ENDMDL
MODEL 2
REMARK VINA RESULT:      -8.3      1.390      1.709
REMARK  Name = 
REMARK  6 active torsions:
REMARK  status: ('A' for Active; 'I' for Inactive)
REMARK    1  A    between atoms: C_1  and  C_2
REMARK    2  A    between atoms: C_7  and  N_8
REMARK    3  A    between atoms: C_9  and  C_11
REMARK    4  A    between atoms: C_15  and  S_16
REMARK    5  A    between atoms: S_16  and  N_19
REMARK    6  A    between atoms: N_19  and  C_20
REMARK                            x       y       z     vdW  Elec       q    Type
REMARK                         _______ _______ _______ _____ _____    ______ ____
ROOT
ATOM      1  C   UNL     1       8.076   7.820  18.149  0.00  0.00    +0.000 A 
ATOM      2  C   UNL     1       8.379   6.944  19.207  0.00  0.00    +0.000 A 
ATOM      3  C   UNL     1       7.898   5.633  19.210  0.00  0.00    +0.000 A 
ATOM      4  C   UNL     1       7.074   5.197  18.176  0.00  0.00    +0.000 A 
ATOM      5  C   UNL     1       6.751   6.085  17.139  0.00  0.00    +0.000 A 
ATOM      6  C   UNL     1       7.291   7.376  17.090  0.00  0.00    +0.000 A 
ENDROOT
BRANCH   1   8
ATOM      7  N   UNL     1       9.363   9.583  19.268  0.00  0.00    +0.000 N 
ATOM      8  C   UNL     1       8.428   9.252  18.298  0.00  0.00    +0.000 C 
ATOM      9  O   UNL     1       7.853  10.016  17.529  0.00  0.00    +0.000 OA
ATOM     10  H   UNL     1       9.676   8.876  19.918  0.00  0.00    +0.000 HD
BRANCH   7  17
ATOM     11  C   UNL     1       8.747  11.179  21.710  0.00  0.00    +0.000 C 
ATOM     12  C   UNL     1       9.601  11.651  20.569  0.00  0.00    +0.000 A 
ATOM     13  C   UNL     1      10.160  12.940  20.649  0.00  0.00    +0.000 A 
ATOM     14  C   UNL     1      10.968  13.423  19.629  0.00  0.00    +0.000 A 
ATOM     15  C   UNL     1      11.202  12.597  18.556  0.00  0.00    +0.000 A 
ATOM     16  N   UNL     1      10.682  11.361  18.450  0.00  0.00    +0.000 NA
ATOM     17  C   UNL     1       9.887  10.887  19.428  0.00  0.00    +0.000 A 
ENDBRANCH   7  17
ENDBRANCH   1   8
BRANCH   5  18
ATOM     18  S   UNL     1       5.588   5.611  15.884  0.00  0.00    +0.000 S 
ATOM     19  O   UNL     1       5.178   6.816  15.194  0.00  0.00    +0.000 OA
ATOM     20  O   UNL     1       6.154   4.488  15.167  0.00  0.00    +0.000 OA
BRANCH  18  21
ATOM     21  N   UNL     1       4.294   4.998  16.770  0.00  0.00    +0.000 N 
ATOM     22  H   UNL     1       4.343   3.992  16.913  0.00  0.00    +0.000 HD
BRANCH  21  23
ATOM     23  C   UNL     1       3.646   5.780  17.763  0.00  0.00    +0.000 A 
ATOM     24  C   UNL     1       3.278   7.095  17.481  0.00  0.00    +0.000 A 
ATOM     25  C   UNL     1       2.570   7.839  18.431  0.00  0.00    +0.000 A 
ATOM     26  C   UNL     1       2.265   7.273  19.669  0.00  0.00    +0.000 A 
ATOM     27 BR   UNL     1       1.273   8.264  20.938  0.00  0.00    +0.000 Br
ATOM     28  C   UNL     1       2.671   5.975  19.970  0.00  0.00    +0.000 A 
ATOM     29  C   UNL     1       3.356   5.223  19.010  0.00  0.00    +0.000 A 
ENDBRANCH  21  23
ENDBRANCH  18  21
ENDBRANCH   5  18
TORSDOF 5
ENDMDL
MODEL 3
REMARK VINA RESULT:      -8.2      0.887      1.215
REMARK  Name = 
REMARK  6 active torsions:
REMARK  status: ('A' for Active; 'I' for Inactive)
REMARK    1  A    between atoms: C_1  and  C_2
REMARK    2  A    between atoms: C_7  and  N_8
REMARK    3  A    between atoms: C_9  and  C_11
REMARK    4  A    between atoms: C_15  and  S_16
REMARK    5  A    between atoms: S_16  and  N_19
REMARK    6  A    between atoms: N_19  and  C_20
REMARK                            x       y       z     vdW  Elec       q    Type
REMARK                         _______ _______ _______ _____ _____    ______ ____
ROOT
ATOM      1  C   UNL     1       8.062   8.209  18.175  0.00  0.00    +0.000 A 
ATOM      2  C   UNL     1       8.542   7.211  19.041  0.00  0.00    +0.000 A 
ATOM      3  C   UNL     1       7.970   5.937  19.050  0.00  0.00    +0.000 A 
ATOM      4  C   UNL     1       6.885   5.660  18.223  0.00  0.00    +0.000 A 
ATOM      5  C   UNL     1       6.391   6.670  17.384  0.00  0.00    +0.000 A 
ATOM      6  C   UNL     1       7.007   7.926  17.315  0.00  0.00    +0.000 A 
ENDROOT
BRANCH   1   8
ATOM      7  N   UNL     1       9.447   9.826  19.395  0.00  0.00    +0.000 N 
ATOM      8  C   UNL     1       8.555   9.595  18.357  0.00  0.00    +0.000 C 
ATOM      9  O   UNL     1       8.126  10.414  17.551  0.00  0.00    +0.000 OA
ATOM     10  H   UNL     1       9.631   9.091  20.063  0.00  0.00    +0.000 HD
BRANCH   7  17
ATOM     11  C   UNL     1       8.700  11.572  21.692  0.00  0.00    +0.000 C 
ATOM     12  C   UNL     1       9.752  11.900  20.672  0.00  0.00    +0.000 A 
ATOM     13  C   UNL     1      10.445  13.117  20.803  0.00  0.00    +0.000 A 
ATOM     14  C   UNL     1      11.437  13.464  19.896  0.00  0.00    +0.000 A 
ATOM     15  C   UNL     1      11.714  12.577  18.884  0.00  0.00    +0.000 A 
ATOM     16  N   UNL     1      11.069  11.407  18.732  0.00  0.00    +0.000 NA
ATOM     17  C   UNL     1      10.097  11.065  19.598  0.00  0.00    +0.000 A 
ENDBRANCH   7  17
ENDBRANCH   1   8
BRANCH   5  18
ATOM     18  S   UNL     1       4.921   6.400  16.426  0.00  0.00    +0.000 S 
ATOM     19  O   UNL     1       3.870   7.211  17.004  0.00  0.00    +0.000 OA
ATOM     20  O   UNL     1       5.283   6.519  15.029  0.00  0.00    +0.000 OA
BRANCH  18  21
ATOM     21  N   UNL     1       4.586   4.771  16.686  0.00  0.00    +0.000 N 
ATOM     22  H   UNL     1       5.301   4.147  16.320  0.00  0.00    +0.000 HD
BRANCH  21  23
ATOM     23  C   UNL     1       3.853   4.343  17.826  0.00  0.00    +0.000 A 
ATOM     24  C   UNL     1       2.492   4.627  17.923  0.00  0.00    +0.000 A 
ATOM     25  C   UNL     1       1.754   4.138  19.008  0.00  0.00    +0.000 A 
ATOM     26  C   UNL     1       2.391   3.398  20.003  0.00  0.00    +0.000 A 
ATOM     27 BR   UNL     1       1.387   2.703  21.447  0.00  0.00    +0.000 Br
ATOM     28  C   UNL     1       3.760   3.150  19.931  0.00  0.00    +0.000 A 
ATOM     29  C   UNL     1       4.492   3.617  18.834  0.00  0.00    +0.000 A 
ENDBRANCH  21  23
ENDBRANCH  18  21
ENDBRANCH   5  18
TORSDOF 5
ENDMDL
MODEL 4
REMARK VINA RESULT:      -8.1      5.828      7.451
REMARK  Name = 
REMARK  6 active torsions:
REMARK  status: ('A' for Active; 'I' for Inactive)
REMARK    1  A    between atoms: C_1  and  C_2
REMARK    2  A    between atoms: C_7  and  N_8
REMARK    3  A    between atoms: C_9  and  C_11
REMARK    4  A    between atoms: C_15  and  S_16
REMARK    5  A    between atoms: S_16  and  N_19
REMARK    6  A    between atoms: N_19  and  C_20
REMARK                            x       y       z     vdW  Elec       q    Type
REMARK                         _______ _______ _______ _____ _____    ______ ____
ROOT
ATOM      1  C   UNL     1       4.050   3.760  17.154  0.00  0.00    +0.000 A 
ATOM      2  C   UNL     1       4.128   2.357  17.207  0.00  0.00    +0.000 A 
ATOM      3  C   UNL     1       3.486   1.642  18.219  0.00  0.00    +0.000 A 
ATOM      4  C   UNL     1       2.793   2.325  19.215  0.00  0.00    +0.000 A 
ATOM      5  C   UNL     1       2.744   3.726  19.175  0.00  0.00    +0.000 A 
ATOM      6  C   UNL     1       3.321   4.446  18.120  0.00  0.00    +0.000 A 
ENDROOT
BRANCH   1   8
ATOM      7  N   UNL     1       5.720   3.712  15.358  0.00  0.00    +0.000 N 
ATOM      8  C   UNL     1       4.920   4.479  16.194  0.00  0.00    +0.000 C 
ATOM      9  O   UNL     1       4.838   5.702  16.226  0.00  0.00    +0.000 OA
ATOM     10  H   UNL     1       5.785   2.716  15.511  0.00  0.00    +0.000 HD
BRANCH   7  17
ATOM     11  C   UNL     1       5.174   2.974  12.522  0.00  0.00    +0.000 C 
ATOM     12  C   UNL     1       6.254   3.917  12.971  0.00  0.00    +0.000 A 
ATOM     13  C   UNL     1       7.071   4.504  11.988  0.00  0.00    +0.000 A 
ATOM     14  C   UNL     1       8.075   5.394  12.346  0.00  0.00    +0.000 A 
ATOM     15  C   UNL     1       8.229   5.677  13.682  0.00  0.00    +0.000 A 
ATOM     16  N   UNL     1       7.464   5.132  14.644  0.00  0.00    +0.000 NA
ATOM     17  C   UNL     1       6.495   4.259  14.310  0.00  0.00    +0.000 A 
ENDBRANCH   7  17
ENDBRANCH   1   8
BRANCH   5  18
ATOM     18  S   UNL     1       1.997   4.635  20.504  0.00  0.00    +0.000 S 
ATOM     19  O   UNL     1       0.597   4.811  20.178  0.00  0.00    +0.000 OA
ATOM     20  O   UNL     1       2.410   4.012  21.744  0.00  0.00    +0.000 OA
BRANCH  18  21
ATOM     21  N   UNL     1       2.783   6.122  20.442  0.00  0.00    +0.000 N 
ATOM     22  H   UNL     1       3.769   6.049  20.204  0.00  0.00    +0.000 HD
BRANCH  21  23
ATOM     23  C   UNL     1       2.094   7.304  20.060  0.00  0.00    +0.000 A 
ATOM     24  C   UNL     1       1.305   7.980  20.989  0.00  0.00    +0.000 A 
ATOM     25  C   UNL     1       0.689   9.186  20.635  0.00  0.00    +0.000 A 
ATOM     26  C   UNL     1       0.840   9.688  19.343  0.00  0.00    +0.000 A 
ATOM     27 BR   UNL     1       0.042  11.338  18.875  0.00  0.00    +0.000 Br
ATOM     28  C   UNL     1       1.592   8.992  18.399  0.00  0.00    +0.000 A 
ATOM     29  C   UNL     1       2.228   7.801  18.761  0.00  0.00    +0.000 A 
ENDBRANCH  21  23
ENDBRANCH  18  21
ENDBRANCH   5  18
TORSDOF 5
ENDMDL
MODEL 5
REMARK VINA RESULT:      -8.1      1.203      1.206
REMARK  Name = 
REMARK  6 active torsions:
REMARK  status: ('A' for Active; 'I' for Inactive)
REMARK    1  A    between atoms: C_1  and  C_2
REMARK    2  A    between atoms: C_7  and  N_8
REMARK    3  A    between atoms: C_9  and  C_11
REMARK    4  A    between atoms: C_15  and  S_16
REMARK    5  A    between atoms: S_16  and  N_19
REMARK    6  A    between atoms: N_19  and  C_20
REMARK                            x       y       z     vdW  Elec       q    Type
REMARK                         _______ _______ _______ _____ _____    ______ ____
ROOT
ATOM      1  C   UNL     1       8.213   7.865  18.205  0.00  0.00    +0.000 A 
ATOM      2  C   UNL     1       8.508   7.036  19.302  0.00  0.00    +0.000 A 
ATOM      3  C   UNL     1       8.099   5.701  19.320  0.00  0.00    +0.000 A 
ATOM      4  C   UNL     1       7.354   5.192  18.260  0.00  0.00    +0.000 A 
ATOM      5  C   UNL     1       7.037   6.032  17.183  0.00  0.00    +0.000 A 
ATOM      6  C   UNL     1       7.508   7.351  17.123  0.00  0.00    +0.000 A 
ENDROOT
BRANCH   1   8
ATOM      7  N   UNL     1       9.391   9.722  19.294  0.00  0.00    +0.000 N 
ATOM      8  C   UNL     1       8.478   9.318  18.329  0.00  0.00    +0.000 C 
ATOM      9  O   UNL     1       7.861  10.032  17.546  0.00  0.00    +0.000 OA
ATOM     10  H   UNL     1       9.743   9.046  19.957  0.00  0.00    +0.000 HD
BRANCH   7  17
ATOM     11  C   UNL     1       8.765  11.286  21.754  0.00  0.00    +0.000 C 
ATOM     12  C   UNL     1       9.544  11.807  20.580  0.00  0.00    +0.000 A 
ATOM     13  C   UNL     1      10.022  13.129  20.637  0.00  0.00    +0.000 A 
ATOM     14  C   UNL     1      10.759  13.657  19.586  0.00  0.00    +0.000 A 
ATOM     15  C   UNL     1      11.005  12.843  18.507  0.00  0.00    +0.000 A 
ATOM     16  N   UNL     1      10.562  11.576  18.424  0.00  0.00    +0.000 NA
ATOM     17  C   UNL     1       9.835  11.056  19.431  0.00  0.00    +0.000 A 
ENDBRANCH   7  17
ENDBRANCH   1   8
BRANCH   5  18
ATOM     18  S   UNL     1       5.967   5.462  15.885  0.00  0.00    +0.000 S 
ATOM     19  O   UNL     1       4.811   6.333  15.860  0.00  0.00    +0.000 OA
ATOM     20  O   UNL     1       6.783   5.257  14.707  0.00  0.00    +0.000 OA
BRANCH  18  21
ATOM     21  N   UNL     1       5.510   3.929  16.410  0.00  0.00    +0.000 N 
ATOM     22  H   UNL     1       6.282   3.268  16.450  0.00  0.00    +0.000 HD
BRANCH  21  23
ATOM     23  C   UNL     1       4.439   3.755  17.328  0.00  0.00    +0.000 A 
ATOM     24  C   UNL     1       4.706   3.617  18.689  0.00  0.00    +0.000 A 
ATOM     25  C   UNL     1       3.647   3.524  19.600  0.00  0.00    +0.000 A 
ATOM     26  C   UNL     1       2.332   3.536  19.138  0.00  0.00    +0.000 A 
ATOM     27 BR   UNL     1       0.901   3.452  20.372  0.00  0.00    +0.000 Br
ATOM     28  C   UNL     1       2.063   3.629  17.774  0.00  0.00    +0.000 A 
ATOM     29  C   UNL     1       3.121   3.747  16.867  0.00  0.00    +0.000 A 
ENDBRANCH  21  23
ENDBRANCH  18  21
ENDBRANCH   5  18
TORSDOF 5
ENDMDL
MODEL 6
REMARK VINA RESULT:      -8.1      0.702      1.328
REMARK  Name = 
REMARK  6 active torsions:
REMARK  status: ('A' for Active; 'I' for Inactive)
REMARK    1  A    between atoms: C_1  and  C_2
REMARK    2  A    between atoms: C_7  and  N_8
REMARK    3  A    between atoms: C_9  and  C_11
REMARK    4  A    between atoms: C_15  and  S_16
REMARK    5  A    between atoms: S_16  and  N_19
REMARK    6  A    between atoms: N_19  and  C_20
REMARK                            x       y       z     vdW  Elec       q    Type
REMARK                         _______ _______ _______ _____ _____    ______ ____
ROOT
ATOM      1  C   UNL     1       8.004   8.077  18.230  0.00  0.00    +0.000 A 
ATOM      2  C   UNL     1       8.521   7.083  19.081  0.00  0.00    +0.000 A 
ATOM      3  C   UNL     1       8.069   5.765  18.998  0.00  0.00    +0.000 A 
ATOM      4  C   UNL     1       7.065   5.434  18.093  0.00  0.00    +0.000 A 
ATOM      5  C   UNL     1       6.531   6.435  17.268  0.00  0.00    +0.000 A 
ATOM      6  C   UNL     1       7.033   7.744  17.292  0.00  0.00    +0.000 A 
ENDROOT
BRANCH   1   8
ATOM      7  N   UNL     1       9.209   9.743  19.567  0.00  0.00    +0.000 N 
ATOM      8  C   UNL     1       8.357   9.491  18.502  0.00  0.00    +0.000 C 
ATOM      9  O   UNL     1       7.859  10.311  17.738  0.00  0.00    +0.000 OA
ATOM     10  H   UNL     1       9.457   8.990  20.194  0.00  0.00    +0.000 HD
BRANCH   7  17
ATOM     11  C   UNL     1      11.188  11.023  17.741  0.00  0.00    +0.000 C 
ATOM     12  C   UNL     1      10.667  11.637  19.009  0.00  0.00    +0.000 A 
ATOM     13  C   UNL     1      11.139  12.913  19.369  0.00  0.00    +0.000 A 
ATOM     14  C   UNL     1      10.681  13.533  20.524  0.00  0.00    +0.000 A 
ATOM     15  C   UNL     1       9.756  12.861  21.285  0.00  0.00    +0.000 A 
ATOM     16  N   UNL     1       9.286  11.642  20.967  0.00  0.00    +0.000 NA
ATOM     17  C   UNL     1       9.732  11.025  19.856  0.00  0.00    +0.000 A 
ENDBRANCH   7  17
ENDBRANCH   1   8
BRANCH   5  18
ATOM     18  S   UNL     1       5.151   6.083  16.208  0.00  0.00    +0.000 S 
ATOM     19  O   UNL     1       5.240   6.972  15.069  0.00  0.00    +0.000 OA
ATOM     20  O   UNL     1       5.088   4.646  16.039  0.00  0.00    +0.000 OA
BRANCH  18  21
ATOM     21  N   UNL     1       3.823   6.503  17.153  0.00  0.00    +0.000 N 
ATOM     22  H   UNL     1       3.185   7.146  16.692  0.00  0.00    +0.000 HD
BRANCH  21  23
ATOM     23  C   UNL     1       3.280   5.596  18.103  0.00  0.00    +0.000 A 
ATOM     24  C   UNL     1       3.862   5.481  19.365  0.00  0.00    +0.000 A 
ATOM     25  C   UNL     1       3.281   4.646  20.326  0.00  0.00    +0.000 A 
ATOM     26  C   UNL     1       2.142   3.908  20.006  0.00  0.00    +0.000 A 
ATOM     27 BR   UNL     1       1.332   2.812  21.317  0.00  0.00    +0.000 Br
ATOM     28  C   UNL     1       1.584   3.988  18.732  0.00  0.00    +0.000 A 
ATOM     29  C   UNL     1       2.150   4.841  17.780  0.00  0.00    +0.000 A 
ENDBRANCH  21  23
ENDBRANCH  18  21
ENDBRANCH   5  18
TORSDOF 5
ENDMDL
MODEL 7
REMARK VINA RESULT:      -8.0      1.346      1.920
REMARK  Name = 
REMARK  6 active torsions:
REMARK  status: ('A' for Active; 'I' for Inactive)
REMARK    1  A    between atoms: C_1  and  C_2
REMARK    2  A    between atoms: C_7  and  N_8
REMARK    3  A    between atoms: C_9  and  C_11
REMARK    4  A    between atoms: C_15  and  S_16
REMARK    5  A    between atoms: S_16  and  N_19
REMARK    6  A    between atoms: N_19  and  C_20
REMARK                            x       y       z     vdW  Elec       q    Type
REMARK                         _______ _______ _______ _____ _____    ______ ____
ROOT
ATOM      1  C   UNL     1       8.122   7.817  18.158  0.00  0.00    +0.000 A 
ATOM      2  C   UNL     1       8.379   6.860  19.157  0.00  0.00    +0.000 A 
ATOM      3  C   UNL     1       8.009   5.526  18.980  0.00  0.00    +0.000 A 
ATOM      4  C   UNL     1       7.340   5.141  17.821  0.00  0.00    +0.000 A 
ATOM      5  C   UNL     1       7.060   6.106  16.843  0.00  0.00    +0.000 A 
ATOM      6  C   UNL     1       7.495   7.431  16.979  0.00  0.00    +0.000 A 
ENDROOT
BRANCH   1   8
ATOM      7  N   UNL     1       9.211   9.544  19.519  0.00  0.00    +0.000 N 
ATOM      8  C   UNL     1       8.337   9.248  18.482  0.00  0.00    +0.000 C 
ATOM      9  O   UNL     1       7.718  10.042  17.782  0.00  0.00    +0.000 OA
ATOM     10  H   UNL     1       9.568   8.796  20.096  0.00  0.00    +0.000 HD
BRANCH   7  17
ATOM     11  C   UNL     1      10.994  11.088  17.695  0.00  0.00    +0.000 C 
ATOM     12  C   UNL     1      10.452  11.597  18.999  0.00  0.00    +0.000 A 
ATOM     13  C   UNL     1      10.802  12.900  19.398  0.00  0.00    +0.000 A 
ATOM     14  C   UNL     1      10.319  13.427  20.588  0.00  0.00    +0.000 A 
ATOM     15  C   UNL     1       9.489  12.635  21.345  0.00  0.00    +0.000 A 
ATOM     16  N   UNL     1       9.137  11.387  20.991  0.00  0.00    +0.000 NA
ATOM     17  C   UNL     1       9.609  10.861  19.845  0.00  0.00    +0.000 A 
ENDBRANCH   7  17
ENDBRANCH   1   8
BRANCH   5  18
ATOM     18  S   UNL     1       6.083   5.684  15.421  0.00  0.00    +0.000 S 
ATOM     19  O   UNL     1       5.108   6.738  15.235  0.00  0.00    +0.000 OA
ATOM     20  O   UNL     1       6.995   5.306  14.363  0.00  0.00    +0.000 OA
BRANCH  18  21
ATOM     21  N   UNL     1       5.304   4.270  15.897  0.00  0.00    +0.000 N 
ATOM     22  H   UNL     1       5.878   3.437  15.792  0.00  0.00    +0.000 HD
BRANCH  21  23
ATOM     23  C   UNL     1       4.329   4.278  16.931  0.00  0.00    +0.000 A 
ATOM     24  C   UNL     1       3.979   3.087  17.566  0.00  0.00    +0.000 A 
ATOM     25  C   UNL     1       3.077   3.108  18.636  0.00  0.00    +0.000 A 
ATOM     26  C   UNL     1       2.508   4.314  19.041  0.00  0.00    +0.000 A 
ATOM     27 BR   UNL     1       1.322   4.349  20.513  0.00  0.00    +0.000 Br
ATOM     28  C   UNL     1       2.823   5.500  18.379  0.00  0.00    +0.000 A 
ATOM     29  C   UNL     1       3.743   5.483  17.326  0.00  0.00    +0.000 A 
ENDBRANCH  21  23
ENDBRANCH  18  21
ENDBRANCH   5  18
TORSDOF 5
ENDMDL
MODEL 8
REMARK VINA RESULT:      -7.9      5.074      7.189
REMARK  Name = 
REMARK  6 active torsions:
REMARK  status: ('A' for Active; 'I' for Inactive)
REMARK    1  A    between atoms: C_1  and  C_2
REMARK    2  A    between atoms: C_7  and  N_8
REMARK    3  A    between atoms: C_9  and  C_11
REMARK    4  A    between atoms: C_15  and  S_16
REMARK    5  A    between atoms: S_16  and  N_19
REMARK    6  A    between atoms: N_19  and  C_20
REMARK                            x       y       z     vdW  Elec       q    Type
REMARK                         _______ _______ _______ _____ _____    ______ ____
ROOT
ATOM      1  C   UNL     1       2.062   7.197  19.124  0.00  0.00    +0.000 A 
ATOM      2  C   UNL     1       1.966   7.019  20.516  0.00  0.00    +0.000 A 
ATOM      3  C   UNL     1       2.071   5.748  21.083  0.00  0.00    +0.000 A 
ATOM      4  C   UNL     1       2.230   4.635  20.261  0.00  0.00    +0.000 A 
ATOM      5  C   UNL     1       2.294   4.815  18.872  0.00  0.00    +0.000 A 
ATOM      6  C   UNL     1       2.266   6.095  18.301  0.00  0.00    +0.000 A 
ENDROOT
BRANCH   1   8
ATOM      7  N   UNL     1       0.923   9.361  19.320  0.00  0.00    +0.000 N 
ATOM      8  C   UNL     1       1.731   8.527  18.560  0.00  0.00    +0.000 C 
ATOM      9  O   UNL     1       2.221   8.767  17.461  0.00  0.00    +0.000 OA
ATOM     10  H   UNL     1       0.486   9.000  20.156  0.00  0.00    +0.000 HD
BRANCH   7  17
ATOM     11  C   UNL     1      -1.777  10.126  18.315  0.00  0.00    +0.000 C 
ATOM     12  C   UNL     1      -0.625  11.073  18.486  0.00  0.00    +0.000 A 
ATOM     13  C   UNL     1      -0.825  12.426  18.154  0.00  0.00    +0.000 A 
ATOM     14  C   UNL     1       0.202  13.348  18.305  0.00  0.00    +0.000 A 
ATOM     15  C   UNL     1       1.402  12.891  18.793  0.00  0.00    +0.000 A 
ATOM     16  N   UNL     1       1.624  11.605  19.119  0.00  0.00    +0.000 NA
ATOM     17  C   UNL     1       0.639  10.700  18.965  0.00  0.00    +0.000 A 
ENDBRANCH   7  17
ENDBRANCH   1   8
BRANCH   5  18
ATOM     18  S   UNL     1       2.349   3.411  17.787  0.00  0.00    +0.000 S 
ATOM     19  O   UNL     1       1.767   2.291  18.495  0.00  0.00    +0.000 OA
ATOM     20  O   UNL     1       1.839   3.836  16.500  0.00  0.00    +0.000 OA
BRANCH  18  21
ATOM     21  N   UNL     1       3.999   3.153  17.575  0.00  0.00    +0.000 N 
ATOM     22  H   UNL     1       4.211   2.346  16.994  0.00  0.00    +0.000 HD
BRANCH  21  23
ATOM     23  C   UNL     1       4.917   4.237  17.567  0.00  0.00    +0.000 A 
ATOM     24  C   UNL     1       5.063   5.016  16.419  0.00  0.00    +0.000 A 
ATOM     25  C   UNL     1       5.910   6.130  16.437  0.00  0.00    +0.000 A 
ATOM     26  C   UNL     1       6.628   6.438  17.592  0.00  0.00    +0.000 A 
ATOM     27 BR   UNL     1       7.740   7.967  17.629  0.00  0.00    +0.000 Br
ATOM     28  C   UNL     1       6.518   5.636  18.726  0.00  0.00    +0.000 A 
ATOM     29  C   UNL     1       5.653   4.537  18.716  0.00  0.00    +0.000 A 
ENDBRANCH  21  23
ENDBRANCH  18  21
ENDBRANCH   5  18
TORSDOF 5
ENDMDL
MODEL 9
REMARK VINA RESULT:      -7.8      5.518      7.344
REMARK  Name = 
REMARK  6 active torsions:
REMARK  status: ('A' for Active; 'I' for Inactive)
REMARK    1  A    between atoms: C_1  and  C_2
REMARK    2  A    between atoms: C_7  and  N_8
REMARK    3  A    between atoms: C_9  and  C_11
REMARK    4  A    between atoms: C_15  and  S_16
REMARK    5  A    between atoms: S_16  and  N_19
REMARK    6  A    between atoms: N_19  and  C_20
REMARK                            x       y       z     vdW  Elec       q    Type
REMARK                         _______ _______ _______ _____ _____    ______ ____
ROOT
ATOM      1  C   UNL     1       3.373   5.014  19.810  0.00  0.00    +0.000 A 
ATOM      2  C   UNL     1       3.092   3.641  19.693  0.00  0.00    +0.000 A 
ATOM      3  C   UNL     1       4.063   2.749  19.237  0.00  0.00    +0.000 A 
ATOM      4  C   UNL     1       5.313   3.226  18.851  0.00  0.00    +0.000 A 
ATOM      5  C   UNL     1       5.577   4.600  18.940  0.00  0.00    +0.000 A 
ATOM      6  C   UNL     1       4.634   5.491  19.469  0.00  0.00    +0.000 A 
ENDROOT
BRANCH   1   8
ATOM      7  N   UNL     1       2.545   7.294  20.178  0.00  0.00    +0.000 N 
ATOM      8  C   UNL     1       2.250   5.941  20.091  0.00  0.00    +0.000 C 
ATOM      9  O   UNL     1       1.151   5.411  20.211  0.00  0.00    +0.000 OA
ATOM     10  H   UNL     1       3.510   7.593  20.178  0.00  0.00    +0.000 HD
BRANCH   7  17
ATOM     11  C   UNL     1       1.787   8.991  17.847  0.00  0.00    +0.000 C 
ATOM     12  C   UNL     1       1.194   9.107  19.222  0.00  0.00    +0.000 A 
ATOM     13  C   UNL     1       0.203  10.082  19.436  0.00  0.00    +0.000 A 
ATOM     14  C   UNL     1      -0.389  10.224  20.683  0.00  0.00    +0.000 A 
ATOM     15  C   UNL     1       0.023   9.377  21.684  0.00  0.00    +0.000 A 
ATOM     16  N   UNL     1       0.967   8.435  21.510  0.00  0.00    +0.000 NA
ATOM     17  C   UNL     1       1.557   8.297  20.308  0.00  0.00    +0.000 A 
ENDBRANCH   7  17
ENDBRANCH   1   8
BRANCH   5  18
ATOM     18  S   UNL     1       7.104   5.262  18.321  0.00  0.00    +0.000 S 
ATOM     19  O   UNL     1       7.553   6.270  19.258  0.00  0.00    +0.000 OA
ATOM     20  O   UNL     1       7.947   4.143  17.956  0.00  0.00    +0.000 OA
BRANCH  18  21
ATOM     21  N   UNL     1       6.647   5.995  16.876  0.00  0.00    +0.000 N 
ATOM     22  H   UNL     1       7.014   6.937  16.766  0.00  0.00    +0.000 HD
BRANCH  21  23
ATOM     23  C   UNL     1       6.423   5.228  15.701  0.00  0.00    +0.000 A 
ATOM     24  C   UNL     1       5.227   4.528  15.545  0.00  0.00    +0.000 A 
ATOM     25  C   UNL     1       4.975   3.837  14.355  0.00  0.00    +0.000 A 
ATOM     26  C   UNL     1       5.934   3.825  13.343  0.00  0.00    +0.000 A 
ATOM     27 BR   UNL     1       5.576   2.926  11.718  0.00  0.00    +0.000 Br
ATOM     28  C   UNL     1       7.148   4.487  13.513  0.00  0.00    +0.000 A 
ATOM     29  C   UNL     1       7.390   5.198  14.693  0.00  0.00    +0.000 A 
ENDBRANCH  21  23
ENDBRANCH  18  21
ENDBRANCH   5  18
TORSDOF 5
ENDMDL
