MODEL 1
REMARK VINA RESULT:      -8.3      0.000      0.000
REMARK  Name = 
REMARK  7 active torsions:
REMARK  status: ('A' for Active; 'I' for Inactive)
REMARK    1  A    between atoms: C_1  and  C_2
REMARK    2  A    between atoms: C_3  and  C_4
REMARK    3  A    between atoms: C_4  and  C_5
REMARK    4  A    between atoms: C_9  and  C_10
REMARK    5  A    between atoms: C_10  and  C_11
REMARK    6  A    between atoms: C_11  and  C_12
REMARK    7  A    between atoms: N_16  and  C_17
REMARK                            x       y       z     vdW  Elec       q    Type
REMARK                         _______ _______ _______ _____ _____    ______ ____
ROOT
ATOM      1  C   UNL     1       1.814   8.440  18.812  0.00  0.00    +0.000 A 
ATOM      2  C   UNL     1       1.459   8.483  20.162  0.00  0.00    +0.000 A 
ATOM      3  C   UNL     1       1.649   7.362  20.965  0.00  0.00    +0.000 A 
ATOM      4  C   UNL     1       2.131   6.173  20.412  0.00  0.00    +0.000 A 
ATOM      5  C   UNL     1       2.407   6.056  19.037  0.00  0.00    +0.000 A 
ATOM      6  C   UNL     1       2.304   7.239  18.277  0.00  0.00    +0.000 A 
ENDROOT
BRANCH   5   7
ATOM      7  C   UNL     1       2.649   4.650  18.310  0.00  0.00    +0.000 C 
ATOM      8  C   UNL     1       1.425   4.209  17.448  0.00  0.00    +0.000 C 
ATOM      9  O   UNL     1       1.554   2.845  17.912  0.00  0.00    +0.000 OA
ATOM     10  C   UNL     1       2.327   3.321  19.052  0.00  0.00    +0.000 C 
BRANCH   7  11
ATOM     11  C   UNL     1       3.951   4.604  17.492  0.00  0.00    +0.000 C 
BRANCH  11  12
ATOM     12  C   UNL     1       5.167   4.991  18.265  0.00  0.00    +0.000 A 
ATOM     13  N   UNL     1       5.648   4.364  19.320  0.00  0.00    +0.000 NA
ATOM     14  N   UNL     1       6.831   4.966  19.679  0.00  0.00    +0.000 NA
ATOM     15  C   UNL     1       7.043   5.951  18.838  0.00  0.00    +0.000 A 
ATOM     16  N   UNL     1       6.015   6.021  17.951  0.00  0.00    +0.000 N 
ATOM     17  C   UNL     1       5.890   6.982  16.886  0.00  0.00    +0.000 C 
ENDBRANCH  11  12
ENDBRANCH   7  11
ENDBRANCH   5   7
BRANCH   1  18
ATOM     18  C   UNL     1       1.606   9.636  17.915  0.00  0.00    +0.000 C 
BRANCH  18  21
ATOM     19  C   UNL     1       1.832  12.356  19.024  0.00  0.00    +0.000 C 
ATOM     20  C   UNL     1       0.492  11.761  18.632  0.00  0.00    +0.000 C 
ATOM     21  C   UNL     1       0.357  10.495  18.143  0.00  0.00    +0.000 C 
ATOM     22  C   UNL     1      -0.982   9.851  17.815  0.00  0.00    +0.000 C 
ATOM     23  C   UNL     1      -2.066  10.815  17.383  0.00  0.00    +0.000 C 
ATOM     24  O   UNL     1      -2.318  11.012  16.187  0.00  0.00    +0.000 OA
ATOM     25  C   UNL     1      -2.836  11.518  18.471  0.00  0.00    +0.000 C 
ATOM     26  C   UNL     1      -1.909  12.139  19.504  0.00  0.00    +0.000 C 
ATOM     27  C   UNL     1      -0.645  12.742  18.892  0.00  0.00    +0.000 C 
ENDBRANCH  18  21
ENDBRANCH   1  18
TORSDOF 5
ENDMDL
MODEL 2
REMARK VINA RESULT:      -8.2      1.395      2.148
REMARK  Name = 
REMARK  7 active torsions:
REMARK  status: ('A' for Active; 'I' for Inactive)
REMARK    1  A    between atoms: C_1  and  C_2
REMARK    2  A    between atoms: C_3  and  C_4
REMARK    3  A    between atoms: C_4  and  C_5
REMARK    4  A    between atoms: C_9  and  C_10
REMARK    5  A    between atoms: C_10  and  C_11
REMARK    6  A    between atoms: C_11  and  C_12
REMARK    7  A    between atoms: N_16  and  C_17
REMARK                            x       y       z     vdW  Elec       q    Type
REMARK                         _______ _______ _______ _____ _____    ______ ____
ROOT
ATOM      1  C   UNL     1       1.833   8.411  18.733  0.00  0.00    +0.000 A 
ATOM      2  C   UNL     1       1.448   8.498  20.072  0.00  0.00    +0.000 A 
ATOM      3  C   UNL     1       1.615   7.404  20.915  0.00  0.00    +0.000 A 
ATOM      4  C   UNL     1       2.107   6.196  20.412  0.00  0.00    +0.000 A 
ATOM      5  C   UNL     1       2.414   6.034  19.048  0.00  0.00    +0.000 A 
ATOM      6  C   UNL     1       2.331   7.192  18.248  0.00  0.00    +0.000 A 
ENDROOT
BRANCH   5   7
ATOM      7  C   UNL     1       2.667   4.605  18.372  0.00  0.00    +0.000 C 
ATOM      8  C   UNL     1       1.431   4.104  17.561  0.00  0.00    +0.000 C 
ATOM      9  O   UNL     1       1.602   2.763  18.077  0.00  0.00    +0.000 OA
ATOM     10  C   UNL     1       2.393   3.301  19.175  0.00  0.00    +0.000 C 
BRANCH   7  11
ATOM     11  C   UNL     1       3.948   4.553  17.522  0.00  0.00    +0.000 C 
BRANCH  11  12
ATOM     12  C   UNL     1       5.181   4.961  18.257  0.00  0.00    +0.000 A 
ATOM     13  N   UNL     1       5.710   4.338  19.292  0.00  0.00    +0.000 NA
ATOM     14  N   UNL     1       6.891   4.964  19.615  0.00  0.00    +0.000 NA
ATOM     15  C   UNL     1       7.054   5.958  18.774  0.00  0.00    +0.000 A 
ATOM     16  N   UNL     1       5.995   6.011  17.922  0.00  0.00    +0.000 N 
ATOM     17  C   UNL     1       5.815   6.976  16.868  0.00  0.00    +0.000 C 
ENDBRANCH  11  12
ENDBRANCH   7  11
ENDBRANCH   5   7
BRANCH   1  18
ATOM     18  C   UNL     1       1.650   9.579  17.794  0.00  0.00    +0.000 C 
BRANCH  18  21
ATOM     19  C   UNL     1      -1.266   9.994  17.753  0.00  0.00    +0.000 C 
ATOM     20  C   UNL     1      -0.320  11.018  18.352  0.00  0.00    +0.000 C 
ATOM     21  C   UNL     1       1.034  10.864  18.359  0.00  0.00    +0.000 C 
ATOM     22  C   UNL     1       2.005  11.911  18.885  0.00  0.00    +0.000 C 
ATOM     23  C   UNL     1       1.463  12.784  19.996  0.00  0.00    +0.000 C 
ATOM     24  O   UNL     1       1.702  12.539  21.186  0.00  0.00    +0.000 OA
ATOM     25  C   UNL     1       0.629  13.972  19.593  0.00  0.00    +0.000 C 
ATOM     26  C   UNL     1      -0.457  13.586  18.600  0.00  0.00    +0.000 C 
ATOM     27  C   UNL     1      -1.083  12.222  18.894  0.00  0.00    +0.000 C 
ENDBRANCH  18  21
ENDBRANCH   1  18
TORSDOF 5
ENDMDL
MODEL 3
REMARK VINA RESULT:      -8.1      0.952      1.002
REMARK  Name = 
REMARK  7 active torsions:
REMARK  status: ('A' for Active; 'I' for Inactive)
REMARK    1  A    between atoms: C_1  and  C_2
REMARK    2  A    between atoms: C_3  and  C_4
REMARK    3  A    between atoms: C_4  and  C_5
REMARK    4  A    between atoms: C_9  and  C_10
REMARK    5  A    between atoms: C_10  and  C_11
REMARK    6  A    between atoms: C_11  and  C_12
REMARK    7  A    between atoms: N_16  and  C_17
REMARK                            x       y       z     vdW  Elec       q    Type
REMARK                         _______ _______ _______ _____ _____    ______ ____
ROOT
ATOM      1  C   UNL     1       1.761   8.698  18.950  0.00  0.00    +0.000 A 
ATOM      2  C   UNL     1       1.214   8.570  20.228  0.00  0.00    +0.000 A 
ATOM      3  C   UNL     1       1.407   7.398  20.951  0.00  0.00    +0.000 A 
ATOM      4  C   UNL     1       2.090   6.321  20.378  0.00  0.00    +0.000 A 
ATOM      5  C   UNL     1       2.571   6.371  19.057  0.00  0.00    +0.000 A 
ATOM      6  C   UNL     1       2.450   7.609  18.394  0.00  0.00    +0.000 A 
ENDROOT
BRANCH   5   7
ATOM      7  C   UNL     1       3.065   5.075  18.257  0.00  0.00    +0.000 C 
ATOM      8  C   UNL     1       1.876   4.239  17.688  0.00  0.00    +0.000 C 
ATOM      9  O   UNL     1       2.525   3.004  18.074  0.00  0.00    +0.000 OA
ATOM     10  C   UNL     1       3.349   3.748  19.017  0.00  0.00    +0.000 C 
BRANCH   7  11
ATOM     11  C   UNL     1       4.096   5.394  17.160  0.00  0.00    +0.000 C 
BRANCH  11  12
ATOM     12  C   UNL     1       5.514   5.226  17.593  0.00  0.00    +0.000 A 
ATOM     13  N   UNL     1       6.029   5.627  18.738  0.00  0.00    +0.000 NA
ATOM     14  N   UNL     1       7.333   5.198  18.799  0.00  0.00    +0.000 NA
ATOM     15  C   UNL     1       7.588   4.548  17.688  0.00  0.00    +0.000 A 
ATOM     16  N   UNL     1       6.486   4.563  16.890  0.00  0.00    +0.000 N 
ATOM     17  C   UNL     1       6.389   3.963  15.585  0.00  0.00    +0.000 C 
ENDBRANCH  11  12
ENDBRANCH   7  11
ENDBRANCH   5   7
BRANCH   1  18
ATOM     18  C   UNL     1       1.555   9.954  18.138  0.00  0.00    +0.000 C 
BRANCH  18  21
ATOM     19  C   UNL     1       1.557  12.630  19.371  0.00  0.00    +0.000 C 
ATOM     20  C   UNL     1       0.278  11.976  18.881  0.00  0.00    +0.000 C 
ATOM     21  C   UNL     1       0.246  10.728  18.333  0.00  0.00    +0.000 C 
ATOM     22  C   UNL     1      -1.032  10.022  17.904  0.00  0.00    +0.000 C 
ATOM     23  C   UNL     1      -2.149  10.940  17.454  0.00  0.00    +0.000 C 
ATOM     24  O   UNL     1      -2.348  11.176  16.254  0.00  0.00    +0.000 OA
ATOM     25  C   UNL     1      -3.016  11.546  18.526  0.00  0.00    +0.000 C 
ATOM     26  C   UNL     1      -2.185  12.173  19.634  0.00  0.00    +0.000 C 
ATOM     27  C   UNL     1      -0.929  12.876  19.118  0.00  0.00    +0.000 C 
ENDBRANCH  18  21
ENDBRANCH   1  18
TORSDOF 5
ENDMDL
MODEL 4
REMARK VINA RESULT:      -8.1      2.148      3.255
REMARK  Name = 
REMARK  7 active torsions:
REMARK  status: ('A' for Active; 'I' for Inactive)
REMARK    1  A    between atoms: C_1  and  C_2
REMARK    2  A    between atoms: C_3  and  C_4
REMARK    3  A    between atoms: C_4  and  C_5
REMARK    4  A    between atoms: C_9  and  C_10
REMARK    5  A    between atoms: C_10  and  C_11
REMARK    6  A    between atoms: C_11  and  C_12
REMARK    7  A    between atoms: N_16  and  C_17
REMARK                            x       y       z     vdW  Elec       q    Type
REMARK                         _______ _______ _______ _____ _____    ______ ____
ROOT
ATOM      1  C   UNL     1       0.944   9.579  19.304  0.00  0.00    +0.000 A 
ATOM      2  C   UNL     1       0.493   9.341  20.603  0.00  0.00    +0.000 A 
ATOM      3  C   UNL     1       0.960   8.237  21.309  0.00  0.00    +0.000 A 
ATOM      4  C   UNL     1       1.828   7.327  20.698  0.00  0.00    +0.000 A 
ATOM      5  C   UNL     1       2.229   7.475  19.358  0.00  0.00    +0.000 A 
ATOM      6  C   UNL     1       1.821   8.658  18.710  0.00  0.00    +0.000 A 
ENDROOT
BRANCH   5   7
ATOM      7  C   UNL     1       2.949   6.310  18.528  0.00  0.00    +0.000 C 
ATOM      8  C   UNL     1       4.123   5.653  19.321  0.00  0.00    +0.000 C 
ATOM      9  O   UNL     1       4.947   5.626  18.131  0.00  0.00    +0.000 OA
ATOM     10  C   UNL     1       4.099   6.651  17.538  0.00  0.00    +0.000 C 
BRANCH   7  11
ATOM     11  C   UNL     1       1.972   5.246  17.999  0.00  0.00    +0.000 C 
BRANCH  11  12
ATOM     12  C   UNL     1       1.777   4.090  18.921  0.00  0.00    +0.000 A 
ATOM     13  N   UNL     1       1.003   4.069  19.988  0.00  0.00    +0.000 NA
ATOM     14  N   UNL     1       1.015   2.797  20.507  0.00  0.00    +0.000 NA
ATOM     15  C   UNL     1       1.800   2.068  19.748  0.00  0.00    +0.000 A 
ATOM     16  N   UNL     1       2.320   2.842  18.758  0.00  0.00    +0.000 N 
ATOM     17  C   UNL     1       3.234   2.396  17.739  0.00  0.00    +0.000 C 
ENDBRANCH  11  12
ENDBRANCH   7  11
ENDBRANCH   5   7
BRANCH   1  18
ATOM     18  C   UNL     1       0.443  10.762  18.511  0.00  0.00    +0.000 C 
BRANCH  18  21
ATOM     19  C   UNL     1      -1.336  12.645  19.914  0.00  0.00    +0.000 C 
ATOM     20  C   UNL     1      -1.848  11.721  18.824  0.00  0.00    +0.000 C 
ATOM     21  C   UNL     1      -1.052  10.822  18.178  0.00  0.00    +0.000 C 
ATOM     22  C   UNL     1      -1.558   9.835  17.136  0.00  0.00    +0.000 C 
ATOM     23  C   UNL     1      -2.756  10.306  16.340  0.00  0.00    +0.000 C 
ATOM     24  O   UNL     1      -2.627  10.814  15.217  0.00  0.00    +0.000 OA
ATOM     25  C   UNL     1      -4.114  10.120  16.963  0.00  0.00    +0.000 C 
ATOM     26  C   UNL     1      -4.152  10.636  18.393  0.00  0.00    +0.000 C 
ATOM     27  C   UNL     1      -3.342  11.917  18.591  0.00  0.00    +0.000 C 
ENDBRANCH  18  21
ENDBRANCH   1  18
TORSDOF 5
ENDMDL
MODEL 5
REMARK VINA RESULT:      -7.9      2.060      3.211
REMARK  Name = 
REMARK  7 active torsions:
REMARK  status: ('A' for Active; 'I' for Inactive)
REMARK    1  A    between atoms: C_1  and  C_2
REMARK    2  A    between atoms: C_3  and  C_4
REMARK    3  A    between atoms: C_4  and  C_5
REMARK    4  A    between atoms: C_9  and  C_10
REMARK    5  A    between atoms: C_10  and  C_11
REMARK    6  A    between atoms: C_11  and  C_12
REMARK    7  A    between atoms: N_16  and  C_17
REMARK                            x       y       z     vdW  Elec       q    Type
REMARK                         _______ _______ _______ _____ _____    ______ ____
ROOT
ATOM      1  C   UNL     1       0.921   9.585  19.359  0.00  0.00    +0.000 A 
ATOM      2  C   UNL     1       0.481   9.291  20.650  0.00  0.00    +0.000 A 
ATOM      3  C   UNL     1       0.955   8.157  21.304  0.00  0.00    +0.000 A 
ATOM      4  C   UNL     1       1.819   7.276  20.648  0.00  0.00    +0.000 A 
ATOM      5  C   UNL     1       2.209   7.481  19.312  0.00  0.00    +0.000 A 
ATOM      6  C   UNL     1       1.795   8.692  18.719  0.00  0.00    +0.000 A 
ENDROOT
BRANCH   5   7
ATOM      7  C   UNL     1       2.923   6.355  18.427  0.00  0.00    +0.000 C 
ATOM      8  C   UNL     1       4.038   5.597  19.215  0.00  0.00    +0.000 C 
ATOM      9  O   UNL     1       4.912   5.627  18.061  0.00  0.00    +0.000 OA
ATOM     10  C   UNL     1       4.126   6.724  17.512  0.00  0.00    +0.000 C 
BRANCH   7  11
ATOM     11  C   UNL     1       1.933   5.370  17.781  0.00  0.00    +0.000 C 
BRANCH  11  12
ATOM     12  C   UNL     1       2.194   3.940  18.114  0.00  0.00    +0.000 A 
ATOM     13  N   UNL     1       2.941   3.104  17.420  0.00  0.00    +0.000 NA
ATOM     14  N   UNL     1       3.014   1.916  18.107  0.00  0.00    +0.000 NA
ATOM     15  C   UNL     1       2.307   2.051  19.205  0.00  0.00    +0.000 A 
ATOM     16  N   UNL     1       1.754   3.293  19.239  0.00  0.00    +0.000 N 
ATOM     17  C   UNL     1       0.903   3.802  20.283  0.00  0.00    +0.000 C 
ENDBRANCH  11  12
ENDBRANCH   7  11
ENDBRANCH   5   7
BRANCH   1  18
ATOM     18  C   UNL     1       0.413  10.800  18.622  0.00  0.00    +0.000 C 
BRANCH  18  21
ATOM     19  C   UNL     1      -1.478  12.636  19.938  0.00  0.00    +0.000 C 
ATOM     20  C   UNL     1      -1.912  11.705  18.820  0.00  0.00    +0.000 C 
ATOM     21  C   UNL     1      -1.064  10.827  18.214  0.00  0.00    +0.000 C 
ATOM     22  C   UNL     1      -1.494   9.832  17.146  0.00  0.00    +0.000 C 
ATOM     23  C   UNL     1      -2.660  10.278  16.290  0.00  0.00    +0.000 C 
ATOM     24  O   UNL     1      -2.487  10.793  15.177  0.00  0.00    +0.000 OA
ATOM     25  C   UNL     1      -4.044  10.058  16.844  0.00  0.00    +0.000 C 
ATOM     26  C   UNL     1      -4.166  10.568  18.271  0.00  0.00    +0.000 C 
ATOM     27  C   UNL     1      -3.397  11.867  18.513  0.00  0.00    +0.000 C 
ENDBRANCH  18  21
ENDBRANCH   1  18
TORSDOF 5
ENDMDL
MODEL 6
REMARK VINA RESULT:      -7.8      3.487      7.917
REMARK  Name = 
REMARK  7 active torsions:
REMARK  status: ('A' for Active; 'I' for Inactive)
REMARK    1  A    between atoms: C_1  and  C_2
REMARK    2  A    between atoms: C_3  and  C_4
REMARK    3  A    between atoms: C_4  and  C_5
REMARK    4  A    between atoms: C_9  and  C_10
REMARK    5  A    between atoms: C_10  and  C_11
REMARK    6  A    between atoms: C_11  and  C_12
REMARK    7  A    between atoms: N_16  and  C_17
REMARK                            x       y       z     vdW  Elec       q    Type
REMARK                         _______ _______ _______ _____ _____    ______ ____
ROOT
ATOM      1  C   UNL     1       2.054   7.900  19.027  0.00  0.00    +0.000 A 
ATOM      2  C   UNL     1       1.976   7.502  20.363  0.00  0.00    +0.000 A 
ATOM      3  C   UNL     1       1.160   8.199  21.248  0.00  0.00    +0.000 A 
ATOM      4  C   UNL     1       0.469   9.337  20.821  0.00  0.00    +0.000 A 
ATOM      5  C   UNL     1       0.597   9.831  19.510  0.00  0.00    +0.000 A 
ATOM      6  C   UNL     1       1.347   9.040  18.616  0.00  0.00    +0.000 A 
ENDROOT
BRANCH   5   7
ATOM      7  C   UNL     1       0.091  11.285  19.070  0.00  0.00    +0.000 C 
ATOM      8  C   UNL     1      -0.982  11.861  20.046  0.00  0.00    +0.000 C 
ATOM      9  O   UNL     1      -1.763  12.363  18.935  0.00  0.00    +0.000 OA
ATOM     10  C   UNL     1      -1.074  11.433  18.050  0.00  0.00    +0.000 C 
BRANCH   7  11
ATOM     11  C   UNL     1       1.238  12.286  18.851  0.00  0.00    +0.000 C 
BRANCH  11  12
ATOM     12  C   UNL     1       1.460  13.216  19.997  0.00  0.00    +0.000 A 
ATOM     13  N   UNL     1       2.127  12.942  21.101  0.00  0.00    +0.000 NA
ATOM     14  N   UNL     1       2.193  14.085  21.861  0.00  0.00    +0.000 NA
ATOM     15  C   UNL     1       1.561  15.032  21.206  0.00  0.00    +0.000 A 
ATOM     16  N   UNL     1       1.062  14.526  20.046  0.00  0.00    +0.000 N 
ATOM     17  C   UNL     1       0.298  15.262  19.072  0.00  0.00    +0.000 C 
ENDBRANCH  11  12
ENDBRANCH   7  11
ENDBRANCH   5   7
BRANCH   1  18
ATOM     18  C   UNL     1       2.942   7.170  18.049  0.00  0.00    +0.000 C 
BRANCH  18  21
ATOM     19  C   UNL     1       5.468   5.781  18.659  0.00  0.00    +0.000 C 
ATOM     20  C   UNL     1       4.170   5.024  18.442  0.00  0.00    +0.000 C 
ATOM     21  C   UNL     1       2.995   5.640  18.131  0.00  0.00    +0.000 C 
ATOM     22  C   UNL     1       1.700   4.898  17.835  0.00  0.00    +0.000 C 
ATOM     23  C   UNL     1       1.550   3.568  18.543  0.00  0.00    +0.000 C 
ATOM     24  O   UNL     1       0.903   3.465  19.595  0.00  0.00    +0.000 OA
ATOM     25  C   UNL     1       2.210   2.372  17.910  0.00  0.00    +0.000 C 
ATOM     26  C   UNL     1       3.659   2.656  17.548  0.00  0.00    +0.000 C 
ATOM     27  C   UNL     1       4.379   3.521  18.582  0.00  0.00    +0.000 C 
ENDBRANCH  18  21
ENDBRANCH   1  18
TORSDOF 5
ENDMDL
MODEL 7
REMARK VINA RESULT:      -7.7      3.968      8.062
REMARK  Name = 
REMARK  7 active torsions:
REMARK  status: ('A' for Active; 'I' for Inactive)
REMARK    1  A    between atoms: C_1  and  C_2
REMARK    2  A    between atoms: C_3  and  C_4
REMARK    3  A    between atoms: C_4  and  C_5
REMARK    4  A    between atoms: C_9  and  C_10
REMARK    5  A    between atoms: C_10  and  C_11
REMARK    6  A    between atoms: C_11  and  C_12
REMARK    7  A    between atoms: N_16  and  C_17
REMARK                            x       y       z     vdW  Elec       q    Type
REMARK                         _______ _______ _______ _____ _____    ______ ____
ROOT
ATOM      1  C   UNL     1       2.728   7.364  19.090  0.00  0.00    +0.000 A 
ATOM      2  C   UNL     1       2.585   7.853  17.790  0.00  0.00    +0.000 A 
ATOM      3  C   UNL     1       1.808   8.984  17.556  0.00  0.00    +0.000 A 
ATOM      4  C   UNL     1       1.116   9.593  18.607  0.00  0.00    +0.000 A 
ATOM      5  C   UNL     1       1.154   9.074  19.914  0.00  0.00    +0.000 A 
ATOM      6  C   UNL     1       2.032   7.994  20.133  0.00  0.00    +0.000 A 
ENDROOT
BRANCH   5   7
ATOM      7  C   UNL     1       0.142   9.535  21.067  0.00  0.00    +0.000 C 
ATOM      8  C   UNL     1       0.841   9.660  22.456  0.00  0.00    +0.000 C 
ATOM      9  O   UNL     1      -0.289   9.038  23.112  0.00  0.00    +0.000 OA
ATOM     10  C   UNL     1      -0.705   8.478  21.833  0.00  0.00    +0.000 C 
BRANCH   7  11
ATOM     11  C   UNL     1      -0.635  10.816  20.718  0.00  0.00    +0.000 C 
BRANCH  11  12
ATOM     12  C   UNL     1       0.011  12.069  21.207  0.00  0.00    +0.000 A 
ATOM     13  N   UNL     1       1.249  12.451  20.963  0.00  0.00    +0.000 NA
ATOM     14  N   UNL     1       1.428  13.703  21.501  0.00  0.00    +0.000 NA
ATOM     15  C   UNL     1       0.297  14.057  22.064  0.00  0.00    +0.000 A 
ATOM     16  N   UNL     1      -0.611  13.054  21.928  0.00  0.00    +0.000 N 
ATOM     17  C   UNL     1      -1.961  13.073  22.430  0.00  0.00    +0.000 C 
ENDBRANCH  11  12
ENDBRANCH   7  11
ENDBRANCH   5   7
BRANCH   1  18
ATOM     18  C   UNL     1       3.554   6.132  19.370  0.00  0.00    +0.000 C 
BRANCH  18  21
ATOM     19  C   UNL     1       3.642   4.193  17.154  0.00  0.00    +0.000 C 
ATOM     20  C   UNL     1       2.903   3.898  18.447  0.00  0.00    +0.000 C 
ATOM     21  C   UNL     1       2.824   4.788  19.476  0.00  0.00    +0.000 C 
ATOM     22  C   UNL     1       2.027   4.544  20.750  0.00  0.00    +0.000 C 
ATOM     23  C   UNL     1       1.906   3.092  21.159  0.00  0.00    +0.000 C 
ATOM     24  O   UNL     1       2.658   2.593  22.007  0.00  0.00    +0.000 OA
ATOM     25  C   UNL     1       0.822   2.279  20.499  0.00  0.00    +0.000 C 
ATOM     26  C   UNL     1       0.842   2.438  18.987  0.00  0.00    +0.000 C 
ATOM     27  C   UNL     1       2.255   2.518  18.409  0.00  0.00    +0.000 C 
ENDBRANCH  18  21
ENDBRANCH   1  18
TORSDOF 5
ENDMDL
MODEL 8
REMARK VINA RESULT:      -7.7      1.896      2.452
REMARK  Name = 
REMARK  7 active torsions:
REMARK  status: ('A' for Active; 'I' for Inactive)
REMARK    1  A    between atoms: C_1  and  C_2
REMARK    2  A    between atoms: C_3  and  C_4
REMARK    3  A    between atoms: C_4  and  C_5
REMARK    4  A    between atoms: C_9  and  C_10
REMARK    5  A    between atoms: C_10  and  C_11
REMARK    6  A    between atoms: C_11  and  C_12
REMARK    7  A    between atoms: N_16  and  C_17
REMARK                            x       y       z     vdW  Elec       q    Type
REMARK                         _______ _______ _______ _____ _____    ______ ____
ROOT
ATOM      1  C   UNL     1       1.634   8.686  19.271  0.00  0.00    +0.000 A 
ATOM      2  C   UNL     1       1.087   8.366  20.514  0.00  0.00    +0.000 A 
ATOM      3  C   UNL     1       1.361   7.132  21.096  0.00  0.00    +0.000 A 
ATOM      4  C   UNL     1       2.128   6.185  20.412  0.00  0.00    +0.000 A 
ATOM      5  C   UNL     1       2.617   6.429  19.115  0.00  0.00    +0.000 A 
ATOM      6  C   UNL     1       2.409   7.725  18.602  0.00  0.00    +0.000 A 
ENDROOT
BRANCH   5   7
ATOM      7  C   UNL     1       3.215   5.278  18.176  0.00  0.00    +0.000 C 
ATOM      8  C   UNL     1       2.099   4.387  17.544  0.00  0.00    +0.000 C 
ATOM      9  O   UNL     1       2.878   3.191  17.788  0.00  0.00    +0.000 OA
ATOM     10  C   UNL     1       3.650   3.916  18.788  0.00  0.00    +0.000 C 
BRANCH   7  11
ATOM     11  C   UNL     1       4.177   5.809  17.100  0.00  0.00    +0.000 C 
BRANCH  11  12
ATOM     12  C   UNL     1       5.614   5.513  17.371  0.00  0.00    +0.000 A 
ATOM     13  N   UNL     1       6.358   6.065  18.309  0.00  0.00    +0.000 NA
ATOM     14  N   UNL     1       7.589   5.454  18.301  0.00  0.00    +0.000 NA
ATOM     15  C   UNL     1       7.572   4.544  17.355  0.00  0.00    +0.000 A 
ATOM     16  N   UNL     1       6.365   4.563  16.728  0.00  0.00    +0.000 N 
ATOM     17  C   UNL     1       5.978   3.717  15.629  0.00  0.00    +0.000 C 
ENDBRANCH  11  12
ENDBRANCH   7  11
ENDBRANCH   5   7
BRANCH   1  18
ATOM     18  C   UNL     1       1.342  10.011  18.610  0.00  0.00    +0.000 C 
BRANCH  18  21
ATOM     19  C   UNL     1      -1.473  10.179  17.757  0.00  0.00    +0.000 C 
ATOM     20  C   UNL     1      -0.937  11.001  18.915  0.00  0.00    +0.000 C 
ATOM     21  C   UNL     1       0.367  10.963  19.312  0.00  0.00    +0.000 C 
ATOM     22  C   UNL     1       0.942  11.833  20.420  0.00  0.00    +0.000 C 
ATOM     23  C   UNL     1      -0.039  12.214  21.508  0.00  0.00    +0.000 C 
ATOM     24  O   UNL     1      -0.099  11.588  22.575  0.00  0.00    +0.000 OA
ATOM     25  C   UNL     1      -0.934  13.397  21.244  0.00  0.00    +0.000 C 
ATOM     26  C   UNL     1      -1.610  13.298  19.885  0.00  0.00    +0.000 C 
ATOM     27  C   UNL     1      -2.029  11.873  19.525  0.00  0.00    +0.000 C 
ENDBRANCH  18  21
ENDBRANCH   1  18
TORSDOF 5
ENDMDL
MODEL 9
REMARK VINA RESULT:      -7.7      2.536      3.917
REMARK  Name = 
REMARK  7 active torsions:
REMARK  status: ('A' for Active; 'I' for Inactive)
REMARK    1  A    between atoms: C_1  and  C_2
REMARK    2  A    between atoms: C_3  and  C_4
REMARK    3  A    between atoms: C_4  and  C_5
REMARK    4  A    between atoms: C_9  and  C_10
REMARK    5  A    between atoms: C_10  and  C_11
REMARK    6  A    between atoms: C_11  and  C_12
REMARK    7  A    between atoms: N_16  and  C_17
REMARK                            x       y       z     vdW  Elec       q    Type
REMARK                         _______ _______ _______ _____ _____    ______ ____
ROOT
ATOM      1  C   UNL     1       1.035   9.480  19.080  0.00  0.00    +0.000 A 
ATOM      2  C   UNL     1       0.644   9.321  20.411  0.00  0.00    +0.000 A 
ATOM      3  C   UNL     1       1.156   8.268  21.164  0.00  0.00    +0.000 A 
ATOM      4  C   UNL     1       2.008   7.330  20.574  0.00  0.00    +0.000 A 
ATOM      5  C   UNL     1       2.349   7.396  19.210  0.00  0.00    +0.000 A 
ATOM      6  C   UNL     1       1.898   8.532  18.508  0.00  0.00    +0.000 A 
ENDROOT
BRANCH   5   7
ATOM      7  C   UNL     1       3.047   6.188  18.425  0.00  0.00    +0.000 C 
ATOM      8  C   UNL     1       4.217   5.549  19.236  0.00  0.00    +0.000 C 
ATOM      9  O   UNL     1       5.033   5.461  18.043  0.00  0.00    +0.000 OA
ATOM     10  C   UNL     1       4.194   6.473  17.414  0.00  0.00    +0.000 C 
BRANCH   7  11
ATOM     11  C   UNL     1       2.051   5.117  17.947  0.00  0.00    +0.000 C 
BRANCH  11  12
ATOM     12  C   UNL     1       1.824   4.019  18.931  0.00  0.00    +0.000 A 
ATOM     13  N   UNL     1       1.047   4.077  19.995  0.00  0.00    +0.000 NA
ATOM     14  N   UNL     1       1.025   2.836  20.583  0.00  0.00    +0.000 NA
ATOM     15  C   UNL     1       1.792   2.046  19.868  0.00  0.00    +0.000 A 
ATOM     16  N   UNL     1       2.334   2.750  18.838  0.00  0.00    +0.000 N 
ATOM     17  C   UNL     1       3.239   2.225  17.849  0.00  0.00    +0.000 C 
ENDBRANCH  11  12
ENDBRANCH   7  11
ENDBRANCH   5   7
BRANCH   1  18
ATOM     18  C   UNL     1       0.485  10.605  18.237  0.00  0.00    +0.000 C 
BRANCH  18  21
ATOM     19  C   UNL     1      -1.956  12.138  18.847  0.00  0.00    +0.000 C 
ATOM     20  C   UNL     1      -0.571  12.706  19.095  0.00  0.00    +0.000 C 
ATOM     21  C   UNL     1       0.574  12.029  18.796  0.00  0.00    +0.000 C 
ATOM     22  C   UNL     1       1.971  12.608  18.965  0.00  0.00    +0.000 C 
ATOM     23  C   UNL     1       2.110  13.627  20.077  0.00  0.00    +0.000 C 
ATOM     24  O   UNL     1       2.538  13.309  21.195  0.00  0.00    +0.000 OA
ATOM     25  C   UNL     1       1.719  15.047  19.762  0.00  0.00    +0.000 C 
ATOM     26  C   UNL     1       0.351  15.119  19.101  0.00  0.00    +0.000 C 
ATOM     27  C   UNL     1      -0.648  14.114  19.675  0.00  0.00    +0.000 C 
ENDBRANCH  18  21
ENDBRANCH   1  18
TORSDOF 5
ENDMDL
