MODEL 1
REMARK VINA RESULT:      -9.0      0.000      0.000
REMARK  Name = 
REMARK  4 active torsions:
REMARK  status: ('A' for Active; 'I' for Inactive)
REMARK    1  A    between atoms: C_1  and  C_2
REMARK    2  A    between atoms: C_5  and  N_6
REMARK    3  A    between atoms: C_7  and  C_9
REMARK    4  A    between atoms: C_20  and  C_21
REMARK                            x       y       z     vdW  Elec       q    Type
REMARK                         _______ _______ _______ _____ _____    ______ ____
ROOT
ATOM      1  N   UNL     1       1.306   6.875  21.064  0.00  0.00    +0.000 N 
ATOM      2  C   UNL     1       1.257   8.125  20.459  0.00  0.00    +0.000 C 
ATOM      3  O   UNL     1       1.776   8.436  19.393  0.00  0.00    +0.000 OA
ATOM      4  H   UNL     1       0.787   6.724  21.918  0.00  0.00    +0.000 HD
ENDROOT
BRANCH   2   5
ATOM      5  C   UNL     1       0.473   9.182  21.121  0.00  0.00    +0.000 A 
ATOM      6  C   UNL     1       0.527   9.233  22.534  0.00  0.00    +0.000 A 
ATOM      7  N   UNL     1      -0.037  10.201  23.303  0.00  0.00    +0.000 NA
ATOM      8  C   UNL     1      -0.640  11.150  22.592  0.00  0.00    +0.000 A 
ATOM      9  N   UNL     1      -1.230  12.302  23.080  0.00  0.00    +0.000 N 
ATOM     10  C   UNL     1      -1.693  13.067  22.006  0.00  0.00    +0.000 A 
ATOM     11  O   UNL     1      -2.236  14.155  22.064  0.00  0.00    +0.000 OA
ATOM     12  N   UNL     1      -1.395  12.354  20.836  0.00  0.00    +0.000 N 
ATOM     13  C   UNL     1      -0.739  11.182  21.203  0.00  0.00    +0.000 A 
ATOM     14  C   UNL     1      -0.193  10.192  20.421  0.00  0.00    +0.000 A 
ATOM     15  H   UNL     1      -1.261  12.566  24.050  0.00  0.00    +0.000 HD
ATOM     16  H   UNL     1      -1.595  12.693  19.912  0.00  0.00    +0.000 HD
ENDBRANCH   2   5
BRANCH   1  21
ATOM     17  C   UNL     1       4.072   2.219  19.172  0.00  0.00    +0.000 C 
ATOM     18  C   UNL     1       3.393   3.507  19.560  0.00  0.00    +0.000 A 
ATOM     19  C   UNL     1       2.079   3.384  20.035  0.00  0.00    +0.000 A 
ATOM     20  C   UNL     1       1.371   4.490  20.482  0.00  0.00    +0.000 A 
ATOM     21  C   UNL     1       1.963   5.748  20.510  0.00  0.00    +0.000 A 
ATOM     22  C   UNL     1       3.261   5.896  19.997  0.00  0.00    +0.000 A 
ATOM     23  C   UNL     1       3.976   4.796  19.472  0.00  0.00    +0.000 A 
BRANCH  23  24
ATOM     24  C   UNL     1       5.384   4.973  18.963  0.00  0.00    +0.000 C 
ATOM     25  O   UNL     1       6.300   4.846  19.777  0.00  0.00    +0.000 OA
ATOM     26  N   UNL     1       5.673   5.274  17.625  0.00  0.00    +0.000 N 
ATOM     27  C   UNL     1       4.736   5.492  16.518  0.00  0.00    +0.000 C 
ATOM     28  C   UNL     1       5.260   4.940  15.181  0.00  0.00    +0.000 C 
ATOM     29  O   UNL     1       6.598   5.368  14.909  0.00  0.00    +0.000 OA
ATOM     30  C   UNL     1       7.479   4.954  15.961  0.00  0.00    +0.000 C 
ATOM     31  C   UNL     1       7.067   5.606  17.282  0.00  0.00    +0.000 C 
ENDBRANCH  23  24
ENDBRANCH   1  21
TORSDOF 3
ENDMDL
MODEL 2
REMARK VINA RESULT:      -8.9      1.451      2.019
REMARK  Name = 
REMARK  4 active torsions:
REMARK  status: ('A' for Active; 'I' for Inactive)
REMARK    1  A    between atoms: C_1  and  C_2
REMARK    2  A    between atoms: C_5  and  N_6
REMARK    3  A    between atoms: C_7  and  C_9
REMARK    4  A    between atoms: C_20  and  C_21
REMARK                            x       y       z     vdW  Elec       q    Type
REMARK                         _______ _______ _______ _____ _____    ______ ____
ROOT
ATOM      1  N   UNL     1       1.583   6.473  20.897  0.00  0.00    +0.000 N 
ATOM      2  C   UNL     1       1.743   7.671  20.212  0.00  0.00    +0.000 C 
ATOM      3  O   UNL     1       2.403   7.840  19.193  0.00  0.00    +0.000 OA
ATOM      4  H   UNL     1       0.963   6.445  21.696  0.00  0.00    +0.000 HD
ENDROOT
BRANCH   2   5
ATOM      5  C   UNL     1       1.023   8.855  20.711  0.00  0.00    +0.000 A 
ATOM      6  C   UNL     1       0.857   9.933  19.811  0.00  0.00    +0.000 A 
ATOM      7  N   UNL     1       0.128  11.053  20.060  0.00  0.00    +0.000 NA
ATOM      8  C   UNL     1      -0.465  11.039  21.250  0.00  0.00    +0.000 A 
ATOM      9  N   UNL     1      -1.335  11.989  21.754  0.00  0.00    +0.000 N 
ATOM     10  C   UNL     1      -1.786  11.574  23.010  0.00  0.00    +0.000 A 
ATOM     11  O   UNL     1      -2.583  12.150  23.727  0.00  0.00    +0.000 OA
ATOM     12  N   UNL     1      -1.162  10.349  23.285  0.00  0.00    +0.000 N 
ATOM     13  C   UNL     1      -0.360  10.021  22.196  0.00  0.00    +0.000 A 
ATOM     14  C   UNL     1       0.397   8.898  21.960  0.00  0.00    +0.000 A 
ATOM     15  H   UNL     1      -1.633  12.814  21.262  0.00  0.00    +0.000 HD
ATOM     16  H   UNL     1      -1.332   9.812  24.118  0.00  0.00    +0.000 HD
ENDBRANCH   2   5
BRANCH   1  21
ATOM     17  C   UNL     1       4.234   1.602  19.429  0.00  0.00    +0.000 C 
ATOM     18  C   UNL     1       3.478   2.879  19.693  0.00  0.00    +0.000 A 
ATOM     19  C   UNL     1       2.915   3.000  20.972  0.00  0.00    +0.000 A 
ATOM     20  C   UNL     1       2.249   4.155  21.356  0.00  0.00    +0.000 A 
ATOM     21  C   UNL     1       2.158   5.242  20.495  0.00  0.00    +0.000 A 
ATOM     22  C   UNL     1       2.676   5.120  19.196  0.00  0.00    +0.000 A 
ATOM     23  C   UNL     1       3.298   3.930  18.758  0.00  0.00    +0.000 A 
BRANCH  23  24
ATOM     24  C   UNL     1       3.881   3.838  17.372  0.00  0.00    +0.000 C 
ATOM     25  O   UNL     1       3.183   3.324  16.497  0.00  0.00    +0.000 OA
ATOM     26  N   UNL     1       5.165   4.306  17.058  0.00  0.00    +0.000 N 
ATOM     27  C   UNL     1       6.155   4.916  17.950  0.00  0.00    +0.000 C 
ATOM     28  C   UNL     1       6.963   6.031  17.265  0.00  0.00    +0.000 C 
ATOM     29  O   UNL     1       7.492   5.614  16.002  0.00  0.00    +0.000 OA
ATOM     30  C   UNL     1       6.432   5.203  15.128  0.00  0.00    +0.000 C 
ATOM     31  C   UNL     1       5.699   3.997  15.720  0.00  0.00    +0.000 C 
ENDBRANCH  23  24
ENDBRANCH   1  21
TORSDOF 3
ENDMDL
MODEL 3
REMARK VINA RESULT:      -8.8      0.800      1.304
REMARK  Name = 
REMARK  4 active torsions:
REMARK  status: ('A' for Active; 'I' for Inactive)
REMARK    1  A    between atoms: C_1  and  C_2
REMARK    2  A    between atoms: C_5  and  N_6
REMARK    3  A    between atoms: C_7  and  C_9
REMARK    4  A    between atoms: C_20  and  C_21
REMARK                            x       y       z     vdW  Elec       q    Type
REMARK                         _______ _______ _______ _____ _____    ______ ____
ROOT
ATOM      1  N   UNL     1       1.495   7.190  20.823  0.00  0.00    +0.000 N 
ATOM      2  C   UNL     1       1.439   8.353  20.066  0.00  0.00    +0.000 C 
ATOM      3  O   UNL     1       1.902   8.510  18.942  0.00  0.00    +0.000 OA
ATOM      4  H   UNL     1       1.023   7.163  21.716  0.00  0.00    +0.000 HD
ENDROOT
BRANCH   2   5
ATOM      5  C   UNL     1       0.721   9.509  20.629  0.00  0.00    +0.000 A 
ATOM      6  C   UNL     1       0.572  10.642  19.794  0.00  0.00    +0.000 A 
ATOM      7  N   UNL     1      -0.153  11.749  20.102  0.00  0.00    +0.000 NA
ATOM      8  C   UNL     1      -0.760  11.666  21.282  0.00  0.00    +0.000 A 
ATOM      9  N   UNL     1      -1.630  12.590  21.833  0.00  0.00    +0.000 N 
ATOM     10  C   UNL     1      -2.099  12.102  23.056  0.00  0.00    +0.000 A 
ATOM     11  O   UNL     1      -2.902  12.639  23.797  0.00  0.00    +0.000 OA
ATOM     12  N   UNL     1      -1.485  10.858  23.263  0.00  0.00    +0.000 N 
ATOM     13  C   UNL     1      -0.673  10.593  22.165  0.00  0.00    +0.000 A 
ATOM     14  C   UNL     1       0.081   9.481  21.871  0.00  0.00    +0.000 A 
ATOM     15  H   UNL     1      -1.918  13.446  21.389  0.00  0.00    +0.000 HD
ATOM     16  H   UNL     1      -1.669  10.274  24.059  0.00  0.00    +0.000 HD
ENDBRANCH   2   5
BRANCH   1  21
ATOM     17  C   UNL     1       4.017   2.237  19.400  0.00  0.00    +0.000 C 
ATOM     18  C   UNL     1       3.405   3.589  19.659  0.00  0.00    +0.000 A 
ATOM     19  C   UNL     1       2.089   3.579  20.144  0.00  0.00    +0.000 A 
ATOM     20  C   UNL     1       1.439   4.758  20.480  0.00  0.00    +0.000 A 
ATOM     21  C   UNL     1       2.092   5.981  20.383  0.00  0.00    +0.000 A 
ATOM     22  C   UNL     1       3.394   6.013  19.857  0.00  0.00    +0.000 A 
ATOM     23  C   UNL     1       4.051   4.833  19.444  0.00  0.00    +0.000 A 
BRANCH  23  24
ATOM     24  C   UNL     1       5.462   4.888  18.919  0.00  0.00    +0.000 C 
ATOM     25  O   UNL     1       6.372   4.650  19.715  0.00  0.00    +0.000 OA
ATOM     26  N   UNL     1       5.763   5.198  17.585  0.00  0.00    +0.000 N 
ATOM     27  C   UNL     1       4.839   5.537  16.498  0.00  0.00    +0.000 C 
ATOM     28  C   UNL     1       5.290   4.975  15.140  0.00  0.00    +0.000 C 
ATOM     29  O   UNL     1       6.660   5.281  14.860  0.00  0.00    +0.000 OA
ATOM     30  C   UNL     1       7.510   4.754  15.887  0.00  0.00    +0.000 C 
ATOM     31  C   UNL     1       7.178   5.405  17.231  0.00  0.00    +0.000 C 
ENDBRANCH  23  24
ENDBRANCH   1  21
TORSDOF 3
ENDMDL
MODEL 4
REMARK VINA RESULT:      -8.6      1.242      1.558
REMARK  Name = 
REMARK  4 active torsions:
REMARK  status: ('A' for Active; 'I' for Inactive)
REMARK    1  A    between atoms: C_1  and  C_2
REMARK    2  A    between atoms: C_5  and  N_6
REMARK    3  A    between atoms: C_7  and  C_9
REMARK    4  A    between atoms: C_20  and  C_21
REMARK                            x       y       z     vdW  Elec       q    Type
REMARK                         _______ _______ _______ _____ _____    ______ ____
ROOT
ATOM      1  N   UNL     1       1.432   6.440  21.047  0.00  0.00    +0.000 N 
ATOM      2  C   UNL     1       1.576   7.665  20.407  0.00  0.00    +0.000 C 
ATOM      3  O   UNL     1       2.244   7.885  19.403  0.00  0.00    +0.000 OA
ATOM      4  H   UNL     1       0.805   6.371  21.836  0.00  0.00    +0.000 HD
ENDROOT
BRANCH   2   5
ATOM      5  C   UNL     1       0.826   8.815  20.940  0.00  0.00    +0.000 A 
ATOM      6  C   UNL     1       0.933   9.063  22.329  0.00  0.00    +0.000 A 
ATOM      7  N   UNL     1       0.405  10.137  22.973  0.00  0.00    +0.000 NA
ATOM      8  C   UNL     1      -0.216  10.984  22.158  0.00  0.00    +0.000 A 
ATOM      9  N   UNL     1      -0.777  12.202  22.500  0.00  0.00    +0.000 N 
ATOM     10  C   UNL     1      -1.274  12.814  21.345  0.00  0.00    +0.000 A 
ATOM     11  O   UNL     1      -1.806  13.906  21.269  0.00  0.00    +0.000 OA
ATOM     12  N   UNL     1      -1.025  11.940  20.278  0.00  0.00    +0.000 N 
ATOM     13  C   UNL     1      -0.366  10.823  20.783  0.00  0.00    +0.000 A 
ATOM     14  C   UNL     1       0.143   9.725  20.130  0.00  0.00    +0.000 A 
ATOM     15  H   UNL     1      -0.770  12.600  23.423  0.00  0.00    +0.000 HD
ATOM     16  H   UNL     1      -1.257  12.148  19.323  0.00  0.00    +0.000 HD
ENDBRANCH   2   5
BRANCH   1  21
ATOM     17  C   UNL     1       4.202   1.685  19.424  0.00  0.00    +0.000 C 
ATOM     18  C   UNL     1       3.413   2.932  19.730  0.00  0.00    +0.000 A 
ATOM     19  C   UNL     1       2.868   3.007  21.020  0.00  0.00    +0.000 A 
ATOM     20  C   UNL     1       2.175   4.133  21.441  0.00  0.00    +0.000 A 
ATOM     21  C   UNL     1       2.037   5.236  20.607  0.00  0.00    +0.000 A 
ATOM     22  C   UNL     1       2.538   5.160  19.297  0.00  0.00    +0.000 A 
ATOM     23  C   UNL     1       3.187   3.998  18.823  0.00  0.00    +0.000 A 
BRANCH  23  24
ATOM     24  C   UNL     1       3.751   3.955  17.426  0.00  0.00    +0.000 C 
ATOM     25  O   UNL     1       3.031   3.492  16.540  0.00  0.00    +0.000 OA
ATOM     26  N   UNL     1       5.038   4.414  17.114  0.00  0.00    +0.000 N 
ATOM     27  C   UNL     1       6.051   4.967  18.018  0.00  0.00    +0.000 C 
ATOM     28  C   UNL     1       6.870   6.096  17.369  0.00  0.00    +0.000 C 
ATOM     29  O   UNL     1       7.375   5.724  16.082  0.00  0.00    +0.000 OA
ATOM     30  C   UNL     1       6.296   5.370  15.207  0.00  0.00    +0.000 C 
ATOM     31  C   UNL     1       5.549   4.153  15.757  0.00  0.00    +0.000 C 
ENDBRANCH  23  24
ENDBRANCH   1  21
TORSDOF 3
ENDMDL
MODEL 5
REMARK VINA RESULT:      -8.3      2.510      9.228
REMARK  Name = 
REMARK  4 active torsions:
REMARK  status: ('A' for Active; 'I' for Inactive)
REMARK    1  A    between atoms: C_1  and  C_2
REMARK    2  A    between atoms: C_5  and  N_6
REMARK    3  A    between atoms: C_7  and  C_9
REMARK    4  A    between atoms: C_20  and  C_21
REMARK                            x       y       z     vdW  Elec       q    Type
REMARK                         _______ _______ _______ _____ _____    ______ ____
ROOT
ATOM      1  N   UNL     1       1.317   7.780  21.111  0.00  0.00    +0.000 N 
ATOM      2  C   UNL     1       1.884   7.630  19.852  0.00  0.00    +0.000 C 
ATOM      3  O   UNL     1       1.853   8.449  18.940  0.00  0.00    +0.000 OA
ATOM      4  H   UNL     1       1.460   7.057  21.802  0.00  0.00    +0.000 HD
ENDROOT
BRANCH   2   5
ATOM      5  C   UNL     1       2.640   6.396  19.577  0.00  0.00    +0.000 A 
ATOM      6  C   UNL     1       3.706   6.489  18.652  0.00  0.00    +0.000 A 
ATOM      7  N   UNL     1       4.577   5.487  18.362  0.00  0.00    +0.000 NA
ATOM      8  C   UNL     1       4.358   4.381  19.068  0.00  0.00    +0.000 A 
ATOM      9  N   UNL     1       5.121   3.227  19.059  0.00  0.00    +0.000 N 
ATOM     10  C   UNL     1       4.592   2.324  19.985  0.00  0.00    +0.000 A 
ATOM     11  O   UNL     1       5.029   1.221  20.261  0.00  0.00    +0.000 OA
ATOM     12  N   UNL     1       3.469   2.936  20.559  0.00  0.00    +0.000 N 
ATOM     13  C   UNL     1       3.337   4.203  19.999  0.00  0.00    +0.000 A 
ATOM     14  C   UNL     1       2.437   5.204  20.277  0.00  0.00    +0.000 A 
ATOM     15  H   UNL     1       5.955   3.093  18.513  0.00  0.00    +0.000 HD
ATOM     16  H   UNL     1       2.915   2.513  21.283  0.00  0.00    +0.000 HD
ENDBRANCH   2   5
BRANCH   1  21
ATOM     17  C   UNL     1      -1.821  12.281  22.786  0.00  0.00    +0.000 C 
ATOM     18  C   UNL     1      -0.917  11.187  22.282  0.00  0.00    +0.000 A 
ATOM     19  C   UNL     1      -0.597  10.185  23.209  0.00  0.00    +0.000 A 
ATOM     20  C   UNL     1       0.176   9.091  22.846  0.00  0.00    +0.000 A 
ATOM     21  C   UNL     1       0.621   8.939  21.538  0.00  0.00    +0.000 A 
ATOM     22  C   UNL     1       0.348   9.956  20.609  0.00  0.00    +0.000 A 
ATOM     23  C   UNL     1      -0.378  11.112  20.972  0.00  0.00    +0.000 A 
BRANCH  23  24
ATOM     24  C   UNL     1      -0.692  12.170  19.946  0.00  0.00    +0.000 C 
ATOM     25  O   UNL     1      -1.680  11.991  19.233  0.00  0.00    +0.000 OA
ATOM     26  N   UNL     1       0.090  13.322  19.783  0.00  0.00    +0.000 N 
ATOM     27  C   UNL     1       1.308  13.705  20.503  0.00  0.00    +0.000 C 
ATOM     28  C   UNL     1       1.397  15.220  20.753  0.00  0.00    +0.000 C 
ATOM     29  O   UNL     1       1.159  15.977  19.561  0.00  0.00    +0.000 OA
ATOM     30  C   UNL     1      -0.135  15.668  19.024  0.00  0.00    +0.000 C 
ATOM     31  C   UNL     1      -0.204  14.192  18.630  0.00  0.00    +0.000 C 
ENDBRANCH  23  24
ENDBRANCH   1  21
TORSDOF 3
ENDMDL
MODEL 6
REMARK VINA RESULT:      -8.3      2.664      3.135
REMARK  Name = 
REMARK  4 active torsions:
REMARK  status: ('A' for Active; 'I' for Inactive)
REMARK    1  A    between atoms: C_1  and  C_2
REMARK    2  A    between atoms: C_5  and  N_6
REMARK    3  A    between atoms: C_7  and  C_9
REMARK    4  A    between atoms: C_20  and  C_21
REMARK                            x       y       z     vdW  Elec       q    Type
REMARK                         _______ _______ _______ _____ _____    ______ ____
ROOT
ATOM      1  N   UNL     1       1.830   8.298  19.583  0.00  0.00    +0.000 N 
ATOM      2  C   UNL     1       1.898   9.059  18.423  0.00  0.00    +0.000 C 
ATOM      3  O   UNL     1       2.220   8.657  17.310  0.00  0.00    +0.000 OA
ATOM      4  H   UNL     1       1.493   8.730  20.433  0.00  0.00    +0.000 HD
ENDROOT
BRANCH   2   5
ATOM      5  C   UNL     1       1.508  10.477  18.503  0.00  0.00    +0.000 A 
ATOM      6  C   UNL     1       0.291  10.772  19.161  0.00  0.00    +0.000 A 
ATOM      7  N   UNL     1      -0.170  12.022  19.427  0.00  0.00    +0.000 NA
ATOM      8  C   UNL     1       0.660  12.982  19.030  0.00  0.00    +0.000 A 
ATOM      9  N   UNL     1       0.511  14.343  19.232  0.00  0.00    +0.000 N 
ATOM     10  C   UNL     1       1.630  15.005  18.719  0.00  0.00    +0.000 A 
ATOM     11  O   UNL     1       1.848  16.202  18.752  0.00  0.00    +0.000 OA
ATOM     12  N   UNL     1       2.472  14.025  18.175  0.00  0.00    +0.000 N 
ATOM     13  C   UNL     1       1.875  12.785  18.378  0.00  0.00    +0.000 A 
ATOM     14  C   UNL     1       2.334  11.523  18.084  0.00  0.00    +0.000 A 
ATOM     15  H   UNL     1      -0.255  14.771  19.724  0.00  0.00    +0.000 HD
ATOM     16  H   UNL     1       3.366  14.227  17.763  0.00  0.00    +0.000 HD
ENDBRANCH   2   5
BRANCH   1  21
ATOM     17  C   UNL     1       3.286   2.765  20.002  0.00  0.00    +0.000 C 
ATOM     18  C   UNL     1       2.858   4.190  19.768  0.00  0.00    +0.000 A 
ATOM     19  C   UNL     1       2.211   4.817  20.842  0.00  0.00    +0.000 A 
ATOM     20  C   UNL     1       1.826   6.148  20.770  0.00  0.00    +0.000 A 
ATOM     21  C   UNL     1       2.110   6.910  19.643  0.00  0.00    +0.000 A 
ATOM     22  C   UNL     1       2.718   6.286  18.541  0.00  0.00    +0.000 A 
ATOM     23  C   UNL     1       3.057   4.914  18.565  0.00  0.00    +0.000 A 
BRANCH  23  24
ATOM     24  C   UNL     1       3.744   4.277  17.384  0.00  0.00    +0.000 C 
ATOM     25  O   UNL     1       3.060   3.566  16.648  0.00  0.00    +0.000 OA
ATOM     26  N   UNL     1       5.106   4.465  17.109  0.00  0.00    +0.000 N 
ATOM     27  C   UNL     1       6.090   5.242  17.869  0.00  0.00    +0.000 C 
ATOM     28  C   UNL     1       7.112   5.950  16.964  0.00  0.00    +0.000 C 
ATOM     29  O   UNL     1       7.686   5.060  16.001  0.00  0.00    +0.000 OA
ATOM     30  C   UNL     1       6.661   4.482  15.182  0.00  0.00    +0.000 C 
ATOM     31  C   UNL     1       5.708   3.648  16.040  0.00  0.00    +0.000 C 
ENDBRANCH  23  24
ENDBRANCH   1  21
TORSDOF 3
ENDMDL
MODEL 7
REMARK VINA RESULT:      -8.3      2.367      9.762
REMARK  Name = 
REMARK  4 active torsions:
REMARK  status: ('A' for Active; 'I' for Inactive)
REMARK    1  A    between atoms: C_1  and  C_2
REMARK    2  A    between atoms: C_5  and  N_6
REMARK    3  A    between atoms: C_7  and  C_9
REMARK    4  A    between atoms: C_20  and  C_21
REMARK                            x       y       z     vdW  Elec       q    Type
REMARK                         _______ _______ _______ _____ _____    ______ ____
ROOT
ATOM      1  N   UNL     1       2.042   8.713  17.857  0.00  0.00    +0.000 N 
ATOM      2  C   UNL     1       2.443   7.658  18.668  0.00  0.00    +0.000 C 
ATOM      3  O   UNL     1       1.954   7.349  19.749  0.00  0.00    +0.000 OA
ATOM      4  H   UNL     1       2.484   8.834  16.956  0.00  0.00    +0.000 HD
ENDROOT
BRANCH   2   5
ATOM      5  C   UNL     1       3.525   6.786  18.182  0.00  0.00    +0.000 A 
ATOM      6  C   UNL     1       3.556   5.462  18.679  0.00  0.00    +0.000 A 
ATOM      7  N   UNL     1       4.409   4.491  18.260  0.00  0.00    +0.000 NA
ATOM      8  C   UNL     1       5.222   4.891  17.287  0.00  0.00    +0.000 A 
ATOM      9  N   UNL     1       6.139   4.114  16.601  0.00  0.00    +0.000 N 
ATOM     10  C   UNL     1       6.749   4.894  15.614  0.00  0.00    +0.000 A 
ATOM     11  O   UNL     1       7.582   4.528  14.806  0.00  0.00    +0.000 OA
ATOM     12  N   UNL     1       6.204   6.182  15.714  0.00  0.00    +0.000 N 
ATOM     13  C   UNL     1       5.260   6.170  16.737  0.00  0.00    +0.000 A 
ATOM     14  C   UNL     1       4.418   7.164  17.175  0.00  0.00    +0.000 A 
ATOM     15  H   UNL     1       6.290   3.131  16.755  0.00  0.00    +0.000 HD
ATOM     16  H   UNL     1       6.449   6.938  15.100  0.00  0.00    +0.000 HD
ENDBRANCH   2   5
BRANCH   1  21
ATOM     17  C   UNL     1      -2.244  12.420  18.755  0.00  0.00    +0.000 C 
ATOM     18  C   UNL     1      -1.081  11.468  18.648  0.00  0.00    +0.000 A 
ATOM     19  C   UNL     1      -1.338  10.266  17.972  0.00  0.00    +0.000 A 
ATOM     20  C   UNL     1      -0.331   9.336  17.754  0.00  0.00    +0.000 A 
ATOM     21  C   UNL     1       0.972   9.591  18.164  0.00  0.00    +0.000 A 
ATOM     22  C   UNL     1       1.237  10.769  18.881  0.00  0.00    +0.000 A 
ATOM     23  C   UNL     1       0.215  11.699  19.176  0.00  0.00    +0.000 A 
BRANCH  23  24
ATOM     24  C   UNL     1       0.532  12.974  19.913  0.00  0.00    +0.000 C 
ATOM     25  O   UNL     1       1.134  13.851  19.292  0.00  0.00    +0.000 OA
ATOM     26  N   UNL     1       0.173  13.185  21.252  0.00  0.00    +0.000 N 
ATOM     27  C   UNL     1      -0.513  12.267  22.166  0.00  0.00    +0.000 C 
ATOM     28  C   UNL     1      -1.479  12.991  23.118  0.00  0.00    +0.000 C 
ATOM     29  O   UNL     1      -0.861  14.108  23.765  0.00  0.00    +0.000 OA
ATOM     30  C   UNL     1      -0.377  15.043  22.793  0.00  0.00    +0.000 C 
ATOM     31  C   UNL     1       0.696  14.389  21.920  0.00  0.00    +0.000 C 
ENDBRANCH  23  24
ENDBRANCH   1  21
TORSDOF 3
ENDMDL
MODEL 8
REMARK VINA RESULT:      -8.2      3.210      9.332
REMARK  Name = 
REMARK  4 active torsions:
REMARK  status: ('A' for Active; 'I' for Inactive)
REMARK    1  A    between atoms: C_1  and  C_2
REMARK    2  A    between atoms: C_5  and  N_6
REMARK    3  A    between atoms: C_7  and  C_9
REMARK    4  A    between atoms: C_20  and  C_21
REMARK                            x       y       z     vdW  Elec       q    Type
REMARK                         _______ _______ _______ _____ _____    ______ ____
ROOT
ATOM      1  N   UNL     1       2.028   8.621  17.829  0.00  0.00    +0.000 N 
ATOM      2  C   UNL     1       2.493   7.579  18.622  0.00  0.00    +0.000 C 
ATOM      3  O   UNL     1       2.184   7.362  19.789  0.00  0.00    +0.000 OA
ATOM      4  H   UNL     1       2.310   8.662  16.860  0.00  0.00    +0.000 HD
ENDROOT
BRANCH   2   5
ATOM      5  C   UNL     1       3.409   6.601  18.010  0.00  0.00    +0.000 A 
ATOM      6  C   UNL     1       3.265   5.251  18.407  0.00  0.00    +0.000 A 
ATOM      7  N   UNL     1       3.943   4.203  17.869  0.00  0.00    +0.000 NA
ATOM      8  C   UNL     1       4.759   4.558  16.882  0.00  0.00    +0.000 A 
ATOM      9  N   UNL     1       5.516   3.714  16.088  0.00  0.00    +0.000 N 
ATOM     10  C   UNL     1       6.187   4.474  15.126  0.00  0.00    +0.000 A 
ATOM     11  O   UNL     1       6.917   4.058  14.245  0.00  0.00    +0.000 OA
ATOM     12  N   UNL     1       5.846   5.816  15.352  0.00  0.00    +0.000 N 
ATOM     13  C   UNL     1       4.961   5.858  16.425  0.00  0.00    +0.000 A 
ATOM     14  C   UNL     1       4.298   6.925  16.983  0.00  0.00    +0.000 A 
ATOM     15  H   UNL     1       5.526   2.711  16.161  0.00  0.00    +0.000 HD
ATOM     16  H   UNL     1       6.171   6.575  14.780  0.00  0.00    +0.000 HD
ENDBRANCH   2   5
BRANCH   1  21
ATOM     17  C   UNL     1      -1.699  12.744  19.253  0.00  0.00    +0.000 C 
ATOM     18  C   UNL     1      -0.677  11.663  19.007  0.00  0.00    +0.000 A 
ATOM     19  C   UNL     1      -1.108  10.586  18.219  0.00  0.00    +0.000 A 
ATOM     20  C   UNL     1      -0.241   9.561  17.871  0.00  0.00    +0.000 A 
ATOM     21  C   UNL     1       1.093   9.595  18.261  0.00  0.00    +0.000 A 
ATOM     22  C   UNL     1       1.529  10.643  19.089  0.00  0.00    +0.000 A 
ATOM     23  C   UNL     1       0.648  11.662  19.513  0.00  0.00    +0.000 A 
BRANCH  23  24
ATOM     24  C   UNL     1       1.149  12.797  20.368  0.00  0.00    +0.000 C 
ATOM     25  O   UNL     1       0.950  12.722  21.581  0.00  0.00    +0.000 OA
ATOM     26  N   UNL     1       1.816  13.910  19.835  0.00  0.00    +0.000 N 
ATOM     27  C   UNL     1       2.123  14.201  18.431  0.00  0.00    +0.000 C 
ATOM     28  C   UNL     1       3.484  14.895  18.255  0.00  0.00    +0.000 C 
ATOM     29  O   UNL     1       3.634  16.016  19.131  0.00  0.00    +0.000 OA
ATOM     30  C   UNL     1       3.495  15.604  20.497  0.00  0.00    +0.000 C 
ATOM     31  C   UNL     1       2.094  15.039  20.739  0.00  0.00    +0.000 C 
ENDBRANCH  23  24
ENDBRANCH   1  21
TORSDOF 3
ENDMDL
MODEL 9
REMARK VINA RESULT:      -8.2      2.294      2.608
REMARK  Name = 
REMARK  4 active torsions:
REMARK  status: ('A' for Active; 'I' for Inactive)
REMARK    1  A    between atoms: C_1  and  C_2
REMARK    2  A    between atoms: C_5  and  N_6
REMARK    3  A    between atoms: C_7  and  C_9
REMARK    4  A    between atoms: C_20  and  C_21
REMARK                            x       y       z     vdW  Elec       q    Type
REMARK                         _______ _______ _______ _____ _____    ______ ____
ROOT
ATOM      1  N   UNL     1       1.846   8.241  19.665  0.00  0.00    +0.000 N 
ATOM      2  C   UNL     1       0.896   8.868  20.462  0.00  0.00    +0.000 C 
ATOM      3  O   UNL     1       0.169   8.325  21.286  0.00  0.00    +0.000 OA
ATOM      4  H   UNL     1       2.429   8.806  19.063  0.00  0.00    +0.000 HD
ENDROOT
BRANCH   2   5
ATOM      5  C   UNL     1       0.764  10.331  20.358  0.00  0.00    +0.000 A 
ATOM      6  C   UNL     1       0.425  11.031  21.540  0.00  0.00    +0.000 A 
ATOM      7  N   UNL     1       0.371  12.384  21.657  0.00  0.00    +0.000 NA
ATOM      8  C   UNL     1       0.703  13.021  20.539  0.00  0.00    +0.000 A 
ATOM      9  N   UNL     1       0.823  14.389  20.368  0.00  0.00    +0.000 N 
ATOM     10  C   UNL     1       1.253  14.650  19.064  0.00  0.00    +0.000 A 
ATOM     11  O   UNL     1       1.492  15.740  18.578  0.00  0.00    +0.000 OA
ATOM     12  N   UNL     1       1.381  13.411  18.419  0.00  0.00    +0.000 N 
ATOM     13  C   UNL     1       1.052  12.415  19.334  0.00  0.00    +0.000 A 
ATOM     14  C   UNL     1       1.083  11.048  19.202  0.00  0.00    +0.000 A 
ATOM     15  H   UNL     1       0.679  15.074  21.091  0.00  0.00    +0.000 HD
ATOM     16  H   UNL     1       1.705  13.308  17.474  0.00  0.00    +0.000 HD
ENDBRANCH   2   5
BRANCH   1  21
ATOM     17  C   UNL     1       3.318   2.707  20.008  0.00  0.00    +0.000 C 
ATOM     18  C   UNL     1       2.885   4.134  19.793  0.00  0.00    +0.000 A 
ATOM     19  C   UNL     1       2.247   4.747  20.881  0.00  0.00    +0.000 A 
ATOM     20  C   UNL     1       1.858   6.078  20.828  0.00  0.00    +0.000 A 
ATOM     21  C   UNL     1       2.130   6.853  19.707  0.00  0.00    +0.000 A 
ATOM     22  C   UNL     1       2.727   6.243  18.592  0.00  0.00    +0.000 A 
ATOM     23  C   UNL     1       3.070   4.872  18.597  0.00  0.00    +0.000 A 
BRANCH  23  24
ATOM     24  C   UNL     1       3.746   4.250  17.403  0.00  0.00    +0.000 C 
ATOM     25  O   UNL     1       3.056   3.546  16.664  0.00  0.00    +0.000 OA
ATOM     26  N   UNL     1       5.105   4.443  17.117  0.00  0.00    +0.000 N 
ATOM     27  C   UNL     1       6.096   5.212  17.877  0.00  0.00    +0.000 C 
ATOM     28  C   UNL     1       7.108   5.932  16.970  0.00  0.00    +0.000 C 
ATOM     29  O   UNL     1       7.674   5.054  15.992  0.00  0.00    +0.000 OA
ATOM     30  C   UNL     1       6.642   4.485  15.176  0.00  0.00    +0.000 C 
ATOM     31  C   UNL     1       5.698   3.640  16.033  0.00  0.00    +0.000 C 
ENDBRANCH  23  24
ENDBRANCH   1  21
TORSDOF 3
ENDMDL
