MODEL 1
REMARK VINA RESULT:      -8.8      0.000      0.000
REMARK  Name = 
REMARK  4 active torsions:
REMARK  status: ('A' for Active; 'I' for Inactive)
REMARK    1  A    between atoms: C_2  and  C_3
REMARK    2  A    between atoms: C_3  and  S_4
REMARK    3  A    between atoms: S_4  and  C_5
REMARK    4  A    between atoms: C_8  and  C_9
REMARK                            x       y       z     vdW  Elec       q    Type
REMARK                         _______ _______ _______ _____ _____    ______ ____
ROOT
ATOM      1  C   UNL     1       2.021   6.632  19.887  0.00  0.00    +0.000 A 
ATOM      2  N   UNL     1       2.930   7.388  19.225  0.00  0.00    +0.000 NA
ATOM      3  N   UNL     1       3.868   6.793  18.453  0.00  0.00    +0.000 NA
ATOM      4  C   UNL     1       3.945   5.438  18.367  0.00  0.00    +0.000 A 
ATOM      5  C   UNL     1       3.077   4.603  19.117  0.00  0.00    +0.000 A 
ATOM      6  C   UNL     1       3.144   3.179  19.155  0.00  0.00    +0.000 A 
ATOM      7  C   UNL     1       2.189   2.404  19.812  0.00  0.00    +0.000 A 
ATOM      8  C   UNL     1       1.161   3.021  20.502  0.00  0.00    +0.000 A 
ATOM      9  C   UNL     1       1.105   4.411  20.547  0.00  0.00    +0.000 A 
ATOM     10  C   UNL     1       2.058   5.225  19.871  0.00  0.00    +0.000 A 
ENDROOT
BRANCH   4  11
ATOM     11  C   UNL     1       4.988   4.985  17.414  0.00  0.00    +0.000 A 
ATOM     12  C   UNL     1       6.345   5.001  17.796  0.00  0.00    +0.000 A 
ATOM     13  C   UNL     1       7.357   4.588  16.926  0.00  0.00    +0.000 A 
ATOM     14  C   UNL     1       7.033   4.134  15.653  0.00  0.00    +0.000 A 
ATOM     15  C   UNL     1       5.707   4.137  15.234  0.00  0.00    +0.000 A 
ATOM     16  C   UNL     1       4.702   4.597  16.094  0.00  0.00    +0.000 A 
ENDBRANCH   4  11
BRANCH   1  17
ATOM     17  S   UNL     1       0.759   7.582  20.711  0.00  0.00    +0.000 S 
BRANCH  17  18
ATOM     18  C   UNL     1       1.334   9.233  20.201  0.00  0.00    +0.000 C 
BRANCH  18  20
ATOM     19  O   UNL     1       0.948   9.234  17.804  0.00  0.00    +0.000 OA
ATOM     20  C   UNL     1       0.672   9.709  18.906  0.00  0.00    +0.000 C 
ATOM     21  N   UNL     1      -0.279  10.702  19.069  0.00  0.00    +0.000 N 
ATOM     22  C   UNL     1      -0.602  11.411  20.327  0.00  0.00    +0.000 C 
ATOM     23  C   UNL     1      -1.640  12.458  19.937  0.00  0.00    +0.000 C 
ATOM     24  C   UNL     1      -2.340  11.667  18.877  0.00  0.00    +0.000 A 
ATOM     25  C   UNL     1      -3.687  11.605  18.579  0.00  0.00    +0.000 A 
ATOM     26  C   UNL     1      -4.099  10.693  17.602  0.00  0.00    +0.000 A 
ATOM     27  C   UNL     1      -3.160   9.943  16.872  0.00  0.00    +0.000 A 
ATOM     28  C   UNL     1      -1.806  10.005  17.188  0.00  0.00    +0.000 A 
ATOM     29  C   UNL     1      -1.432  10.802  18.258  0.00  0.00    +0.000 A 
ENDBRANCH  18  20
ENDBRANCH  17  18
ENDBRANCH   1  17
TORSDOF 4
ENDMDL
MODEL 2
REMARK VINA RESULT:      -8.3      1.989      9.003
REMARK  Name = 
REMARK  4 active torsions:
REMARK  status: ('A' for Active; 'I' for Inactive)
REMARK    1  A    between atoms: C_2  and  C_3
REMARK    2  A    between atoms: C_3  and  S_4
REMARK    3  A    between atoms: S_4  and  C_5
REMARK    4  A    between atoms: C_8  and  C_9
REMARK                            x       y       z     vdW  Elec       q    Type
REMARK                         _______ _______ _______ _____ _____    ______ ____
ROOT
ATOM      1  C   UNL     1       0.336   9.910  18.642  0.00  0.00    +0.000 A 
ATOM      2  N   UNL     1       1.144  10.332  19.645  0.00  0.00    +0.000 NA
ATOM      3  N   UNL     1       0.680  11.210  20.563  0.00  0.00    +0.000 NA
ATOM      4  C   UNL     1      -0.579  11.717  20.469  0.00  0.00    +0.000 A 
ATOM      5  C   UNL     1      -1.429  11.381  19.384  0.00  0.00    +0.000 A 
ATOM      6  C   UNL     1      -2.725  11.930  19.160  0.00  0.00    +0.000 A 
ATOM      7  C   UNL     1      -3.566  11.473  18.146  0.00  0.00    +0.000 A 
ATOM      8  C   UNL     1      -3.125  10.486  17.282  0.00  0.00    +0.000 A 
ATOM      9  C   UNL     1      -1.837   9.976  17.426  0.00  0.00    +0.000 A 
ATOM     10  C   UNL     1      -0.966  10.415  18.463  0.00  0.00    +0.000 A 
ENDROOT
BRANCH   4  11
ATOM     11  C   UNL     1      -0.924  12.601  21.609  0.00  0.00    +0.000 A 
ATOM     12  C   UNL     1      -0.270  13.841  21.761  0.00  0.00    +0.000 A 
ATOM     13  C   UNL     1      -0.563  14.699  22.824  0.00  0.00    +0.000 A 
ATOM     14  C   UNL     1      -1.530  14.342  23.756  0.00  0.00    +0.000 A 
ATOM     15  C   UNL     1      -2.169  13.111  23.653  0.00  0.00    +0.000 A 
ATOM     16  C   UNL     1      -1.838  12.236  22.612  0.00  0.00    +0.000 A 
ENDBRANCH   4  11
BRANCH   1  17
ATOM     17  S   UNL     1       1.051   8.629  17.632  0.00  0.00    +0.000 S 
BRANCH  17  18
ATOM     18  C   UNL     1       2.552   8.354  18.626  0.00  0.00    +0.000 C 
BRANCH  18  20
ATOM     19  O   UNL     1       1.929   7.125  20.625  0.00  0.00    +0.000 OA
ATOM     20  C   UNL     1       2.448   7.107  19.509  0.00  0.00    +0.000 C 
ATOM     21  N   UNL     1       2.965   5.952  18.949  0.00  0.00    +0.000 N 
ATOM     22  C   UNL     1       3.703   5.849  17.671  0.00  0.00    +0.000 C 
ATOM     23  C   UNL     1       4.124   4.387  17.572  0.00  0.00    +0.000 C 
ATOM     24  C   UNL     1       2.925   3.783  18.233  0.00  0.00    +0.000 A 
ATOM     25  C   UNL     1       2.251   2.619  17.924  0.00  0.00    +0.000 A 
ATOM     26  C   UNL     1       1.080   2.333  18.634  0.00  0.00    +0.000 A 
ATOM     27  C   UNL     1       0.664   3.151  19.701  0.00  0.00    +0.000 A 
ATOM     28  C   UNL     1       1.345   4.328  19.995  0.00  0.00    +0.000 A 
ATOM     29  C   UNL     1       2.416   4.671  19.186  0.00  0.00    +0.000 A 
ENDBRANCH  18  20
ENDBRANCH  17  18
ENDBRANCH   1  17
TORSDOF 4
ENDMDL
MODEL 3
REMARK VINA RESULT:      -8.3      1.870      9.163
REMARK  Name = 
REMARK  4 active torsions:
REMARK  status: ('A' for Active; 'I' for Inactive)
REMARK    1  A    between atoms: C_2  and  C_3
REMARK    2  A    between atoms: C_3  and  S_4
REMARK    3  A    between atoms: S_4  and  C_5
REMARK    4  A    between atoms: C_8  and  C_9
REMARK                            x       y       z     vdW  Elec       q    Type
REMARK                         _______ _______ _______ _____ _____    ______ ____
ROOT
ATOM      1  C   UNL     1      -0.001  10.067  18.576  0.00  0.00    +0.000 A 
ATOM      2  N   UNL     1       0.676  10.580  19.632  0.00  0.00    +0.000 NA
ATOM      3  N   UNL     1       0.061  11.442  20.473  0.00  0.00    +0.000 NA
ATOM      4  C   UNL     1      -1.219  11.844  20.248  0.00  0.00    +0.000 A 
ATOM      5  C   UNL     1      -1.936  11.410  19.103  0.00  0.00    +0.000 A 
ATOM      6  C   UNL     1      -3.244  11.847  18.744  0.00  0.00    +0.000 A 
ATOM      7  C   UNL     1      -3.949  11.296  17.675  0.00  0.00    +0.000 A 
ATOM      8  C   UNL     1      -3.355  10.324  16.890  0.00  0.00    +0.000 A 
ATOM      9  C   UNL     1      -2.051   9.924  17.168  0.00  0.00    +0.000 A 
ATOM     10  C   UNL     1      -1.316  10.460  18.263  0.00  0.00    +0.000 A 
ENDROOT
BRANCH   4  11
ATOM     11  C   UNL     1      -1.735  12.729  21.321  0.00  0.00    +0.000 A 
ATOM     12  C   UNL     1      -2.320  12.168  22.475  0.00  0.00    +0.000 A 
ATOM     13  C   UNL     1      -2.822  12.967  23.505  0.00  0.00    +0.000 A 
ATOM     14  C   UNL     1      -2.739  14.351  23.411  0.00  0.00    +0.000 A 
ATOM     15  C   UNL     1      -2.198  14.936  22.271  0.00  0.00    +0.000 A 
ATOM     16  C   UNL     1      -1.739  14.131  21.222  0.00  0.00    +0.000 A 
ENDBRANCH   4  11
BRANCH   1  17
ATOM     17  S   UNL     1       0.902   8.820  17.680  0.00  0.00    +0.000 S 
BRANCH  17  18
ATOM     18  C   UNL     1       2.310   8.678  18.826  0.00  0.00    +0.000 C 
BRANCH  18  20
ATOM     19  O   UNL     1       1.713   7.325  20.751  0.00  0.00    +0.000 OA
ATOM     20  C   UNL     1       2.265   7.391  19.652  0.00  0.00    +0.000 C 
ATOM     21  N   UNL     1       2.874   6.297  19.061  0.00  0.00    +0.000 N 
ATOM     22  C   UNL     1       3.654   6.299  17.805  0.00  0.00    +0.000 C 
ATOM     23  C   UNL     1       4.175   4.873  17.658  0.00  0.00    +0.000 C 
ATOM     24  C   UNL     1       3.000   4.164  18.256  0.00  0.00    +0.000 A 
ATOM     25  C   UNL     1       2.415   2.972  17.877  0.00  0.00    +0.000 A 
ATOM     26  C   UNL     1       1.245   2.579  18.537  0.00  0.00    +0.000 A 
ATOM     27  C   UNL     1       0.745   3.321  19.623  0.00  0.00    +0.000 A 
ATOM     28  C   UNL     1       1.336   4.526  19.987  0.00  0.00    +0.000 A 
ATOM     29  C   UNL     1       2.405   4.974  19.228  0.00  0.00    +0.000 A 
ENDBRANCH  18  20
ENDBRANCH  17  18
ENDBRANCH   1  17
TORSDOF 4
ENDMDL
MODEL 4
REMARK VINA RESULT:      -8.3      1.661      2.717
REMARK  Name = 
REMARK  4 active torsions:
REMARK  status: ('A' for Active; 'I' for Inactive)
REMARK    1  A    between atoms: C_2  and  C_3
REMARK    2  A    between atoms: C_3  and  S_4
REMARK    3  A    between atoms: S_4  and  C_5
REMARK    4  A    between atoms: C_8  and  C_9
REMARK                            x       y       z     vdW  Elec       q    Type
REMARK                         _______ _______ _______ _____ _____    ______ ____
ROOT
ATOM      1  C   UNL     1       2.347   6.710  19.927  0.00  0.00    +0.000 A 
ATOM      2  N   UNL     1       2.951   7.443  18.960  0.00  0.00    +0.000 NA
ATOM      3  N   UNL     1       3.820   6.852  18.109  0.00  0.00    +0.000 NA
ATOM      4  C   UNL     1       4.137   5.535  18.237  0.00  0.00    +0.000 A 
ATOM      5  C   UNL     1       3.604   4.750  19.292  0.00  0.00    +0.000 A 
ATOM      6  C   UNL     1       3.947   3.391  19.552  0.00  0.00    +0.000 A 
ATOM      7  C   UNL     1       3.302   2.631  20.527  0.00  0.00    +0.000 A 
ATOM      8  C   UNL     1       2.326   3.213  21.316  0.00  0.00    +0.000 A 
ATOM      9  C   UNL     1       2.015   4.558  21.138  0.00  0.00    +0.000 A 
ATOM     10  C   UNL     1       2.648   5.351  20.139  0.00  0.00    +0.000 A 
ENDROOT
BRANCH   4  11
ATOM     11  C   UNL     1       5.045   5.060  17.164  0.00  0.00    +0.000 A 
ATOM     12  C   UNL     1       6.442   5.111  17.351  0.00  0.00    +0.000 A 
ATOM     13  C   UNL     1       7.330   4.679  16.364  0.00  0.00    +0.000 A 
ATOM     14  C   UNL     1       6.840   4.170  15.167  0.00  0.00    +0.000 A 
ATOM     15  C   UNL     1       5.469   4.137  14.938  0.00  0.00    +0.000 A 
ATOM     16  C   UNL     1       4.586   4.615  15.913  0.00  0.00    +0.000 A 
ENDBRANCH   4  11
BRANCH   1  17
ATOM     17  S   UNL     1       1.108   7.606  20.841  0.00  0.00    +0.000 S 
BRANCH  17  18
ATOM     18  C   UNL     1       1.112   9.118  19.825  0.00  0.00    +0.000 C 
BRANCH  18  20
ATOM     19  O   UNL     1       1.081  10.531  21.799  0.00  0.00    +0.000 OA
ATOM     20  C   UNL     1       0.734  10.364  20.630  0.00  0.00    +0.000 C 
ATOM     21  N   UNL     1      -0.013  11.301  19.937  0.00  0.00    +0.000 N 
ATOM     22  C   UNL     1      -0.571  11.146  18.575  0.00  0.00    +0.000 C 
ATOM     23  C   UNL     1      -1.377  12.417  18.330  0.00  0.00    +0.000 C 
ATOM     24  C   UNL     1      -0.502  13.364  19.090  0.00  0.00    +0.000 A 
ATOM     25  C   UNL     1      -0.156  14.666  18.788  0.00  0.00    +0.000 A 
ATOM     26  C   UNL     1       0.777  15.303  19.613  0.00  0.00    +0.000 A 
ATOM     27  C   UNL     1       1.263  14.674  20.774  0.00  0.00    +0.000 A 
ATOM     28  C   UNL     1       0.916  13.357  21.061  0.00  0.00    +0.000 A 
ATOM     29  C   UNL     1       0.108  12.692  20.154  0.00  0.00    +0.000 A 
ENDBRANCH  18  20
ENDBRANCH  17  18
ENDBRANCH   1  17
TORSDOF 4
ENDMDL
MODEL 5
REMARK VINA RESULT:      -8.3      1.702      2.711
REMARK  Name = 
REMARK  4 active torsions:
REMARK  status: ('A' for Active; 'I' for Inactive)
REMARK    1  A    between atoms: C_2  and  C_3
REMARK    2  A    between atoms: C_3  and  S_4
REMARK    3  A    between atoms: S_4  and  C_5
REMARK    4  A    between atoms: C_8  and  C_9
REMARK                            x       y       z     vdW  Elec       q    Type
REMARK                         _______ _______ _______ _____ _____    ______ ____
ROOT
ATOM      1  C   UNL     1       2.017   6.441  20.153  0.00  0.00    +0.000 A 
ATOM      2  N   UNL     1       2.528   7.295  19.234  0.00  0.00    +0.000 NA
ATOM      3  N   UNL     1       3.474   6.868  18.367  0.00  0.00    +0.000 NA
ATOM      4  C   UNL     1       3.960   5.599  18.434  0.00  0.00    +0.000 A 
ATOM      5  C   UNL     1       3.526   4.698  19.440  0.00  0.00    +0.000 A 
ATOM      6  C   UNL     1       4.043   3.384  19.638  0.00  0.00    +0.000 A 
ATOM      7  C   UNL     1       3.496   2.497  20.564  0.00  0.00    +0.000 A 
ATOM      8  C   UNL     1       2.444   2.905  21.366  0.00  0.00    +0.000 A 
ATOM      9  C   UNL     1       1.961   4.205  21.251  0.00  0.00    +0.000 A 
ATOM     10  C   UNL     1       2.492   5.125  20.302  0.00  0.00    +0.000 A 
ENDROOT
BRANCH   4  11
ATOM     11  C   UNL     1       4.932   5.303  17.353  0.00  0.00    +0.000 A 
ATOM     12  C   UNL     1       6.178   5.962  17.327  0.00  0.00    +0.000 A 
ATOM     13  C   UNL     1       7.118   5.714  16.324  0.00  0.00    +0.000 A 
ATOM     14  C   UNL     1       6.838   4.788  15.327  0.00  0.00    +0.000 A 
ATOM     15  C   UNL     1       5.605   4.145  15.305  0.00  0.00    +0.000 A 
ATOM     16  C   UNL     1       4.650   4.432  16.287  0.00  0.00    +0.000 A 
ENDBRANCH   4  11
BRANCH   1  17
ATOM     17  S   UNL     1       0.664   7.119  21.091  0.00  0.00    +0.000 S 
BRANCH  17  18
ATOM     18  C   UNL     1       1.376   8.771  21.375  0.00  0.00    +0.000 C 
BRANCH  18  20
ATOM     19  O   UNL     1       0.309   9.878  23.253  0.00  0.00    +0.000 OA
ATOM     20  C   UNL     1       0.383   9.731  22.033  0.00  0.00    +0.000 C 
ATOM     21  N   UNL     1      -0.415  10.440  21.151  0.00  0.00    +0.000 N 
ATOM     22  C   UNL     1      -0.480  10.256  19.685  0.00  0.00    +0.000 C 
ATOM     23  C   UNL     1      -1.570  11.211  19.213  0.00  0.00    +0.000 C 
ATOM     24  C   UNL     1      -1.325  12.307  20.203  0.00  0.00    +0.000 A 
ATOM     25  C   UNL     1      -1.379  13.675  20.022  0.00  0.00    +0.000 A 
ATOM     26  C   UNL     1      -0.993  14.491  21.091  0.00  0.00    +0.000 A 
ATOM     27  C   UNL     1      -0.666  13.936  22.342  0.00  0.00    +0.000 A 
ATOM     28  C   UNL     1      -0.605  12.556  22.508  0.00  0.00    +0.000 A 
ATOM     29  C   UNL     1      -0.846  11.763  21.399  0.00  0.00    +0.000 A 
ENDBRANCH  18  20
ENDBRANCH  17  18
ENDBRANCH   1  17
TORSDOF 4
ENDMDL
MODEL 6
REMARK VINA RESULT:      -8.2      1.598      2.569
REMARK  Name = 
REMARK  4 active torsions:
REMARK  status: ('A' for Active; 'I' for Inactive)
REMARK    1  A    between atoms: C_2  and  C_3
REMARK    2  A    between atoms: C_3  and  S_4
REMARK    3  A    between atoms: S_4  and  C_5
REMARK    4  A    between atoms: C_8  and  C_9
REMARK                            x       y       z     vdW  Elec       q    Type
REMARK                         _______ _______ _______ _____ _____    ______ ____
ROOT
ATOM      1  C   UNL     1       2.377   5.767  19.652  0.00  0.00    +0.000 A 
ATOM      2  N   UNL     1       3.287   6.661  19.193  0.00  0.00    +0.000 NA
ATOM      3  N   UNL     1       4.145   6.306  18.210  0.00  0.00    +0.000 NA
ATOM      4  C   UNL     1       4.145   5.043  17.704  0.00  0.00    +0.000 A 
ATOM      5  C   UNL     1       3.278   4.045  18.220  0.00  0.00    +0.000 A 
ATOM      6  C   UNL     1       3.270   2.679  17.812  0.00  0.00    +0.000 A 
ATOM      7  C   UNL     1       2.315   1.769  18.264  0.00  0.00    +0.000 A 
ATOM      8  C   UNL     1       1.362   2.174  19.182  0.00  0.00    +0.000 A 
ATOM      9  C   UNL     1       1.383   3.483  19.657  0.00  0.00    +0.000 A 
ATOM     10  C   UNL     1       2.338   4.435  19.200  0.00  0.00    +0.000 A 
ENDROOT
BRANCH   4  11
ATOM     11  C   UNL     1       5.105   4.875  16.587  0.00  0.00    +0.000 A 
ATOM     12  C   UNL     1       6.478   5.120  16.796  0.00  0.00    +0.000 A 
ATOM     13  C   UNL     1       7.413   4.979  15.768  0.00  0.00    +0.000 A 
ATOM     14  C   UNL     1       6.998   4.574  14.505  0.00  0.00    +0.000 A 
ATOM     15  C   UNL     1       5.647   4.357  14.257  0.00  0.00    +0.000 A 
ATOM     16  C   UNL     1       4.709   4.545  15.279  0.00  0.00    +0.000 A 
ENDBRANCH   4  11
BRANCH   1  17
ATOM     17  S   UNL     1       1.218   6.454  20.816  0.00  0.00    +0.000 S 
BRANCH  17  18
ATOM     18  C   UNL     1       1.542   8.211  20.465  0.00  0.00    +0.000 C 
BRANCH  18  20
ATOM     19  O   UNL     1       0.325   9.122  22.357  0.00  0.00    +0.000 OA
ATOM     20  C   UNL     1       0.532   9.139  21.144  0.00  0.00    +0.000 C 
ATOM     21  N   UNL     1      -0.118  10.017  20.293  0.00  0.00    +0.000 N 
ATOM     22  C   UNL     1      -0.021  10.041  18.817  0.00  0.00    +0.000 C 
ATOM     23  C   UNL     1      -0.996  11.126  18.373  0.00  0.00    +0.000 C 
ATOM     24  C   UNL     1      -0.809  12.056  19.532  0.00  0.00    +0.000 A 
ATOM     25  C   UNL     1      -0.767  13.435  19.546  0.00  0.00    +0.000 A 
ATOM     26  C   UNL     1      -0.465  14.068  20.758  0.00  0.00    +0.000 A 
ATOM     27  C   UNL     1      -0.317  13.324  21.943  0.00  0.00    +0.000 A 
ATOM     28  C   UNL     1      -0.350  11.934  21.913  0.00  0.00    +0.000 A 
ATOM     29  C   UNL     1      -0.502  11.320  20.681  0.00  0.00    +0.000 A 
ENDBRANCH  18  20
ENDBRANCH  17  18
ENDBRANCH   1  17
TORSDOF 4
ENDMDL
MODEL 7
REMARK VINA RESULT:      -8.1      2.128      2.903
REMARK  Name = 
REMARK  4 active torsions:
REMARK  status: ('A' for Active; 'I' for Inactive)
REMARK    1  A    between atoms: C_2  and  C_3
REMARK    2  A    between atoms: C_3  and  S_4
REMARK    3  A    between atoms: S_4  and  C_5
REMARK    4  A    between atoms: C_8  and  C_9
REMARK                            x       y       z     vdW  Elec       q    Type
REMARK                         _______ _______ _______ _____ _____    ______ ____
ROOT
ATOM      1  C   UNL     1       2.457   5.652  19.672  0.00  0.00    +0.000 A 
ATOM      2  N   UNL     1       3.250   6.620  19.153  0.00  0.00    +0.000 NA
ATOM      3  N   UNL     1       4.122   6.320  18.163  0.00  0.00    +0.000 NA
ATOM      4  C   UNL     1       4.251   5.044  17.710  0.00  0.00    +0.000 A 
ATOM      5  C   UNL     1       3.513   3.979  18.288  0.00  0.00    +0.000 A 
ATOM      6  C   UNL     1       3.649   2.605  17.936  0.00  0.00    +0.000 A 
ATOM      7  C   UNL     1       2.811   1.616  18.450  0.00  0.00    +0.000 A 
ATOM      8  C   UNL     1       1.839   1.952  19.375  0.00  0.00    +0.000 A 
ATOM      9  C   UNL     1       1.724   3.274  19.796  0.00  0.00    +0.000 A 
ATOM     10  C   UNL     1       2.556   4.305  19.275  0.00  0.00    +0.000 A 
ENDROOT
BRANCH   4  11
ATOM     11  C   UNL     1       5.200   4.936  16.575  0.00  0.00    +0.000 A 
ATOM     12  C   UNL     1       4.746   4.484  15.318  0.00  0.00    +0.000 A 
ATOM     13  C   UNL     1       5.610   4.364  14.227  0.00  0.00    +0.000 A 
ATOM     14  C   UNL     1       6.950   4.707  14.363  0.00  0.00    +0.000 A 
ATOM     15  C   UNL     1       7.436   5.124  15.597  0.00  0.00    +0.000 A 
ATOM     16  C   UNL     1       6.576   5.198  16.699  0.00  0.00    +0.000 A 
ENDBRANCH   4  11
BRANCH   1  17
ATOM     17  S   UNL     1       1.254   6.256  20.838  0.00  0.00    +0.000 S 
BRANCH  17  18
ATOM     18  C   UNL     1       1.521   8.035  20.553  0.00  0.00    +0.000 C 
BRANCH  18  20
ATOM     19  O   UNL     1      -0.534   8.504  21.759  0.00  0.00    +0.000 OA
ATOM     20  C   UNL     1       0.302   8.878  20.936  0.00  0.00    +0.000 C 
ATOM     21  N   UNL     1       0.219  10.106  20.301  0.00  0.00    +0.000 N 
ATOM     22  C   UNL     1       1.105  10.598  19.223  0.00  0.00    +0.000 C 
ATOM     23  C   UNL     1       0.527  11.950  18.820  0.00  0.00    +0.000 C 
ATOM     24  C   UNL     1       0.050  12.379  20.173  0.00  0.00    +0.000 A 
ATOM     25  C   UNL     1       0.074  13.633  20.750  0.00  0.00    +0.000 A 
ATOM     26  C   UNL     1      -0.334  13.748  22.083  0.00  0.00    +0.000 A 
ATOM     27  C   UNL     1      -0.855  12.640  22.777  0.00  0.00    +0.000 A 
ATOM     28  C   UNL     1      -0.863  11.379  22.188  0.00  0.00    +0.000 A 
ATOM     29  C   UNL     1      -0.318  11.256  20.921  0.00  0.00    +0.000 A 
ENDBRANCH  18  20
ENDBRANCH  17  18
ENDBRANCH   1  17
TORSDOF 4
ENDMDL
MODEL 8
REMARK VINA RESULT:      -8.1      2.872      8.870
REMARK  Name = 
REMARK  4 active torsions:
REMARK  status: ('A' for Active; 'I' for Inactive)
REMARK    1  A    between atoms: C_2  and  C_3
REMARK    2  A    between atoms: C_3  and  S_4
REMARK    3  A    between atoms: S_4  and  C_5
REMARK    4  A    between atoms: C_8  and  C_9
REMARK                            x       y       z     vdW  Elec       q    Type
REMARK                         _______ _______ _______ _____ _____    ______ ____
ROOT
ATOM      1  C   UNL     1       1.528   8.934  19.674  0.00  0.00    +0.000 A 
ATOM      2  N   UNL     1       1.937   9.631  18.586  0.00  0.00    +0.000 NA
ATOM      3  N   UNL     1       1.717  10.963  18.516  0.00  0.00    +0.000 NA
ATOM      4  C   UNL     1       1.044  11.613  19.504  0.00  0.00    +0.000 A 
ATOM      5  C   UNL     1       0.512  10.911  20.616  0.00  0.00    +0.000 A 
ATOM      6  C   UNL     1      -0.278  11.494  21.649  0.00  0.00    +0.000 A 
ATOM      7  C   UNL     1      -0.672  10.783  22.781  0.00  0.00    +0.000 A 
ATOM      8  C   UNL     1      -0.338   9.445  22.901  0.00  0.00    +0.000 A 
ATOM      9  C   UNL     1       0.372   8.823  21.878  0.00  0.00    +0.000 A 
ATOM     10  C   UNL     1       0.800   9.532  20.719  0.00  0.00    +0.000 A 
ENDROOT
BRANCH   4  11
ATOM     11  C   UNL     1       0.973  13.077  19.277  0.00  0.00    +0.000 A 
ATOM     12  C   UNL     1      -0.256  13.677  18.934  0.00  0.00    +0.000 A 
ATOM     13  C   UNL     1      -0.364  15.051  18.709  0.00  0.00    +0.000 A 
ATOM     14  C   UNL     1       0.757  15.863  18.834  0.00  0.00    +0.000 A 
ATOM     15  C   UNL     1       1.991  15.298  19.138  0.00  0.00    +0.000 A 
ATOM     16  C   UNL     1       2.101  13.914  19.318  0.00  0.00    +0.000 A 
ENDBRANCH   4  11
BRANCH   1  17
ATOM     17  S   UNL     1       2.053   7.232  19.677  0.00  0.00    +0.000 S 
BRANCH  17  18
ATOM     18  C   UNL     1       2.999   7.272  18.122  0.00  0.00    +0.000 C 
BRANCH  18  20
ATOM     19  O   UNL     1       2.913   4.879  17.728  0.00  0.00    +0.000 OA
ATOM     20  C   UNL     1       3.589   5.907  17.760  0.00  0.00    +0.000 C 
ATOM     21  N   UNL     1       4.939   5.919  17.452  0.00  0.00    +0.000 N 
ATOM     22  C   UNL     1       5.856   7.073  17.569  0.00  0.00    +0.000 C 
ATOM     23  C   UNL     1       7.230   6.527  17.198  0.00  0.00    +0.000 C 
ATOM     24  C   UNL     1       6.786   5.539  16.165  0.00  0.00    +0.000 A 
ATOM     25  C   UNL     1       7.383   5.200  14.968  0.00  0.00    +0.000 A 
ATOM     26  C   UNL     1       6.700   4.319  14.123  0.00  0.00    +0.000 A 
ATOM     27  C   UNL     1       5.496   3.716  14.530  0.00  0.00    +0.000 A 
ATOM     28  C   UNL     1       4.898   4.074  15.734  0.00  0.00    +0.000 A 
ATOM     29  C   UNL     1       5.514   5.058  16.490  0.00  0.00    +0.000 A 
ENDBRANCH  18  20
ENDBRANCH  17  18
ENDBRANCH   1  17
TORSDOF 4
ENDMDL
MODEL 9
REMARK VINA RESULT:      -8.1      1.568      2.805
REMARK  Name = 
REMARK  4 active torsions:
REMARK  status: ('A' for Active; 'I' for Inactive)
REMARK    1  A    between atoms: C_2  and  C_3
REMARK    2  A    between atoms: C_3  and  S_4
REMARK    3  A    between atoms: S_4  and  C_5
REMARK    4  A    between atoms: C_8  and  C_9
REMARK                            x       y       z     vdW  Elec       q    Type
REMARK                         _______ _______ _______ _____ _____    ______ ____
ROOT
ATOM      1  C   UNL     1       2.222   6.528  19.895  0.00  0.00    +0.000 A 
ATOM      2  N   UNL     1       3.123   7.288  19.227  0.00  0.00    +0.000 NA
ATOM      3  N   UNL     1       3.994   6.706  18.371  0.00  0.00    +0.000 NA
ATOM      4  C   UNL     1       4.013   5.356  18.205  0.00  0.00    +0.000 A 
ATOM      5  C   UNL     1       3.156   4.510  18.955  0.00  0.00    +0.000 A 
ATOM      6  C   UNL     1       3.169   3.086  18.909  0.00  0.00    +0.000 A 
ATOM      7  C   UNL     1       2.222   2.308  19.574  0.00  0.00    +0.000 A 
ATOM      8  C   UNL     1       1.256   2.920  20.354  0.00  0.00    +0.000 A 
ATOM      9  C   UNL     1       1.257   4.307  20.480  0.00  0.00    +0.000 A 
ATOM     10  C   UNL     1       2.203   5.124  19.798  0.00  0.00    +0.000 A 
ENDROOT
BRANCH   4  11
ATOM     11  C   UNL     1       4.985   4.922  17.172  0.00  0.00    +0.000 A 
ATOM     12  C   UNL     1       4.529   4.536  15.895  0.00  0.00    +0.000 A 
ATOM     13  C   UNL     1       5.412   4.118  14.896  0.00  0.00    +0.000 A 
ATOM     14  C   UNL     1       6.778   4.088  15.148  0.00  0.00    +0.000 A 
ATOM     15  C   UNL     1       7.257   4.431  16.408  0.00  0.00    +0.000 A 
ATOM     16  C   UNL     1       6.364   4.805  17.418  0.00  0.00    +0.000 A 
ENDBRANCH   4  11
BRANCH   1  17
ATOM     17  S   UNL     1       1.045   7.473  20.841  0.00  0.00    +0.000 S 
BRANCH  17  18
ATOM     18  C   UNL     1       1.088   8.986  19.828  0.00  0.00    +0.000 C 
BRANCH  18  20
ATOM     19  O   UNL     1       1.088  10.400  21.802  0.00  0.00    +0.000 OA
ATOM     20  C   UNL     1       0.735  10.239  20.633  0.00  0.00    +0.000 C 
ATOM     21  N   UNL     1       0.002  11.189  19.942  0.00  0.00    +0.000 N 
ATOM     22  C   UNL     1      -0.562  11.044  18.583  0.00  0.00    +0.000 C 
ATOM     23  C   UNL     1      -1.346  12.329  18.339  0.00  0.00    +0.000 C 
ATOM     24  C   UNL     1      -0.451  13.261  19.096  0.00  0.00    +0.000 A 
ATOM     25  C   UNL     1      -0.083  14.556  18.792  0.00  0.00    +0.000 A 
ATOM     26  C   UNL     1       0.864  15.176  19.615  0.00  0.00    +0.000 A 
ATOM     27  C   UNL     1       1.342  14.538  20.774  0.00  0.00    +0.000 A 
ATOM     28  C   UNL     1       0.972  13.228  21.063  0.00  0.00    +0.000 A 
ATOM     29  C   UNL     1       0.149  12.578  20.158  0.00  0.00    +0.000 A 
ENDBRANCH  18  20
ENDBRANCH  17  18
ENDBRANCH   1  17
TORSDOF 4
ENDMDL
