MODEL 1
REMARK VINA RESULT:      -8.3      0.000      0.000
REMARK  Name = 
REMARK  7 active torsions:
REMARK  status: ('A' for Active; 'I' for Inactive)
REMARK    1  A    between atoms: C_1  and  C_2
REMARK    2  A    between atoms: C_4  and  C_5
REMARK    3  A    between atoms: C_14  and  C_15
REMARK    4  A    between atoms: C_15  and  C_16
REMARK    5  A    between atoms: C_16  and  C_17
REMARK    6  A    between atoms: N_19  and  C_20
REMARK    7  A    between atoms: C_20  and  C_21
REMARK                            x       y       z     vdW  Elec       q    Type
REMARK                         _______ _______ _______ _____ _____    ______ ____
ROOT
ATOM      1  C   UNL     1       0.621   8.769  19.772  0.00  0.00    +0.000 C 
ENDROOT
BRANCH   1   9
ATOM      2  C   UNL     1      -0.080  11.176  21.535  0.00  0.00    +0.000 C 
ATOM      3  C   UNL     1       0.756  11.262  20.282  0.00  0.00    +0.000 A 
ATOM      4  N   UNL     1       1.168  12.543  19.993  0.00  0.00    +0.000 NA
ATOM      5  C   UNL     1       1.810  12.745  18.889  0.00  0.00    +0.000 A 
ATOM      6  N   UNL     1       2.128  11.734  18.024  0.00  0.00    +0.000 N 
ATOM      7  C   UNL     1       1.804  10.442  18.267  0.00  0.00    +0.000 A 
ATOM      8  O   UNL     1       2.128   9.550  17.491  0.00  0.00    +0.000 OA
ATOM      9  C   UNL     1       1.045  10.189  19.522  0.00  0.00    +0.000 A 
ATOM     10  H   UNL     1       2.677  11.892  17.190  0.00  0.00    +0.000 HD
BRANCH   5  11
ATOM     11  C   UNL     1       2.258  14.096  18.516  0.00  0.00    +0.000 A 
ATOM     12  C   UNL     1       3.506  14.332  17.938  0.00  0.00    +0.000 A 
ATOM     13  C   UNL     1       3.867  15.640  17.624  0.00  0.00    +0.000 A 
ATOM     14  C   UNL     1       2.964  16.656  17.896  0.00  0.00    +0.000 A 
ATOM     15  N   UNL     1       1.743  16.457  18.443  0.00  0.00    +0.000 NA
ATOM     16  C   UNL     1       1.411  15.174  18.731  0.00  0.00    +0.000 A 
ENDBRANCH   5  11
ENDBRANCH   1   9
BRANCH   1  17
ATOM     17  C   UNL     1       1.438   8.073  20.863  0.00  0.00    +0.000 C 
BRANCH  17  18
ATOM     18  C   UNL     1       1.999   6.768  20.348  0.00  0.00    +0.000 C 
ATOM     19  O   UNL     1       1.776   5.681  20.877  0.00  0.00    +0.000 OA
ATOM     20  N   UNL     1       2.753   6.920  19.214  0.00  0.00    +0.000 N 
ATOM     21  H   UNL     1       2.830   7.857  18.834  0.00  0.00    +0.000 HD
BRANCH  20  22
ATOM     22  C   UNL     1       3.211   5.803  18.360  0.00  0.00    +0.000 C 
ATOM     23  C   UNL     1       1.998   4.972  17.917  0.00  0.00    +0.000 C 
ATOM     24  C   UNL     1       4.262   4.877  19.057  0.00  0.00    +0.000 C 
ATOM     25  C   UNL     1       5.559   5.536  18.699  0.00  0.00    +0.000 A 
ATOM     26  C   UNL     1       6.813   5.278  19.226  0.00  0.00    +0.000 A 
ATOM     27  C   UNL     1       7.880   6.075  18.809  0.00  0.00    +0.000 A 
ATOM     28  C   UNL     1       7.674   7.118  17.892  0.00  0.00    +0.000 A 
ATOM     29  C   UNL     1       6.417   7.323  17.315  0.00  0.00    +0.000 A 
ATOM     30  C   UNL     1       5.376   6.498  17.702  0.00  0.00    +0.000 A 
ATOM     31  C   UNL     1       3.982   6.415  17.153  0.00  0.00    +0.000 C 
ENDBRANCH  20  22
ENDBRANCH  17  18
ENDBRANCH   1  17
TORSDOF 5
ENDMDL
MODEL 2
REMARK VINA RESULT:      -8.3      4.962      9.208
REMARK  Name = 
REMARK  7 active torsions:
REMARK  status: ('A' for Active; 'I' for Inactive)
REMARK    1  A    between atoms: C_1  and  C_2
REMARK    2  A    between atoms: C_4  and  C_5
REMARK    3  A    between atoms: C_14  and  C_15
REMARK    4  A    between atoms: C_15  and  C_16
REMARK    5  A    between atoms: C_16  and  C_17
REMARK    6  A    between atoms: N_19  and  C_20
REMARK    7  A    between atoms: C_20  and  C_21
REMARK                            x       y       z     vdW  Elec       q    Type
REMARK                         _______ _______ _______ _____ _____    ______ ____
ROOT
ATOM      1  C   UNL     1       7.757   7.512  17.228  0.00  0.00    +0.000 C 
ENDROOT
BRANCH   1   9
ATOM      2  C   UNL     1       7.721   5.741  19.728  0.00  0.00    +0.000 C 
ATOM      3  C   UNL     1       6.609   5.784  18.709  0.00  0.00    +0.000 A 
ATOM      4  N   UNL     1       5.571   4.932  19.002  0.00  0.00    +0.000 NA
ATOM      5  C   UNL     1       4.609   4.819  18.145  0.00  0.00    +0.000 A 
ATOM      6  N   UNL     1       4.567   5.541  16.984  0.00  0.00    +0.000 N 
ATOM      7  C   UNL     1       5.525   6.439  16.653  0.00  0.00    +0.000 A 
ATOM      8  O   UNL     1       5.448   7.096  15.621  0.00  0.00    +0.000 OA
ATOM      9  C   UNL     1       6.654   6.568  17.615  0.00  0.00    +0.000 A 
ATOM     10  H   UNL     1       3.786   5.489  16.345  0.00  0.00    +0.000 HD
BRANCH   5  11
ATOM     11  C   UNL     1       3.481   3.908  18.395  0.00  0.00    +0.000 A 
ATOM     12  C   UNL     1       2.201   4.376  18.696  0.00  0.00    +0.000 A 
ATOM     13  C   UNL     1       1.185   3.453  18.935  0.00  0.00    +0.000 A 
ATOM     14  C   UNL     1       1.490   2.103  18.857  0.00  0.00    +0.000 A 
ATOM     15  N   UNL     1       2.716   1.621  18.556  0.00  0.00    +0.000 NA
ATOM     16  C   UNL     1       3.686   2.538  18.318  0.00  0.00    +0.000 A 
ENDBRANCH   5  11
ENDBRANCH   1   9
BRANCH   1  17
ATOM     17  C   UNL     1       7.433   8.980  17.517  0.00  0.00    +0.000 C 
BRANCH  17  18
ATOM     18  C   UNL     1       8.524   9.604  18.356  0.00  0.00    +0.000 C 
ATOM     19  O   UNL     1       9.191   8.975  19.175  0.00  0.00    +0.000 OA
ATOM     20  N   UNL     1       8.715  10.933  18.082  0.00  0.00    +0.000 N 
ATOM     21  H   UNL     1       8.144  11.340  17.349  0.00  0.00    +0.000 HD
BRANCH  20  22
ATOM     22  C   UNL     1       9.867  11.727  18.561  0.00  0.00    +0.000 C 
ATOM     23  C   UNL     1      11.079  11.460  17.657  0.00  0.00    +0.000 C 
ATOM     24  C   UNL     1      10.244  11.439  20.052  0.00  0.00    +0.000 C 
ATOM     25  C   UNL     1       9.396  12.426  20.795  0.00  0.00    +0.000 A 
ATOM     26  C   UNL     1       9.153  12.475  22.157  0.00  0.00    +0.000 A 
ATOM     27  C   UNL     1       8.256  13.432  22.631  0.00  0.00    +0.000 A 
ATOM     28  C   UNL     1       7.610  14.306  21.742  0.00  0.00    +0.000 A 
ATOM     29  C   UNL     1       7.917  14.292  20.378  0.00  0.00    +0.000 A 
ATOM     30  C   UNL     1       8.842  13.368  19.925  0.00  0.00    +0.000 A 
ATOM     31  C   UNL     1       9.444  13.226  18.557  0.00  0.00    +0.000 C 
ENDBRANCH  20  22
ENDBRANCH  17  18
ENDBRANCH   1  17
TORSDOF 5
ENDMDL
MODEL 3
REMARK VINA RESULT:      -8.1      2.742      8.345
REMARK  Name = 
REMARK  7 active torsions:
REMARK  status: ('A' for Active; 'I' for Inactive)
REMARK    1  A    between atoms: C_1  and  C_2
REMARK    2  A    between atoms: C_4  and  C_5
REMARK    3  A    between atoms: C_14  and  C_15
REMARK    4  A    between atoms: C_15  and  C_16
REMARK    5  A    between atoms: C_16  and  C_17
REMARK    6  A    between atoms: N_19  and  C_20
REMARK    7  A    between atoms: C_20  and  C_21
REMARK                            x       y       z     vdW  Elec       q    Type
REMARK                         _______ _______ _______ _____ _____    ______ ____
ROOT
ATOM      1  C   UNL     1       0.927   7.921  20.333  0.00  0.00    +0.000 C 
ENDROOT
BRANCH   1   9
ATOM      2  C   UNL     1       2.116   5.144  20.842  0.00  0.00    +0.000 C 
ATOM      3  C   UNL     1       2.513   6.033  19.690  0.00  0.00    +0.000 A 
ATOM      4  N   UNL     1       3.483   5.480  18.887  0.00  0.00    +0.000 NA
ATOM      5  C   UNL     1       3.965   6.197  17.925  0.00  0.00    +0.000 A 
ATOM      6  N   UNL     1       3.521   7.462  17.654  0.00  0.00    +0.000 N 
ATOM      7  C   UNL     1       2.533   8.053  18.367  0.00  0.00    +0.000 A 
ATOM      8  O   UNL     1       2.131   9.176  18.083  0.00  0.00    +0.000 OA
ATOM      9  C   UNL     1       1.978   7.253  19.493  0.00  0.00    +0.000 A 
ATOM     10  H   UNL     1       3.864   7.996  16.868  0.00  0.00    +0.000 HD
BRANCH   5  11
ATOM     11  C   UNL     1       5.018   5.666  17.046  0.00  0.00    +0.000 A 
ATOM     12  C   UNL     1       4.864   4.472  16.340  0.00  0.00    +0.000 A 
ATOM     13  C   UNL     1       5.910   4.024  15.537  0.00  0.00    +0.000 A 
ATOM     14  C   UNL     1       7.063   4.790  15.469  0.00  0.00    +0.000 A 
ATOM     15  N   UNL     1       7.237   5.957  16.130  0.00  0.00    +0.000 NA
ATOM     16  C   UNL     1       6.200   6.377  16.898  0.00  0.00    +0.000 A 
ENDBRANCH   5  11
ENDBRANCH   1   9
BRANCH   1  17
ATOM     17  C   UNL     1       1.499   8.707  21.515  0.00  0.00    +0.000 C 
BRANCH  17  18
ATOM     18  C   UNL     1       0.879  10.083  21.583  0.00  0.00    +0.000 C 
ATOM     19  O   UNL     1       0.547  10.624  22.635  0.00  0.00    +0.000 OA
ATOM     20  N   UNL     1       0.759  10.676  20.353  0.00  0.00    +0.000 N 
ATOM     21  H   UNL     1       1.113  10.161  19.555  0.00  0.00    +0.000 HD
BRANCH  20  22
ATOM     22  C   UNL     1       0.426  12.102  20.144  0.00  0.00    +0.000 C 
ATOM     23  C   UNL     1       1.588  12.974  20.643  0.00  0.00    +0.000 C 
ATOM     24  C   UNL     1      -0.903  12.540  20.842  0.00  0.00    +0.000 C 
ATOM     25  C   UNL     1      -1.929  12.259  19.786  0.00  0.00    +0.000 A 
ATOM     26  C   UNL     1      -3.306  12.248  19.927  0.00  0.00    +0.000 A 
ATOM     27  C   UNL     1      -4.078  11.873  18.827  0.00  0.00    +0.000 A 
ATOM     28  C   UNL     1      -3.463  11.505  17.619  0.00  0.00    +0.000 A 
ATOM     29  C   UNL     1      -2.076  11.589  17.468  0.00  0.00    +0.000 A 
ATOM     30  C   UNL     1      -1.324  12.004  18.553  0.00  0.00    +0.000 A 
ATOM     31  C   UNL     1       0.145  12.305  18.625  0.00  0.00    +0.000 C 
ENDBRANCH  20  22
ENDBRANCH  17  18
ENDBRANCH   1  17
TORSDOF 5
ENDMDL
MODEL 4
REMARK VINA RESULT:      -8.1      2.799      8.398
REMARK  Name = 
REMARK  7 active torsions:
REMARK  status: ('A' for Active; 'I' for Inactive)
REMARK    1  A    between atoms: C_1  and  C_2
REMARK    2  A    between atoms: C_4  and  C_5
REMARK    3  A    between atoms: C_14  and  C_15
REMARK    4  A    between atoms: C_15  and  C_16
REMARK    5  A    between atoms: C_16  and  C_17
REMARK    6  A    between atoms: N_19  and  C_20
REMARK    7  A    between atoms: C_20  and  C_21
REMARK                            x       y       z     vdW  Elec       q    Type
REMARK                         _______ _______ _______ _____ _____    ______ ____
ROOT
ATOM      1  C   UNL     1       0.847   8.059  20.373  0.00  0.00    +0.000 C 
ENDROOT
BRANCH   1   9
ATOM      2  C   UNL     1       1.924   9.440  17.858  0.00  0.00    +0.000 C 
ATOM      3  C   UNL     1       2.441   8.124  18.386  0.00  0.00    +0.000 A 
ATOM      4  N   UNL     1       3.444   7.587  17.613  0.00  0.00    +0.000 NA
ATOM      5  C   UNL     1       3.894   6.414  17.922  0.00  0.00    +0.000 A 
ATOM      6  N   UNL     1       3.440   5.711  19.003  0.00  0.00    +0.000 N 
ATOM      7  C   UNL     1       2.493   6.197  19.840  0.00  0.00    +0.000 A 
ATOM      8  O   UNL     1       2.126   5.560  20.820  0.00  0.00    +0.000 OA
ATOM      9  C   UNL     1       1.945   7.537  19.491  0.00  0.00    +0.000 A 
ATOM     10  H   UNL     1       3.834   4.819  19.269  0.00  0.00    +0.000 HD
BRANCH   5  11
ATOM     11  C   UNL     1       4.953   5.781  17.120  0.00  0.00    +0.000 A 
ATOM     12  C   UNL     1       4.785   4.531  16.522  0.00  0.00    +0.000 A 
ATOM     13  C   UNL     1       5.837   3.988  15.789  0.00  0.00    +0.000 A 
ATOM     14  C   UNL     1       7.011   4.718  15.680  0.00  0.00    +0.000 A 
ATOM     15  N   UNL     1       7.198   5.936  16.237  0.00  0.00    +0.000 NA
ATOM     16  C   UNL     1       6.156   6.448  16.938  0.00  0.00    +0.000 A 
ENDBRANCH   5  11
ENDBRANCH   1   9
BRANCH   1  17
ATOM     17  C   UNL     1       1.358   8.852  21.579  0.00  0.00    +0.000 C 
BRANCH  17  18
ATOM     18  C   UNL     1       0.667  10.192  21.659  0.00  0.00    +0.000 C 
ATOM     19  O   UNL     1       0.317  10.711  22.717  0.00  0.00    +0.000 OA
ATOM     20  N   UNL     1       0.503  10.784  20.433  0.00  0.00    +0.000 N 
ATOM     21  H   UNL     1       0.876  10.291  19.629  0.00  0.00    +0.000 HD
BRANCH  20  22
ATOM     22  C   UNL     1       0.093  12.191  20.234  0.00  0.00    +0.000 C 
ATOM     23  C   UNL     1       1.144  13.120  20.859  0.00  0.00    +0.000 C 
ATOM     24  C   UNL     1      -1.319  12.516  20.822  0.00  0.00    +0.000 C 
ATOM     25  C   UNL     1      -2.228  12.204  19.672  0.00  0.00    +0.000 A 
ATOM     26  C   UNL     1      -3.608  12.098  19.688  0.00  0.00    +0.000 A 
ATOM     27  C   UNL     1      -4.252  11.710  18.513  0.00  0.00    +0.000 A 
ATOM     28  C   UNL     1      -3.511  11.423  17.355  0.00  0.00    +0.000 A 
ATOM     29  C   UNL     1      -2.125  11.603  17.332  0.00  0.00    +0.000 A 
ATOM     30  C   UNL     1      -1.501  12.030  18.491  0.00  0.00    +0.000 A 
ATOM     31  C   UNL     1      -0.068  12.425  18.703  0.00  0.00    +0.000 C 
ENDBRANCH  20  22
ENDBRANCH  17  18
ENDBRANCH   1  17
TORSDOF 5
ENDMDL
MODEL 5
REMARK VINA RESULT:      -8.1      2.901      4.790
REMARK  Name = 
REMARK  7 active torsions:
REMARK  status: ('A' for Active; 'I' for Inactive)
REMARK    1  A    between atoms: C_1  and  C_2
REMARK    2  A    between atoms: C_4  and  C_5
REMARK    3  A    between atoms: C_14  and  C_15
REMARK    4  A    between atoms: C_15  and  C_16
REMARK    5  A    between atoms: C_16  and  C_17
REMARK    6  A    between atoms: N_19  and  C_20
REMARK    7  A    between atoms: C_20  and  C_21
REMARK                            x       y       z     vdW  Elec       q    Type
REMARK                         _______ _______ _______ _____ _____    ______ ____
ROOT
ATOM      1  C   UNL     1       2.567   7.659  17.821  0.00  0.00    +0.000 C 
ENDROOT
BRANCH   1   9
ATOM      2  C   UNL     1       1.624   6.824  20.615  0.00  0.00    +0.000 C 
ATOM      3  C   UNL     1       1.504   8.225  20.067  0.00  0.00    +0.000 A 
ATOM      4  N   UNL     1       0.910   9.101  20.945  0.00  0.00    +0.000 NA
ATOM      5  C   UNL     1       0.671  10.306  20.542  0.00  0.00    +0.000 A 
ATOM      6  N   UNL     1       1.021  10.749  19.296  0.00  0.00    +0.000 N 
ATOM      7  C   UNL     1       1.656   9.961  18.396  0.00  0.00    +0.000 A 
ATOM      8  O   UNL     1       1.987  10.392  17.298  0.00  0.00    +0.000 OA
ATOM      9  C   UNL     1       1.922   8.563  18.833  0.00  0.00    +0.000 A 
ATOM     10  H   UNL     1       0.880  11.708  19.006  0.00  0.00    +0.000 HD
BRANCH   5  11
ATOM     11  C   UNL     1       0.020  11.281  21.430  0.00  0.00    +0.000 A 
ATOM     12  C   UNL     1      -0.869  10.894  22.434  0.00  0.00    +0.000 A 
ATOM     13  C   UNL     1      -1.458  11.875  23.228  0.00  0.00    +0.000 A 
ATOM     14  C   UNL     1      -1.128  13.201  22.990  0.00  0.00    +0.000 A 
ATOM     15  N   UNL     1      -0.261  13.605  22.035  0.00  0.00    +0.000 NA
ATOM     16  C   UNL     1       0.306  12.631  21.281  0.00  0.00    +0.000 A 
ENDBRANCH   5  11
ENDBRANCH   1   9
BRANCH   1  17
ATOM     17  C   UNL     1       4.093   7.762  17.797  0.00  0.00    +0.000 C 
BRANCH  17  18
ATOM     18  C   UNL     1       4.712   6.386  17.709  0.00  0.00    +0.000 C 
ATOM     19  O   UNL     1       5.877   6.148  18.021  0.00  0.00    +0.000 OA
ATOM     20  N   UNL     1       3.830   5.429  17.280  0.00  0.00    +0.000 N 
ATOM     21  H   UNL     1       2.878   5.727  17.099  0.00  0.00    +0.000 HD
BRANCH  20  22
ATOM     22  C   UNL     1       4.085   3.973  17.340  0.00  0.00    +0.000 C 
ATOM     23  C   UNL     1       5.170   3.605  16.317  0.00  0.00    +0.000 C 
ATOM     24  C   UNL     1       2.806   3.108  17.091  0.00  0.00    +0.000 C 
ATOM     25  C   UNL     1       2.246   2.955  18.473  0.00  0.00    +0.000 A 
ATOM     26  C   UNL     1       1.001   2.468  18.832  0.00  0.00    +0.000 A 
ATOM     27  C   UNL     1       0.648   2.494  20.181  0.00  0.00    +0.000 A 
ATOM     28  C   UNL     1       1.533   3.016  21.139  0.00  0.00    +0.000 A 
ATOM     29  C   UNL     1       2.815   3.438  20.772  0.00  0.00    +0.000 A 
ATOM     30  C   UNL     1       3.170   3.367  19.437  0.00  0.00    +0.000 A 
ATOM     31  C   UNL     1       4.504   3.625  18.799  0.00  0.00    +0.000 C 
ENDBRANCH  20  22
ENDBRANCH  17  18
ENDBRANCH   1  17
TORSDOF 5
ENDMDL
MODEL 6
REMARK VINA RESULT:      -8.0      5.089      9.223
REMARK  Name = 
REMARK  7 active torsions:
REMARK  status: ('A' for Active; 'I' for Inactive)
REMARK    1  A    between atoms: C_1  and  C_2
REMARK    2  A    between atoms: C_4  and  C_5
REMARK    3  A    between atoms: C_14  and  C_15
REMARK    4  A    between atoms: C_15  and  C_16
REMARK    5  A    between atoms: C_16  and  C_17
REMARK    6  A    between atoms: N_19  and  C_20
REMARK    7  A    between atoms: C_20  and  C_21
REMARK                            x       y       z     vdW  Elec       q    Type
REMARK                         _______ _______ _______ _____ _____    ______ ____
ROOT
ATOM      1  C   UNL     1       7.744   7.200  17.516  0.00  0.00    +0.000 C 
ENDROOT
BRANCH   1   9
ATOM      2  C   UNL     1       5.275   6.862  15.734  0.00  0.00    +0.000 C 
ATOM      3  C   UNL     1       5.480   6.132  17.038  0.00  0.00    +0.000 A 
ATOM      4  N   UNL     1       4.434   5.301  17.365  0.00  0.00    +0.000 NA
ATOM      5  C   UNL     1       4.463   4.699  18.509  0.00  0.00    +0.000 A 
ATOM      6  N   UNL     1       5.508   4.827  19.383  0.00  0.00    +0.000 N 
ATOM      7  C   UNL     1       6.596   5.584  19.108  0.00  0.00    +0.000 A 
ATOM      8  O   UNL     1       7.533   5.657  19.895  0.00  0.00    +0.000 OA
ATOM      9  C   UNL     1       6.573   6.304  17.805  0.00  0.00    +0.000 A 
ATOM     10  H   UNL     1       5.549   4.312  20.251  0.00  0.00    +0.000 HD
BRANCH   5  11
ATOM     11  C   UNL     1       3.364   3.813  18.921  0.00  0.00    +0.000 A 
ATOM     12  C   UNL     1       2.400   3.357  18.020  0.00  0.00    +0.000 A 
ATOM     13  C   UNL     1       1.380   2.531  18.486  0.00  0.00    +0.000 A 
ATOM     14  C   UNL     1       1.368   2.192  19.830  0.00  0.00    +0.000 A 
ATOM     15  N   UNL     1       2.294   2.607  20.723  0.00  0.00    +0.000 NA
ATOM     16  C   UNL     1       3.283   3.402  20.243  0.00  0.00    +0.000 A 
ENDBRANCH   5  11
ENDBRANCH   1   9
BRANCH   1  17
ATOM     17  C   UNL     1       7.417   8.689  17.637  0.00  0.00    +0.000 C 
BRANCH  17  18
ATOM     18  C   UNL     1       8.499   9.405  18.410  0.00  0.00    +0.000 C 
ATOM     19  O   UNL     1       9.204   8.855  19.254  0.00  0.00    +0.000 OA
ATOM     20  N   UNL     1       8.634  10.720  18.048  0.00  0.00    +0.000 N 
ATOM     21  H   UNL     1       8.035  11.058  17.304  0.00  0.00    +0.000 HD
BRANCH  20  22
ATOM     22  C   UNL     1       9.765  11.585  18.452  0.00  0.00    +0.000 C 
ATOM     23  C   UNL     1      10.993  11.247  17.595  0.00  0.00    +0.000 C 
ATOM     24  C   UNL     1      10.128  11.466  19.968  0.00  0.00    +0.000 C 
ATOM     25  C   UNL     1       9.252  12.510  20.592  0.00  0.00    +0.000 A 
ATOM     26  C   UNL     1       8.991  12.701  21.938  0.00  0.00    +0.000 A 
ATOM     27  C   UNL     1       8.069  13.684  22.297  0.00  0.00    +0.000 A 
ATOM     28  C   UNL     1       7.418  14.444  21.312  0.00  0.00    +0.000 A 
ATOM     29  C   UNL     1       7.743  14.290  19.961  0.00  0.00    +0.000 A 
ATOM     30  C   UNL     1       8.691  13.341  19.620  0.00  0.00    +0.000 A 
ATOM     31  C   UNL     1       9.313  13.065  18.282  0.00  0.00    +0.000 C 
ENDBRANCH  20  22
ENDBRANCH  17  18
ENDBRANCH   1  17
TORSDOF 5
ENDMDL
MODEL 7
REMARK VINA RESULT:      -7.9      3.157      3.616
REMARK  Name = 
REMARK  7 active torsions:
REMARK  status: ('A' for Active; 'I' for Inactive)
REMARK    1  A    between atoms: C_1  and  C_2
REMARK    2  A    between atoms: C_4  and  C_5
REMARK    3  A    between atoms: C_14  and  C_15
REMARK    4  A    between atoms: C_15  and  C_16
REMARK    5  A    between atoms: C_16  and  C_17
REMARK    6  A    between atoms: N_19  and  C_20
REMARK    7  A    between atoms: C_20  and  C_21
REMARK                            x       y       z     vdW  Elec       q    Type
REMARK                         _______ _______ _______ _____ _____    ______ ____
ROOT
ATOM      1  C   UNL     1       1.852   8.104  20.360  0.00  0.00    +0.000 C 
ENDROOT
BRANCH   1   9
ATOM      2  C   UNL     1       0.387   9.604  18.126  0.00  0.00    +0.000 C 
ATOM      3  C   UNL     1       0.249   9.930  19.593  0.00  0.00    +0.000 A 
ATOM      4  N   UNL     1      -0.596  10.988  19.836  0.00  0.00    +0.000 NA
ATOM      5  C   UNL     1      -0.712  11.412  21.052  0.00  0.00    +0.000 A 
ATOM      6  N   UNL     1      -0.062  10.826  22.103  0.00  0.00    +0.000 N 
ATOM      7  C   UNL     1       0.744   9.749  21.949  0.00  0.00    +0.000 A 
ATOM      8  O   UNL     1       1.291   9.223  22.912  0.00  0.00    +0.000 OA
ATOM      9  C   UNL     1       0.910   9.257  20.554  0.00  0.00    +0.000 A 
ATOM     10  H   UNL     1      -0.199  11.129  23.057  0.00  0.00    +0.000 HD
BRANCH   5  11
ATOM     11  C   UNL     1      -1.586  12.552  21.370  0.00  0.00    +0.000 A 
ATOM     12  C   UNL     1      -1.392  13.343  22.504  0.00  0.00    +0.000 A 
ATOM     13  C   UNL     1      -2.268  14.398  22.748  0.00  0.00    +0.000 A 
ATOM     14  C   UNL     1      -3.296  14.622  21.845  0.00  0.00    +0.000 A 
ATOM     15  N   UNL     1      -3.501  13.883  20.732  0.00  0.00    +0.000 NA
ATOM     16  C   UNL     1      -2.629  12.867  20.512  0.00  0.00    +0.000 A 
ENDBRANCH   5  11
ENDBRANCH   1   9
BRANCH   1  17
ATOM     17  C   UNL     1       1.234   6.746  20.703  0.00  0.00    +0.000 C 
BRANCH  17  18
ATOM     18  C   UNL     1       2.185   5.629  20.346  0.00  0.00    +0.000 C 
ATOM     19  O   UNL     1       2.325   4.616  21.029  0.00  0.00    +0.000 OA
ATOM     20  N   UNL     1       2.848   5.847  19.166  0.00  0.00    +0.000 N 
ATOM     21  H   UNL     1       2.618   6.693  18.657  0.00  0.00    +0.000 HD
BRANCH  20  22
ATOM     22  C   UNL     1       3.640   4.821  18.453  0.00  0.00    +0.000 C 
ATOM     23  C   UNL     1       2.755   3.598  18.175  0.00  0.00    +0.000 C 
ATOM     24  C   UNL     1       4.927   4.381  19.225  0.00  0.00    +0.000 C 
ATOM     25  C   UNL     1       5.950   5.357  18.730  0.00  0.00    +0.000 A 
ATOM     26  C   UNL     1       7.219   5.583  19.236  0.00  0.00    +0.000 A 
ATOM     27  C   UNL     1       7.980   6.608  18.674  0.00  0.00    +0.000 A 
ATOM     28  C   UNL     1       7.458   7.394  17.634  0.00  0.00    +0.000 A 
ATOM     29  C   UNL     1       6.204   7.110  17.085  0.00  0.00    +0.000 A 
ATOM     30  C   UNL     1       5.476   6.063  17.621  0.00  0.00    +0.000 A 
ATOM     31  C   UNL     1       4.183   5.469  17.144  0.00  0.00    +0.000 C 
ENDBRANCH  20  22
ENDBRANCH  17  18
ENDBRANCH   1  17
TORSDOF 5
ENDMDL
MODEL 8
REMARK VINA RESULT:      -7.9      3.359      5.306
REMARK  Name = 
REMARK  7 active torsions:
REMARK  status: ('A' for Active; 'I' for Inactive)
REMARK    1  A    between atoms: C_1  and  C_2
REMARK    2  A    between atoms: C_4  and  C_5
REMARK    3  A    between atoms: C_14  and  C_15
REMARK    4  A    between atoms: C_15  and  C_16
REMARK    5  A    between atoms: C_16  and  C_17
REMARK    6  A    between atoms: N_19  and  C_20
REMARK    7  A    between atoms: C_20  and  C_21
REMARK                            x       y       z     vdW  Elec       q    Type
REMARK                         _______ _______ _______ _____ _____    ______ ____
ROOT
ATOM      1  C   UNL     1      -0.005   9.532  20.010  0.00  0.00    +0.000 C 
ENDROOT
BRANCH   1   9
ATOM      2  C   UNL     1       0.275   9.431  23.059  0.00  0.00    +0.000 C 
ATOM      3  C   UNL     1      -0.380  10.564  22.309  0.00  0.00    +0.000 A 
ATOM      4  N   UNL     1      -0.860  11.554  23.134  0.00  0.00    +0.000 NA
ATOM      5  C   UNL     1      -1.526  12.527  22.602  0.00  0.00    +0.000 A 
ATOM      6  N   UNL     1      -1.733  12.627  21.254  0.00  0.00    +0.000 N 
ATOM      7  C   UNL     1      -1.246  11.720  20.374  0.00  0.00    +0.000 A 
ATOM      8  O   UNL     1      -1.419  11.850  19.168  0.00  0.00    +0.000 OA
ATOM      9  C   UNL     1      -0.495  10.580  20.968  0.00  0.00    +0.000 A 
ATOM     10  H   UNL     1      -2.207  13.418  20.839  0.00  0.00    +0.000 HD
BRANCH   5  11
ATOM     11  C   UNL     1      -2.080  13.604  23.436  0.00  0.00    +0.000 A 
ATOM     12  C   UNL     1      -1.267  14.536  24.084  0.00  0.00    +0.000 A 
ATOM     13  C   UNL     1      -1.863  15.520  24.868  0.00  0.00    +0.000 A 
ATOM     14  C   UNL     1      -3.245  15.536  24.968  0.00  0.00    +0.000 A 
ATOM     15  N   UNL     1      -4.059  14.656  24.343  0.00  0.00    +0.000 NA
ATOM     16  C   UNL     1      -3.456  13.713  23.577  0.00  0.00    +0.000 A 
ENDBRANCH   5  11
ENDBRANCH   1   9
BRANCH   1  17
ATOM     17  C   UNL     1       1.398   9.810  19.467  0.00  0.00    +0.000 C 
BRANCH  17  18
ATOM     18  C   UNL     1       1.832   8.701  18.537  0.00  0.00    +0.000 C 
ATOM     19  O   UNL     1       1.763   8.781  17.312  0.00  0.00    +0.000 OA
ATOM     20  N   UNL     1       2.342   7.616  19.200  0.00  0.00    +0.000 N 
ATOM     21  H   UNL     1       2.400   7.677  20.211  0.00  0.00    +0.000 HD
BRANCH  20  22
ATOM     22  C   UNL     1       3.066   6.504  18.547  0.00  0.00    +0.000 C 
ATOM     23  C   UNL     1       4.053   7.075  17.519  0.00  0.00    +0.000 C 
ATOM     24  C   UNL     1       2.122   5.466  17.856  0.00  0.00    +0.000 C 
ATOM     25  C   UNL     1       1.848   4.492  18.961  0.00  0.00    +0.000 A 
ATOM     26  C   UNL     1       0.897   3.487  18.986  0.00  0.00    +0.000 A 
ATOM     27  C   UNL     1       0.754   2.746  20.159  0.00  0.00    +0.000 A 
ATOM     28  C   UNL     1       1.546   3.031  21.284  0.00  0.00    +0.000 A 
ATOM     29  C   UNL     1       2.550   4.001  21.222  0.00  0.00    +0.000 A 
ATOM     30  C   UNL     1       2.713   4.700  20.038  0.00  0.00    +0.000 A 
ATOM     31  C   UNL     1       3.782   5.685  19.662  0.00  0.00    +0.000 C 
ENDBRANCH  20  22
ENDBRANCH  17  18
ENDBRANCH   1  17
TORSDOF 5
ENDMDL
MODEL 9
REMARK VINA RESULT:      -7.7      5.181      9.223
REMARK  Name = 
REMARK  7 active torsions:
REMARK  status: ('A' for Active; 'I' for Inactive)
REMARK    1  A    between atoms: C_1  and  C_2
REMARK    2  A    between atoms: C_4  and  C_5
REMARK    3  A    between atoms: C_14  and  C_15
REMARK    4  A    between atoms: C_15  and  C_16
REMARK    5  A    between atoms: C_16  and  C_17
REMARK    6  A    between atoms: N_19  and  C_20
REMARK    7  A    between atoms: C_20  and  C_21
REMARK                            x       y       z     vdW  Elec       q    Type
REMARK                         _______ _______ _______ _____ _____    ______ ____
ROOT
ATOM      1  C   UNL     1       7.856   7.449  17.131  0.00  0.00    +0.000 C 
ENDROOT
BRANCH   1   9
ATOM      2  C   UNL     1       7.814   5.682  19.634  0.00  0.00    +0.000 C 
ATOM      3  C   UNL     1       6.677   5.773  18.646  0.00  0.00    +0.000 A 
ATOM      4  N   UNL     1       5.612   4.967  18.971  0.00  0.00    +0.000 NA
ATOM      5  C   UNL     1       4.622   4.896  18.141  0.00  0.00    +0.000 A 
ATOM      6  N   UNL     1       4.579   5.619  16.981  0.00  0.00    +0.000 N 
ATOM      7  C   UNL     1       5.565   6.473  16.621  0.00  0.00    +0.000 A 
ATOM      8  O   UNL     1       5.487   7.133  15.591  0.00  0.00    +0.000 OA
ATOM      9  C   UNL     1       6.725   6.554  17.551  0.00  0.00    +0.000 A 
ATOM     10  H   UNL     1       3.778   5.599  16.364  0.00  0.00    +0.000 HD
BRANCH   5  11
ATOM     11  C   UNL     1       3.463   4.034  18.425  0.00  0.00    +0.000 A 
ATOM     12  C   UNL     1       2.231   4.555  18.824  0.00  0.00    +0.000 A 
ATOM     13  C   UNL     1       1.183   3.677  19.088  0.00  0.00    +0.000 A 
ATOM     14  C   UNL     1       1.408   2.317  18.938  0.00  0.00    +0.000 A 
ATOM     15  N   UNL     1       2.586   1.785  18.541  0.00  0.00    +0.000 NA
ATOM     16  C   UNL     1       3.588   2.661  18.280  0.00  0.00    +0.000 A 
ENDBRANCH   5  11
ENDBRANCH   1   9
BRANCH   1  17
ATOM     17  C   UNL     1       7.611   8.928  17.439  0.00  0.00    +0.000 C 
BRANCH  17  18
ATOM     18  C   UNL     1       8.472   9.375  18.596  0.00  0.00    +0.000 C 
ATOM     19  O   UNL     1       9.157   8.605  19.267  0.00  0.00    +0.000 OA
ATOM     20  N   UNL     1       8.436  10.730  18.797  0.00  0.00    +0.000 N 
ATOM     21  H   UNL     1       7.878  11.278  18.152  0.00  0.00    +0.000 HD
BRANCH  20  22
ATOM     22  C   UNL     1       9.363  11.467  19.684  0.00  0.00    +0.000 C 
ATOM     23  C   UNL     1       9.195  10.963  21.125  0.00  0.00    +0.000 C 
ATOM     24  C   UNL     1       9.167  13.018  19.639  0.00  0.00    +0.000 C 
ATOM     25  C   UNL     1      10.084  13.426  18.526  0.00  0.00    +0.000 A 
ATOM     26  C   UNL     1      10.154  14.657  17.896  0.00  0.00    +0.000 A 
ATOM     27  C   UNL     1      11.027  14.795  16.816  0.00  0.00    +0.000 A 
ATOM     28  C   UNL     1      11.797  13.705  16.379  0.00  0.00    +0.000 A 
ATOM     29  C   UNL     1      11.769  12.489  17.067  0.00  0.00    +0.000 A 
ATOM     30  C   UNL     1      10.933  12.377  18.164  0.00  0.00    +0.000 A 
ATOM     31  C   UNL     1      10.808  11.248  19.146  0.00  0.00    +0.000 C 
ENDBRANCH  20  22
ENDBRANCH  17  18
ENDBRANCH   1  17
TORSDOF 5
ENDMDL
