MODEL 1
REMARK VINA RESULT:      -9.3      0.000      0.000
REMARK  Name = 
REMARK  9 active torsions:
REMARK  status: ('A' for Active; 'I' for Inactive)
REMARK    1  A    between atoms: C_1  and  C_2
REMARK    2  A    between atoms: C_6  and  O_7
REMARK    3  A    between atoms: O_7  and  C_8
REMARK    4  A    between atoms: C_8  and  C_9
REMARK    5  A    between atoms: C_9  and  O_10
REMARK    6  A    between atoms: C_9  and  C_11
REMARK    7  A    between atoms: C_11  and  N_12
REMARK    8  A    between atoms: C_16  and  C_17
REMARK    9  A    between atoms: C_16  and  C_18
REMARK                            x       y       z     vdW  Elec       q    Type
REMARK                         _______ _______ _______ _____ _____    ______ ____
ROOT
ATOM      1  N   UNL     1       6.114   6.151  17.840  0.00  0.00    +0.000 N 
ATOM      2  C   UNL     1       6.044   5.352  18.932  0.00  0.00    +0.000 C 
ATOM      3  O   UNL     1       6.769   5.329  19.915  0.00  0.00    +0.000 OA
ATOM      4  N   UNL     1       4.935   4.506  18.763  0.00  0.00    +0.000 N 
ATOM      5  C   UNL     1       4.012   5.176  17.870  0.00  0.00    +0.000 C 
ATOM      6  C   UNL     1       3.055   4.261  17.131  0.00  0.00    +0.000 C 
ATOM      7  C   UNL     1       5.095   5.803  16.987  0.00  0.00    +0.000 C 
ATOM      8  O   UNL     1       4.994   6.121  15.810  0.00  0.00    +0.000 OA
ATOM      9  H   UNL     1       4.641   3.966  19.566  0.00  0.00    +0.000 HD
ENDROOT
BRANCH   5  10
ATOM     10  C   UNL     1       3.245   6.302  18.596  0.00  0.00    +0.000 A 
ATOM     11  C   UNL     1       2.771   6.106  19.905  0.00  0.00    +0.000 A 
ATOM     12  C   UNL     1       2.008   7.071  20.546  0.00  0.00    +0.000 A 
ATOM     13  C   UNL     1       1.613   8.208  19.855  0.00  0.00    +0.000 A 
ATOM     14  C   UNL     1       0.599   8.997  20.391  0.00  0.00    +0.000 A 
ATOM     15  C   UNL     1      -0.064   9.882  19.556  0.00  0.00    +0.000 A 
ATOM     16  C   UNL     1       0.520  10.263  18.351  0.00  0.00    +0.000 A 
ATOM     17  C   UNL     1       1.671   9.620  17.895  0.00  0.00    +0.000 A 
ATOM     18  C   UNL     1       2.127   8.478  18.568  0.00  0.00    +0.000 A 
ATOM     19  C   UNL     1       2.984   7.535  17.972  0.00  0.00    +0.000 A 
ENDBRANCH   5  10
BRANCH   1  20
ATOM     20  C   UNL     1       6.578   7.517  17.789  0.00  0.00    +0.000 C 
BRANCH  20  21
ATOM     21  C   UNL     1       8.084   7.813  17.890  0.00  0.00    +0.000 C 
BRANCH  21  22
ATOM     22  O   UNL     1       8.592   7.055  19.006  0.00  0.00    +0.000 OA
ATOM     23  H   UNL     1       8.306   7.482  19.830  0.00  0.00    +0.000 HD
ENDBRANCH  21  22
BRANCH  21  24
ATOM     24  C   UNL     1       8.301   9.309  18.113  0.00  0.00    +0.000 C 
BRANCH  24  25
ATOM     25  O   UNL     1       9.004   9.581  19.330  0.00  0.00    +0.000 OA
BRANCH  25  31
ATOM     26  C   UNL     1      11.141  13.100  16.692  0.00  0.00    +0.000 C 
ATOM     27  C   UNL     1      10.755  12.526  18.020  0.00  0.00    +0.000 A 
ATOM     28  C   UNL     1      11.027  13.230  19.195  0.00  0.00    +0.000 A 
ATOM     29  C   UNL     1      10.648  12.718  20.432  0.00  0.00    +0.000 A 
ATOM     30  C   UNL     1       9.990  11.498  20.511  0.00  0.00    +0.000 A 
ATOM     31  C   UNL     1       9.683  10.778  19.352  0.00  0.00    +0.000 A 
ATOM     32  C   UNL     1      10.068  11.296  18.109  0.00  0.00    +0.000 A 
ENDBRANCH  25  31
ENDBRANCH  24  25
ENDBRANCH  21  24
ENDBRANCH  20  21
ENDBRANCH   1  20
TORSDOF 7
ENDMDL
MODEL 2
REMARK VINA RESULT:      -9.2      4.323      5.822
REMARK  Name = 
REMARK  9 active torsions:
REMARK  status: ('A' for Active; 'I' for Inactive)
REMARK    1  A    between atoms: C_1  and  C_2
REMARK    2  A    between atoms: C_6  and  O_7
REMARK    3  A    between atoms: O_7  and  C_8
REMARK    4  A    between atoms: C_8  and  C_9
REMARK    5  A    between atoms: C_9  and  O_10
REMARK    6  A    between atoms: C_9  and  C_11
REMARK    7  A    between atoms: C_11  and  N_12
REMARK    8  A    between atoms: C_16  and  C_17
REMARK    9  A    between atoms: C_16  and  C_18
REMARK                            x       y       z     vdW  Elec       q    Type
REMARK                         _______ _______ _______ _____ _____    ______ ____
ROOT
ATOM      1  N   UNL     1       4.875   3.475  18.646  0.00  0.00    +0.000 N 
ATOM      2  C   UNL     1       4.437   2.963  19.821  0.00  0.00    +0.000 C 
ATOM      3  O   UNL     1       5.062   2.760  20.850  0.00  0.00    +0.000 OA
ATOM      4  N   UNL     1       3.066   2.695  19.677  0.00  0.00    +0.000 N 
ATOM      5  C   UNL     1       2.560   3.570  18.641  0.00  0.00    +0.000 C 
ATOM      6  C   UNL     1       1.297   3.089  17.953  0.00  0.00    +0.000 C 
ATOM      7  C   UNL     1       3.818   3.504  17.769  0.00  0.00    +0.000 C 
ATOM      8  O   UNL     1       3.884   3.657  16.557  0.00  0.00    +0.000 OA
ATOM      9  H   UNL     1       2.549   2.470  20.517  0.00  0.00    +0.000 HD
ENDROOT
BRANCH   5  10
ATOM     10  C   UNL     1       2.387   5.014  19.159  0.00  0.00    +0.000 A 
ATOM     11  C   UNL     1       1.942   5.246  20.472  0.00  0.00    +0.000 A 
ATOM     12  C   UNL     1       1.700   6.532  20.933  0.00  0.00    +0.000 A 
ATOM     13  C   UNL     1       1.793   7.606  20.060  0.00  0.00    +0.000 A 
ATOM     14  C   UNL     1       1.243   8.826  20.440  0.00  0.00    +0.000 A 
ATOM     15  C   UNL     1       0.980   9.770  19.460  0.00  0.00    +0.000 A 
ATOM     16  C   UNL     1       1.606   9.671  18.222  0.00  0.00    +0.000 A 
ATOM     17  C   UNL     1       2.347   8.534  17.899  0.00  0.00    +0.000 A 
ATOM     18  C   UNL     1       2.306   7.426  18.756  0.00  0.00    +0.000 A 
ATOM     19  C   UNL     1       2.645   6.127  18.339  0.00  0.00    +0.000 A 
ENDBRANCH   5  10
BRANCH   1  20
ATOM     20  C   UNL     1       5.913   4.461  18.457  0.00  0.00    +0.000 C 
BRANCH  20  21
ATOM     21  C   UNL     1       6.866   4.341  17.256  0.00  0.00    +0.000 C 
BRANCH  21  22
ATOM     22  O   UNL     1       8.179   4.058  17.781  0.00  0.00    +0.000 OA
ATOM     23  H   UNL     1       8.127   4.022  18.750  0.00  0.00    +0.000 HD
ENDBRANCH  21  22
BRANCH  21  24
ATOM     24  C   UNL     1       6.872   5.651  16.470  0.00  0.00    +0.000 C 
BRANCH  24  25
ATOM     25  O   UNL     1       5.932   5.640  15.390  0.00  0.00    +0.000 OA
BRANCH  25  31
ATOM     26  C   UNL     1       5.146   2.483  11.739  0.00  0.00    +0.000 C 
ATOM     27  C   UNL     1       6.005   3.516  12.400  0.00  0.00    +0.000 A 
ATOM     28  C   UNL     1       7.188   3.938  11.791  0.00  0.00    +0.000 A 
ATOM     29  C   UNL     1       7.980   4.917  12.384  0.00  0.00    +0.000 A 
ATOM     30  C   UNL     1       7.599   5.489  13.590  0.00  0.00    +0.000 A 
ATOM     31  C   UNL     1       6.407   5.105  14.215  0.00  0.00    +0.000 A 
ATOM     32  C   UNL     1       5.615   4.117  13.616  0.00  0.00    +0.000 A 
ENDBRANCH  25  31
ENDBRANCH  24  25
ENDBRANCH  21  24
ENDBRANCH  20  21
ENDBRANCH   1  20
TORSDOF 7
ENDMDL
MODEL 3
REMARK VINA RESULT:      -9.1      2.273      3.525
REMARK  Name = 
REMARK  9 active torsions:
REMARK  status: ('A' for Active; 'I' for Inactive)
REMARK    1  A    between atoms: C_1  and  C_2
REMARK    2  A    between atoms: C_6  and  O_7
REMARK    3  A    between atoms: O_7  and  C_8
REMARK    4  A    between atoms: C_8  and  C_9
REMARK    5  A    between atoms: C_9  and  O_10
REMARK    6  A    between atoms: C_9  and  C_11
REMARK    7  A    between atoms: C_11  and  N_12
REMARK    8  A    between atoms: C_16  and  C_17
REMARK    9  A    between atoms: C_16  and  C_18
REMARK                            x       y       z     vdW  Elec       q    Type
REMARK                         _______ _______ _______ _____ _____    ______ ____
ROOT
ATOM      1  N   UNL     1       6.924   5.910  16.653  0.00  0.00    +0.000 N 
ATOM      2  C   UNL     1       7.293   4.666  17.042  0.00  0.00    +0.000 C 
ATOM      3  O   UNL     1       8.104   4.336  17.894  0.00  0.00    +0.000 OA
ATOM      4  N   UNL     1       6.549   3.750  16.280  0.00  0.00    +0.000 N 
ATOM      5  C   UNL     1       5.336   4.421  15.861  0.00  0.00    +0.000 C 
ATOM      6  C   UNL     1       4.678   3.847  14.621  0.00  0.00    +0.000 C 
ATOM      7  C   UNL     1       5.992   5.789  15.651  0.00  0.00    +0.000 C 
ATOM      8  O   UNL     1       5.626   6.674  14.891  0.00  0.00    +0.000 OA
ATOM      9  H   UNL     1       6.578   2.781  16.566  0.00  0.00    +0.000 HD
ENDROOT
BRANCH   5  10
ATOM     10  C   UNL     1       4.322   4.526  17.021  0.00  0.00    +0.000 A 
ATOM     11  C   UNL     1       3.754   5.768  17.355  0.00  0.00    +0.000 A 
ATOM     12  C   UNL     1       2.906   5.902  18.444  0.00  0.00    +0.000 A 
ATOM     13  C   UNL     1       2.691   4.821  19.287  0.00  0.00    +0.000 A 
ATOM     14  C   UNL     1       2.111   5.049  20.532  0.00  0.00    +0.000 A 
ATOM     15  C   UNL     1       2.248   4.082  21.514  0.00  0.00    +0.000 A 
ATOM     16  C   UNL     1       2.586   2.780  21.158  0.00  0.00    +0.000 A 
ATOM     17  C   UNL     1       2.970   2.488  19.848  0.00  0.00    +0.000 A 
ATOM     18  C   UNL     1       3.181   3.540  18.948  0.00  0.00    +0.000 A 
ATOM     19  C   UNL     1       3.955   3.401  17.782  0.00  0.00    +0.000 A 
ENDBRANCH   5  10
BRANCH   1  20
ATOM     20  C   UNL     1       6.857   7.096  17.475  0.00  0.00    +0.000 C 
BRANCH  20  21
ATOM     21  C   UNL     1       8.156   7.802  17.900  0.00  0.00    +0.000 C 
BRANCH  21  22
ATOM     22  O   UNL     1       8.566   7.220  19.153  0.00  0.00    +0.000 OA
ATOM     23  H   UNL     1       9.236   7.794  19.560  0.00  0.00    +0.000 HD
ENDBRANCH  21  22
BRANCH  21  24
ATOM     24  C   UNL     1       7.899   9.300  18.059  0.00  0.00    +0.000 C 
BRANCH  24  25
ATOM     25  O   UNL     1       8.996  10.091  17.590  0.00  0.00    +0.000 OA
BRANCH  25  31
ATOM     26  C   UNL     1       8.883  11.810  22.166  0.00  0.00    +0.000 C 
ATOM     27  C   UNL     1       9.590  11.653  20.855  0.00  0.00    +0.000 A 
ATOM     28  C   UNL     1      10.884  12.149  20.692  0.00  0.00    +0.000 A 
ATOM     29  C   UNL     1      11.560  11.985  19.487  0.00  0.00    +0.000 A 
ATOM     30  C   UNL     1      10.952  11.321  18.430  0.00  0.00    +0.000 A 
ATOM     31  C   UNL     1       9.663  10.793  18.568  0.00  0.00    +0.000 A 
ATOM     32  C   UNL     1       8.987  10.963  19.782  0.00  0.00    +0.000 A 
ENDBRANCH  25  31
ENDBRANCH  24  25
ENDBRANCH  21  24
ENDBRANCH  20  21
ENDBRANCH   1  20
TORSDOF 7
ENDMDL
MODEL 4
REMARK VINA RESULT:      -9.1      0.482      1.336
REMARK  Name = 
REMARK  9 active torsions:
REMARK  status: ('A' for Active; 'I' for Inactive)
REMARK    1  A    between atoms: C_1  and  C_2
REMARK    2  A    between atoms: C_6  and  O_7
REMARK    3  A    between atoms: O_7  and  C_8
REMARK    4  A    between atoms: C_8  and  C_9
REMARK    5  A    between atoms: C_9  and  O_10
REMARK    6  A    between atoms: C_9  and  C_11
REMARK    7  A    between atoms: C_11  and  N_12
REMARK    8  A    between atoms: C_16  and  C_17
REMARK    9  A    between atoms: C_16  and  C_18
REMARK                            x       y       z     vdW  Elec       q    Type
REMARK                         _______ _______ _______ _____ _____    ______ ____
ROOT
ATOM      1  N   UNL     1       5.848   5.868  17.911  0.00  0.00    +0.000 N 
ATOM      2  C   UNL     1       5.752   5.097  19.021  0.00  0.00    +0.000 C 
ATOM      3  O   UNL     1       6.491   5.055  19.992  0.00  0.00    +0.000 OA
ATOM      4  N   UNL     1       4.596   4.312  18.888  0.00  0.00    +0.000 N 
ATOM      5  C   UNL     1       3.696   5.013  17.996  0.00  0.00    +0.000 C 
ATOM      6  C   UNL     1       2.677   4.138  17.292  0.00  0.00    +0.000 C 
ATOM      7  C   UNL     1       4.797   5.560  17.081  0.00  0.00    +0.000 C 
ATOM      8  O   UNL     1       4.694   5.858  15.900  0.00  0.00    +0.000 OA
ATOM      9  H   UNL     1       4.285   3.806  19.707  0.00  0.00    +0.000 HD
ENDROOT
BRANCH   5  10
ATOM     10  C   UNL     1       3.006   6.195  18.709  0.00  0.00    +0.000 A 
ATOM     11  C   UNL     1       2.566   6.062  20.037  0.00  0.00    +0.000 A 
ATOM     12  C   UNL     1       1.870   7.081  20.670  0.00  0.00    +0.000 A 
ATOM     13  C   UNL     1       1.503   8.213  19.956  0.00  0.00    +0.000 A 
ATOM     14  C   UNL     1       0.545   9.064  20.498  0.00  0.00    +0.000 A 
ATOM     15  C   UNL     1      -0.105   9.952  19.656  0.00  0.00    +0.000 A 
ATOM     16  C   UNL     1       0.455  10.268  18.421  0.00  0.00    +0.000 A 
ATOM     17  C   UNL     1       1.560   9.559  17.950  0.00  0.00    +0.000 A 
ATOM     18  C   UNL     1       1.986   8.419  18.644  0.00  0.00    +0.000 A 
ATOM     19  C   UNL     1       2.779   7.419  18.053  0.00  0.00    +0.000 A 
ENDBRANCH   5  10
BRANCH   1  20
ATOM     20  C   UNL     1       6.386   7.205  17.821  0.00  0.00    +0.000 C 
BRANCH  20  21
ATOM     21  C   UNL     1       7.910   7.415  17.853  0.00  0.00    +0.000 C 
BRANCH  21  22
ATOM     22  O   UNL     1       8.405   6.756  19.035  0.00  0.00    +0.000 OA
ATOM     23  H   UNL     1       8.793   5.903  18.779  0.00  0.00    +0.000 HD
ENDBRANCH  21  22
BRANCH  21  24
ATOM     24  C   UNL     1       8.223   8.910  17.898  0.00  0.00    +0.000 C 
BRANCH  24  25
ATOM     25  O   UNL     1       9.018   9.263  19.035  0.00  0.00    +0.000 OA
BRANCH  25  31
ATOM     26  C   UNL     1       9.763  13.325  21.655  0.00  0.00    +0.000 C 
ATOM     27  C   UNL     1       9.843  12.585  20.355  0.00  0.00    +0.000 A 
ATOM     28  C   UNL     1      10.426  13.188  19.239  0.00  0.00    +0.000 A 
ATOM     29  C   UNL     1      10.529  12.500  18.034  0.00  0.00    +0.000 A 
ATOM     30  C   UNL     1      10.053  11.199  17.929  0.00  0.00    +0.000 A 
ATOM     31  C   UNL     1       9.483  10.559  19.035  0.00  0.00    +0.000 A 
ATOM     32  C   UNL     1       9.380  11.256  20.245  0.00  0.00    +0.000 A 
ENDBRANCH  25  31
ENDBRANCH  24  25
ENDBRANCH  21  24
ENDBRANCH  20  21
ENDBRANCH   1  20
TORSDOF 7
ENDMDL
MODEL 5
REMARK VINA RESULT:      -8.9      2.672      4.201
REMARK  Name = 
REMARK  9 active torsions:
REMARK  status: ('A' for Active; 'I' for Inactive)
REMARK    1  A    between atoms: C_1  and  C_2
REMARK    2  A    between atoms: C_6  and  O_7
REMARK    3  A    between atoms: O_7  and  C_8
REMARK    4  A    between atoms: C_8  and  C_9
REMARK    5  A    between atoms: C_9  and  O_10
REMARK    6  A    between atoms: C_9  and  C_11
REMARK    7  A    between atoms: C_11  and  N_12
REMARK    8  A    between atoms: C_16  and  C_17
REMARK    9  A    between atoms: C_16  and  C_18
REMARK                            x       y       z     vdW  Elec       q    Type
REMARK                         _______ _______ _______ _____ _____    ______ ____
ROOT
ATOM      1  N   UNL     1       4.003   2.900  18.238  0.00  0.00    +0.000 N 
ATOM      2  C   UNL     1       3.961   2.513  19.535  0.00  0.00    +0.000 C 
ATOM      3  O   UNL     1       4.885   2.342  20.315  0.00  0.00    +0.000 OA
ATOM      4  N   UNL     1       2.610   2.339  19.878  0.00  0.00    +0.000 N 
ATOM      5  C   UNL     1       1.827   3.168  18.987  0.00  0.00    +0.000 C 
ATOM      6  C   UNL     1       0.386   2.733  18.803  0.00  0.00    +0.000 C 
ATOM      7  C   UNL     1       2.716   2.942  17.759  0.00  0.00    +0.000 C 
ATOM      8  O   UNL     1       2.380   2.998  16.585  0.00  0.00    +0.000 OA
ATOM      9  H   UNL     1       2.395   2.217  20.858  0.00  0.00    +0.000 HD
ENDROOT
BRANCH   5  10
ATOM     10  C   UNL     1       1.904   4.656  19.391  0.00  0.00    +0.000 A 
ATOM     11  C   UNL     1       1.558   5.054  20.694  0.00  0.00    +0.000 A 
ATOM     12  C   UNL     1       1.539   6.393  21.057  0.00  0.00    +0.000 A 
ATOM     13  C   UNL     1       1.760   7.370  20.097  0.00  0.00    +0.000 A 
ATOM     14  C   UNL     1       1.425   8.687  20.394  0.00  0.00    +0.000 A 
ATOM     15  C   UNL     1       1.269   9.584  19.349  0.00  0.00    +0.000 A 
ATOM     16  C   UNL     1       1.819   9.294  18.104  0.00  0.00    +0.000 A 
ATOM     17  C   UNL     1       2.359   8.033  17.852  0.00  0.00    +0.000 A 
ATOM     18  C   UNL     1       2.182   7.014  18.797  0.00  0.00    +0.000 A 
ATOM     19  C   UNL     1       2.297   5.649  18.476  0.00  0.00    +0.000 A 
ENDBRANCH   5  10
BRANCH   1  20
ATOM     20  C   UNL     1       4.962   3.788  17.623  0.00  0.00    +0.000 C 
BRANCH  20  21
ATOM     21  C   UNL     1       5.007   3.916  16.091  0.00  0.00    +0.000 C 
BRANCH  21  22
ATOM     22  O   UNL     1       6.047   3.036  15.621  0.00  0.00    +0.000 OA
ATOM     23  H   UNL     1       6.896   3.506  15.660  0.00  0.00    +0.000 HD
ENDBRANCH  21  22
BRANCH  21  24
ATOM     24  C   UNL     1       5.310   5.363  15.704  0.00  0.00    +0.000 C 
BRANCH  24  25
ATOM     25  O   UNL     1       6.716   5.622  15.633  0.00  0.00    +0.000 OA
BRANCH  25  31
ATOM     26  C   UNL     1       8.305   9.542  18.087  0.00  0.00    +0.000 C 
ATOM     27  C   UNL     1       8.075   8.064  18.009  0.00  0.00    +0.000 A 
ATOM     28  C   UNL     1       8.364   7.251  19.105  0.00  0.00    +0.000 A 
ATOM     29  C   UNL     1       8.129   5.880  19.052  0.00  0.00    +0.000 A 
ATOM     30  C   UNL     1       7.599   5.306  17.905  0.00  0.00    +0.000 A 
ATOM     31  C   UNL     1       7.277   6.097  16.796  0.00  0.00    +0.000 A 
ATOM     32  C   UNL     1       7.518   7.475  16.854  0.00  0.00    +0.000 A 
ENDBRANCH  25  31
ENDBRANCH  24  25
ENDBRANCH  21  24
ENDBRANCH  20  21
ENDBRANCH   1  20
TORSDOF 7
ENDMDL
MODEL 6
REMARK VINA RESULT:      -8.9      2.197      3.245
REMARK  Name = 
REMARK  9 active torsions:
REMARK  status: ('A' for Active; 'I' for Inactive)
REMARK    1  A    between atoms: C_1  and  C_2
REMARK    2  A    between atoms: C_6  and  O_7
REMARK    3  A    between atoms: O_7  and  C_8
REMARK    4  A    between atoms: C_8  and  C_9
REMARK    5  A    between atoms: C_9  and  O_10
REMARK    6  A    between atoms: C_9  and  C_11
REMARK    7  A    between atoms: C_11  and  N_12
REMARK    8  A    between atoms: C_16  and  C_17
REMARK    9  A    between atoms: C_16  and  C_18
REMARK                            x       y       z     vdW  Elec       q    Type
REMARK                         _______ _______ _______ _____ _____    ______ ____
ROOT
ATOM      1  N   UNL     1       6.975   5.864  16.602  0.00  0.00    +0.000 N 
ATOM      2  C   UNL     1       7.311   4.596  16.942  0.00  0.00    +0.000 C 
ATOM      3  O   UNL     1       8.131   4.213  17.761  0.00  0.00    +0.000 OA
ATOM      4  N   UNL     1       6.517   3.731  16.172  0.00  0.00    +0.000 N 
ATOM      5  C   UNL     1       5.317   4.454  15.806  0.00  0.00    +0.000 C 
ATOM      6  C   UNL     1       4.609   3.942  14.567  0.00  0.00    +0.000 C 
ATOM      7  C   UNL     1       6.014   5.806  15.622  0.00  0.00    +0.000 C 
ATOM      8  O   UNL     1       5.659   6.726  14.899  0.00  0.00    +0.000 OA
ATOM      9  H   UNL     1       6.520   2.752  16.427  0.00  0.00    +0.000 HD
ENDROOT
BRANCH   5  10
ATOM     10  C   UNL     1       4.337   4.556  16.996  0.00  0.00    +0.000 A 
ATOM     11  C   UNL     1       3.836   5.807  17.395  0.00  0.00    +0.000 A 
ATOM     12  C   UNL     1       3.021   5.933  18.510  0.00  0.00    +0.000 A 
ATOM     13  C   UNL     1       2.777   4.829  19.314  0.00  0.00    +0.000 A 
ATOM     14  C   UNL     1       2.238   5.030  20.581  0.00  0.00    +0.000 A 
ATOM     15  C   UNL     1       2.353   4.016  21.518  0.00  0.00    +0.000 A 
ATOM     16  C   UNL     1       2.622   2.717  21.100  0.00  0.00    +0.000 A 
ATOM     17  C   UNL     1       2.959   2.463  19.770  0.00  0.00    +0.000 A 
ATOM     18  C   UNL     1       3.198   3.543  18.910  0.00  0.00    +0.000 A 
ATOM     19  C   UNL     1       3.936   3.418  17.719  0.00  0.00    +0.000 A 
ENDBRANCH   5  10
BRANCH   1  20
ATOM     20  C   UNL     1       6.969   7.024  17.461  0.00  0.00    +0.000 C 
BRANCH  20  21
ATOM     21  C   UNL     1       8.286   7.515  18.086  0.00  0.00    +0.000 C 
BRANCH  21  22
ATOM     22  O   UNL     1       8.417   6.865  19.366  0.00  0.00    +0.000 OA
ATOM     23  H   UNL     1       8.989   6.086  19.265  0.00  0.00    +0.000 HD
ENDBRANCH  21  22
BRANCH  21  24
ATOM     24  C   UNL     1       8.243   9.033  18.254  0.00  0.00    +0.000 C 
BRANCH  24  25
ATOM     25  O   UNL     1       9.098   9.487  19.309  0.00  0.00    +0.000 OA
BRANCH  25  31
ATOM     26  C   UNL     1      11.094  13.101  16.689  0.00  0.00    +0.000 C 
ATOM     27  C   UNL     1      10.426  12.620  17.940  0.00  0.00    +0.000 A 
ATOM     28  C   UNL     1      10.102  13.523  18.954  0.00  0.00    +0.000 A 
ATOM     29  C   UNL     1       9.459  13.090  20.110  0.00  0.00    +0.000 A 
ATOM     30  C   UNL     1       9.127  11.751  20.265  0.00  0.00    +0.000 A 
ATOM     31  C   UNL     1       9.419  10.824  19.258  0.00  0.00    +0.000 A 
ATOM     32  C   UNL     1      10.069  11.264  18.098  0.00  0.00    +0.000 A 
ENDBRANCH  25  31
ENDBRANCH  24  25
ENDBRANCH  21  24
ENDBRANCH  20  21
ENDBRANCH   1  20
TORSDOF 7
ENDMDL
MODEL 7
REMARK VINA RESULT:      -8.9      5.031      6.964
REMARK  Name = 
REMARK  9 active torsions:
REMARK  status: ('A' for Active; 'I' for Inactive)
REMARK    1  A    between atoms: C_1  and  C_2
REMARK    2  A    between atoms: C_6  and  O_7
REMARK    3  A    between atoms: O_7  and  C_8
REMARK    4  A    between atoms: C_8  and  C_9
REMARK    5  A    between atoms: C_9  and  O_10
REMARK    6  A    between atoms: C_9  and  C_11
REMARK    7  A    between atoms: C_11  and  N_12
REMARK    8  A    between atoms: C_16  and  C_17
REMARK    9  A    between atoms: C_16  and  C_18
REMARK                            x       y       z     vdW  Elec       q    Type
REMARK                         _______ _______ _______ _____ _____    ______ ____
ROOT
ATOM      1  N   UNL     1       4.313   3.452  17.934  0.00  0.00    +0.000 N 
ATOM      2  C   UNL     1       4.363   3.035  19.222  0.00  0.00    +0.000 C 
ATOM      3  O   UNL     1       5.331   2.935  19.959  0.00  0.00    +0.000 OA
ATOM      4  N   UNL     1       3.050   2.727  19.614  0.00  0.00    +0.000 N 
ATOM      5  C   UNL     1       2.155   3.498  18.776  0.00  0.00    +0.000 C 
ATOM      6  C   UNL     1       0.754   2.934  18.640  0.00  0.00    +0.000 C 
ATOM      7  C   UNL     1       3.008   3.383  17.509  0.00  0.00    +0.000 C 
ATOM      8  O   UNL     1       2.619   3.432  16.351  0.00  0.00    +0.000 OA
ATOM      9  H   UNL     1       2.889   2.565  20.599  0.00  0.00    +0.000 HD
ENDROOT
BRANCH   5  10
ATOM     10  C   UNL     1       2.110   4.978  19.215  0.00  0.00    +0.000 A 
ATOM     11  C   UNL     1       1.728   5.316  20.525  0.00  0.00    +0.000 A 
ATOM     12  C   UNL     1       1.601   6.640  20.918  0.00  0.00    +0.000 A 
ATOM     13  C   UNL     1       1.746   7.654  19.982  0.00  0.00    +0.000 A 
ATOM     14  C   UNL     1       1.304   8.933  20.307  0.00  0.00    +0.000 A 
ATOM     15  C   UNL     1       1.082   9.838  19.282  0.00  0.00    +0.000 A 
ATOM     16  C   UNL     1       1.658   9.623  18.034  0.00  0.00    +0.000 A 
ATOM     17  C   UNL     1       2.299   8.415  17.756  0.00  0.00    +0.000 A 
ATOM     18  C   UNL     1       2.201   7.363  18.677  0.00  0.00    +0.000 A 
ATOM     19  C   UNL     1       2.426   6.020  18.325  0.00  0.00    +0.000 A 
ENDBRANCH   5  10
BRANCH   1  20
ATOM     20  C   UNL     1       5.159   4.439  17.304  0.00  0.00    +0.000 C 
BRANCH  20  21
ATOM     21  C   UNL     1       6.077   4.024  16.142  0.00  0.00    +0.000 C 
BRANCH  21  22
ATOM     22  O   UNL     1       7.406   4.479  16.466  0.00  0.00    +0.000 OA
ATOM     23  H   UNL     1       7.539   5.358  16.076  0.00  0.00    +0.000 HD
ENDBRANCH  21  22
BRANCH  21  24
ATOM     24  C   UNL     1       5.589   4.668  14.845  0.00  0.00    +0.000 C 
BRANCH  24  25
ATOM     25  O   UNL     1       6.517   4.493  13.769  0.00  0.00    +0.000 OA
BRANCH  25  31
ATOM     26  C   UNL     1       3.030   3.276  10.564  0.00  0.00    +0.000 C 
ATOM     27  C   UNL     1       4.358   3.008  11.202  0.00  0.00    +0.000 A 
ATOM     28  C   UNL     1       5.147   1.945  10.759  0.00  0.00    +0.000 A 
ATOM     29  C   UNL     1       6.394   1.704  11.327  0.00  0.00    +0.000 A 
ATOM     30  C   UNL     1       6.870   2.523  12.343  0.00  0.00    +0.000 A 
ATOM     31  C   UNL     1       6.113   3.609  12.795  0.00  0.00    +0.000 A 
ATOM     32  C   UNL     1       4.857   3.847  12.222  0.00  0.00    +0.000 A 
ENDBRANCH  25  31
ENDBRANCH  24  25
ENDBRANCH  21  24
ENDBRANCH  20  21
ENDBRANCH   1  20
TORSDOF 7
ENDMDL
MODEL 8
REMARK VINA RESULT:      -8.9      0.735      1.499
REMARK  Name = 
REMARK  9 active torsions:
REMARK  status: ('A' for Active; 'I' for Inactive)
REMARK    1  A    between atoms: C_1  and  C_2
REMARK    2  A    between atoms: C_6  and  O_7
REMARK    3  A    between atoms: O_7  and  C_8
REMARK    4  A    between atoms: C_8  and  C_9
REMARK    5  A    between atoms: C_9  and  O_10
REMARK    6  A    between atoms: C_9  and  C_11
REMARK    7  A    between atoms: C_11  and  N_12
REMARK    8  A    between atoms: C_16  and  C_17
REMARK    9  A    between atoms: C_16  and  C_18
REMARK                            x       y       z     vdW  Elec       q    Type
REMARK                         _______ _______ _______ _____ _____    ______ ____
ROOT
ATOM      1  N   UNL     1       6.360   6.082  17.723  0.00  0.00    +0.000 N 
ATOM      2  C   UNL     1       6.177   5.412  18.886  0.00  0.00    +0.000 C 
ATOM      3  O   UNL     1       6.740   5.567  19.958  0.00  0.00    +0.000 OA
ATOM      4  N   UNL     1       5.170   4.458  18.666  0.00  0.00    +0.000 N 
ATOM      5  C   UNL     1       4.353   4.935  17.570  0.00  0.00    +0.000 C 
ATOM      6  C   UNL     1       3.588   3.860  16.822  0.00  0.00    +0.000 C 
ATOM      7  C   UNL     1       5.513   5.550  16.781  0.00  0.00    +0.000 C 
ATOM      8  O   UNL     1       5.575   5.719  15.572  0.00  0.00    +0.000 OA
ATOM      9  H   UNL     1       4.793   3.990  19.479  0.00  0.00    +0.000 HD
ENDROOT
BRANCH   5  10
ATOM     10  C   UNL     1       3.405   6.066  18.027  0.00  0.00    +0.000 A 
ATOM     11  C   UNL     1       3.262   7.227  17.248  0.00  0.00    +0.000 A 
ATOM     12  C   UNL     1       2.482   8.290  17.678  0.00  0.00    +0.000 A 
ATOM     13  C   UNL     1       1.914   8.261  18.944  0.00  0.00    +0.000 A 
ATOM     14  C   UNL     1       1.416   9.444  19.480  0.00  0.00    +0.000 A 
ATOM     15  C   UNL     1       1.215   9.519  20.849  0.00  0.00    +0.000 A 
ATOM     16  C   UNL     1       1.122   8.349  21.597  0.00  0.00    +0.000 A 
ATOM     17  C   UNL     1       1.416   7.117  21.012  0.00  0.00    +0.000 A 
ATOM     18  C   UNL     1       1.972   7.087  19.727  0.00  0.00    +0.000 A 
ATOM     19  C   UNL     1       2.681   5.979  19.230  0.00  0.00    +0.000 A 
ENDBRANCH   5  10
BRANCH   1  20
ATOM     20  C   UNL     1       6.730   7.469  17.565  0.00  0.00    +0.000 C 
BRANCH  20  21
ATOM     21  C   UNL     1       8.189   7.898  17.794  0.00  0.00    +0.000 C 
BRANCH  21  22
ATOM     22  O   UNL     1       8.609   7.327  19.049  0.00  0.00    +0.000 OA
ATOM     23  H   UNL     1       8.612   8.025  19.724  0.00  0.00    +0.000 HD
ENDBRANCH  21  22
BRANCH  21  24
ATOM     24  C   UNL     1       8.277   9.423  17.839  0.00  0.00    +0.000 C 
BRANCH  24  25
ATOM     25  O   UNL     1       8.609   9.908  19.145  0.00  0.00    +0.000 OA
BRANCH  25  31
ATOM     26  C   UNL     1      11.256  13.152  16.618  0.00  0.00    +0.000 C 
ATOM     27  C   UNL     1      10.955  12.439  17.900  0.00  0.00    +0.000 A 
ATOM     28  C   UNL     1      11.655  12.761  19.064  0.00  0.00    +0.000 A 
ATOM     29  C   UNL     1      11.365  12.123  20.266  0.00  0.00    +0.000 A 
ATOM     30  C   UNL     1      10.369  11.157  20.321  0.00  0.00    +0.000 A 
ATOM     31  C   UNL     1       9.634  10.825  19.178  0.00  0.00    +0.000 A 
ATOM     32  C   UNL     1       9.932  11.469  17.970  0.00  0.00    +0.000 A 
ENDBRANCH  25  31
ENDBRANCH  24  25
ENDBRANCH  21  24
ENDBRANCH  20  21
ENDBRANCH   1  20
TORSDOF 7
ENDMDL
MODEL 9
REMARK VINA RESULT:      -8.8      4.372      5.848
REMARK  Name = 
REMARK  9 active torsions:
REMARK  status: ('A' for Active; 'I' for Inactive)
REMARK    1  A    between atoms: C_1  and  C_2
REMARK    2  A    between atoms: C_6  and  O_7
REMARK    3  A    between atoms: O_7  and  C_8
REMARK    4  A    between atoms: C_8  and  C_9
REMARK    5  A    between atoms: C_9  and  O_10
REMARK    6  A    between atoms: C_9  and  C_11
REMARK    7  A    between atoms: C_11  and  N_12
REMARK    8  A    between atoms: C_16  and  C_17
REMARK    9  A    between atoms: C_16  and  C_18
REMARK                            x       y       z     vdW  Elec       q    Type
REMARK                         _______ _______ _______ _____ _____    ______ ____
ROOT
ATOM      1  N   UNL     1       4.022   3.862  17.840  0.00  0.00    +0.000 N 
ATOM      2  C   UNL     1       4.532   3.657  19.078  0.00  0.00    +0.000 C 
ATOM      3  O   UNL     1       5.685   3.773  19.462  0.00  0.00    +0.000 OA
ATOM      4  N   UNL     1       3.467   3.281  19.913  0.00  0.00    +0.000 N 
ATOM      5  C   UNL     1       2.252   3.817  19.335  0.00  0.00    +0.000 C 
ATOM      6  C   UNL     1       0.978   3.097  19.733  0.00  0.00    +0.000 C 
ATOM      7  C   UNL     1       2.674   3.594  17.880  0.00  0.00    +0.000 C 
ATOM      8  O   UNL     1       1.940   3.423  16.917  0.00  0.00    +0.000 OA
ATOM      9  H   UNL     1       3.647   3.258  20.908  0.00  0.00    +0.000 HD
ENDROOT
BRANCH   5  10
ATOM     10  C   UNL     1       2.129   5.334  19.593  0.00  0.00    +0.000 A 
ATOM     11  C   UNL     1       1.765   5.809  20.865  0.00  0.00    +0.000 A 
ATOM     12  C   UNL     1       1.567   7.161  21.099  0.00  0.00    +0.000 A 
ATOM     13  C   UNL     1       1.623   8.059  20.043  0.00  0.00    +0.000 A 
ATOM     14  C   UNL     1       1.113   9.340  20.226  0.00  0.00    +0.000 A 
ATOM     15  C   UNL     1       0.806  10.098  19.108  0.00  0.00    +0.000 A 
ATOM     16  C   UNL     1       1.358   9.764  17.875  0.00  0.00    +0.000 A 
ATOM     17  C   UNL     1       2.064   8.570  17.723  0.00  0.00    +0.000 A 
ATOM     18  C   UNL     1       2.057   7.636  18.767  0.00  0.00    +0.000 A 
ATOM     19  C   UNL     1       2.355   6.275  18.573  0.00  0.00    +0.000 A 
ENDBRANCH   5  10
BRANCH   1  20
ATOM     20  C   UNL     1       4.473   4.821  16.859  0.00  0.00    +0.000 C 
BRANCH  20  21
ATOM     21  C   UNL     1       5.568   5.833  17.234  0.00  0.00    +0.000 C 
BRANCH  21  22
ATOM     22  O   UNL     1       5.197   7.098  16.649  0.00  0.00    +0.000 OA
ATOM     23  H   UNL     1       4.887   6.943  15.742  0.00  0.00    +0.000 HD
ENDBRANCH  21  22
BRANCH  21  24
ATOM     24  C   UNL     1       6.915   5.362  16.687  0.00  0.00    +0.000 C 
BRANCH  24  25
ATOM     25  O   UNL     1       6.803   4.140  15.949  0.00  0.00    +0.000 OA
BRANCH  25  31
ATOM     26  C   UNL     1       5.297   2.608  11.556  0.00  0.00    +0.000 C 
ATOM     27  C   UNL     1       6.166   3.494  12.395  0.00  0.00    +0.000 A 
ATOM     28  C   UNL     1       6.992   4.441  11.790  0.00  0.00    +0.000 A 
ATOM     29  C   UNL     1       7.784   5.287  12.561  0.00  0.00    +0.000 A 
ATOM     30  C   UNL     1       7.757   5.199  13.947  0.00  0.00    +0.000 A 
ATOM     31  C   UNL     1       6.922   4.275  14.585  0.00  0.00    +0.000 A 
ATOM     32  C   UNL     1       6.130   3.424  13.804  0.00  0.00    +0.000 A 
ENDBRANCH  25  31
ENDBRANCH  24  25
ENDBRANCH  21  24
ENDBRANCH  20  21
ENDBRANCH   1  20
TORSDOF 7
ENDMDL
