MODEL 1
REMARK VINA RESULT:      -7.6      0.000      0.000
REMARK  Name = 
REMARK  4 active torsions:
REMARK  status: ('A' for Active; 'I' for Inactive)
REMARK    1  A    between atoms: C_1  and  C_2
REMARK    2  A    between atoms: C_6  and  C_7
REMARK    3  A    between atoms: C_8  and  N_9
REMARK    4  A    between atoms: C_10  and  C_12
REMARK                            x       y       z     vdW  Elec       q    Type
REMARK                         _______ _______ _______ _____ _____    ______ ____
ROOT
ATOM      1  C   UNL     1       3.829   4.601  18.051  0.00  0.00    +0.000 A 
ATOM      2  C   UNL     1       4.123   5.911  18.179  0.00  0.00    +0.000 A 
ATOM      3  S   UNL     1       5.353   6.750  17.298  0.00  0.00    +0.000 S 
ATOM      4  C   UNL     1       5.739   5.596  16.008  0.00  0.00    +0.000 A 
ATOM      5  C   UNL     1       6.446   6.064  14.888  0.00  0.00    +0.000 A 
ATOM      6  C   UNL     1       6.827   5.198  13.861  0.00  0.00    +0.000 A 
ATOM      7  C   UNL     1       6.511   3.845  13.941  0.00  0.00    +0.000 A 
ATOM      8  C   UNL     1       5.809   3.368  15.045  0.00  0.00    +0.000 A 
ATOM      9  C   UNL     1       5.417   4.242  16.072  0.00  0.00    +0.000 A 
ATOM     10  C   UNL     1       4.645   3.687  17.199  0.00  0.00    +0.000 A 
ATOM     11  O   UNL     1       4.634   2.469  17.378  0.00  0.00    +0.000 OA
ENDROOT
BRANCH   1  17
ATOM     12  C   UNL     1       1.709   2.673  22.173  0.00  0.00    +0.000 C 
ATOM     13  C   UNL     1       1.617   3.071  20.730  0.00  0.00    +0.000 A 
ATOM     14  C   UNL     1       0.433   2.880  20.010  0.00  0.00    +0.000 A 
ATOM     15  C   UNL     1       0.349   3.259  18.669  0.00  0.00    +0.000 A 
ATOM     16  C   UNL     1       1.451   3.825  18.027  0.00  0.00    +0.000 A 
ATOM     17  C   UNL     1       2.644   4.024  18.728  0.00  0.00    +0.000 A 
ATOM     18  C   UNL     1       2.714   3.664  20.085  0.00  0.00    +0.000 A 
ENDBRANCH   1  17
BRANCH   2  19
ATOM     19  N   UNL     1       3.378   6.740  18.994  0.00  0.00    +0.000 N 
ATOM     20  C   UNL     1       2.348   7.551  18.534  0.00  0.00    +0.000 C 
ATOM     21  O   UNL     1       2.010   7.631  17.353  0.00  0.00    +0.000 OA
ATOM     22  H   UNL     1       3.478   6.597  19.991  0.00  0.00    +0.000 HD
BRANCH  20  23
ATOM     23  C   UNL     1       1.649   8.391  19.560  0.00  0.00    +0.000 A 
ATOM     24  C   UNL     1       1.344   9.728  19.255  0.00  0.00    +0.000 A 
ATOM     25  C   UNL     1       0.780  10.570  20.225  0.00  0.00    +0.000 A 
ATOM     26  C   UNL     1       0.508  10.087  21.502  0.00  0.00    +0.000 A 
ATOM     27  C   UNL     1       0.772   8.752  21.803  0.00  0.00    +0.000 A 
ATOM     28  C   UNL     1       1.332   7.917  20.836  0.00  0.00    +0.000 A 
ATOM     29  F   UNL     1       1.561   6.638  21.175  0.00  0.00    +0.000 F 
ENDBRANCH  20  23
ENDBRANCH   2  19
TORSDOF 3
ENDMDL
MODEL 2
REMARK VINA RESULT:      -7.5      0.909      1.281
REMARK  Name = 
REMARK  4 active torsions:
REMARK  status: ('A' for Active; 'I' for Inactive)
REMARK    1  A    between atoms: C_1  and  C_2
REMARK    2  A    between atoms: C_6  and  C_7
REMARK    3  A    between atoms: C_8  and  N_9
REMARK    4  A    between atoms: C_10  and  C_12
REMARK                            x       y       z     vdW  Elec       q    Type
REMARK                         _______ _______ _______ _____ _____    ______ ____
ROOT
ATOM      1  C   UNL     1       3.818   4.600  18.069  0.00  0.00    +0.000 A 
ATOM      2  C   UNL     1       4.114   5.910  18.199  0.00  0.00    +0.000 A 
ATOM      3  S   UNL     1       5.347   6.747  17.320  0.00  0.00    +0.000 S 
ATOM      4  C   UNL     1       5.734   5.593  16.031  0.00  0.00    +0.000 A 
ATOM      5  C   UNL     1       6.445   6.060  14.914  0.00  0.00    +0.000 A 
ATOM      6  C   UNL     1       6.827   5.193  13.887  0.00  0.00    +0.000 A 
ATOM      7  C   UNL     1       6.509   3.841  13.966  0.00  0.00    +0.000 A 
ATOM      8  C   UNL     1       5.803   3.364  15.068  0.00  0.00    +0.000 A 
ATOM      9  C   UNL     1       5.410   4.239  16.095  0.00  0.00    +0.000 A 
ATOM     10  C   UNL     1       4.634   3.685  17.220  0.00  0.00    +0.000 A 
ATOM     11  O   UNL     1       4.621   2.467  17.399  0.00  0.00    +0.000 OA
ENDROOT
BRANCH   1  17
ATOM     12  C   UNL     1       1.688   2.667  22.184  0.00  0.00    +0.000 C 
ATOM     13  C   UNL     1       1.598   3.070  20.742  0.00  0.00    +0.000 A 
ATOM     14  C   UNL     1       0.414   2.885  20.021  0.00  0.00    +0.000 A 
ATOM     15  C   UNL     1       0.333   3.269  18.681  0.00  0.00    +0.000 A 
ATOM     16  C   UNL     1       1.437   3.833  18.041  0.00  0.00    +0.000 A 
ATOM     17  C   UNL     1       2.630   4.025  18.744  0.00  0.00    +0.000 A 
ATOM     18  C   UNL     1       2.697   3.661  20.100  0.00  0.00    +0.000 A 
ENDBRANCH   1  17
BRANCH   2  19
ATOM     19  N   UNL     1       3.368   6.740  19.012  0.00  0.00    +0.000 N 
ATOM     20  C   UNL     1       2.366   7.581  18.544  0.00  0.00    +0.000 C 
ATOM     21  O   UNL     1       2.057   7.689  17.358  0.00  0.00    +0.000 OA
ATOM     22  H   UNL     1       3.443   6.577  20.009  0.00  0.00    +0.000 HD
BRANCH  20  23
ATOM     23  C   UNL     1       1.662   8.418  19.570  0.00  0.00    +0.000 A 
ATOM     24  C   UNL     1       1.492   7.907  20.867  0.00  0.00    +0.000 A 
ATOM     25  C   UNL     1       0.754   8.621  21.823  0.00  0.00    +0.000 A 
ATOM     26  C   UNL     1       0.186   9.849  21.498  0.00  0.00    +0.000 A 
ATOM     27  C   UNL     1       0.380  10.381  20.225  0.00  0.00    +0.000 A 
ATOM     28  C   UNL     1       1.116   9.670  19.277  0.00  0.00    +0.000 A 
ATOM     29  F   UNL     1       1.278  10.230  18.067  0.00  0.00    +0.000 F 
ENDBRANCH  20  23
ENDBRANCH   2  19
TORSDOF 3
ENDMDL
MODEL 3
REMARK VINA RESULT:      -7.1      2.870      5.464
REMARK  Name = 
REMARK  4 active torsions:
REMARK  status: ('A' for Active; 'I' for Inactive)
REMARK    1  A    between atoms: C_1  and  C_2
REMARK    2  A    between atoms: C_6  and  C_7
REMARK    3  A    between atoms: C_8  and  N_9
REMARK    4  A    between atoms: C_10  and  C_12
REMARK                            x       y       z     vdW  Elec       q    Type
REMARK                         _______ _______ _______ _____ _____    ______ ____
ROOT
ATOM      1  C   UNL     1       6.309   5.061  15.325  0.00  0.00    +0.000 A 
ATOM      2  C   UNL     1       5.023   4.657  15.333  0.00  0.00    +0.000 A 
ATOM      3  S   UNL     1       4.215   3.867  14.022  0.00  0.00    +0.000 S 
ATOM      4  C   UNL     1       5.571   3.401  12.978  0.00  0.00    +0.000 A 
ATOM      5  C   UNL     1       5.342   2.434  11.986  0.00  0.00    +0.000 A 
ATOM      6  C   UNL     1       6.351   2.059  11.096  0.00  0.00    +0.000 A 
ATOM      7  C   UNL     1       7.607   2.653  11.181  0.00  0.00    +0.000 A 
ATOM      8  C   UNL     1       7.848   3.613  12.161  0.00  0.00    +0.000 A 
ATOM      9  C   UNL     1       6.835   3.982  13.062  0.00  0.00    +0.000 A 
ATOM     10  C   UNL     1       7.158   4.977  14.100  0.00  0.00    +0.000 A 
ATOM     11  O   UNL     1       8.161   5.678  13.970  0.00  0.00    +0.000 OA
ENDROOT
BRANCH   1  17
ATOM     12  C   UNL     1       8.050   8.921  18.023  0.00  0.00    +0.000 C 
ATOM     13  C   UNL     1       7.809   7.449  17.867  0.00  0.00    +0.000 A 
ATOM     14  C   UNL     1       8.202   6.551  18.865  0.00  0.00    +0.000 A 
ATOM     15  C   UNL     1       7.968   5.183  18.720  0.00  0.00    +0.000 A 
ATOM     16  C   UNL     1       7.347   4.692  17.571  0.00  0.00    +0.000 A 
ATOM     17  C   UNL     1       6.947   5.572  16.561  0.00  0.00    +0.000 A 
ATOM     18  C   UNL     1       7.162   6.952  16.725  0.00  0.00    +0.000 A 
ENDBRANCH   1  17
BRANCH   2  19
ATOM     19  N   UNL     1       4.240   4.768  16.465  0.00  0.00    +0.000 N 
ATOM     20  C   UNL     1       3.973   3.711  17.326  0.00  0.00    +0.000 C 
ATOM     21  O   UNL     1       4.387   2.564  17.156  0.00  0.00    +0.000 OA
ATOM     22  H   UNL     1       4.013   5.709  16.763  0.00  0.00    +0.000 HD
BRANCH  20  23
ATOM     23  C   UNL     1       3.097   4.012  18.505  0.00  0.00    +0.000 A 
ATOM     24  C   UNL     1       1.853   3.370  18.611  0.00  0.00    +0.000 A 
ATOM     25  C   UNL     1       0.967   3.700  19.648  0.00  0.00    +0.000 A 
ATOM     26  C   UNL     1       1.315   4.665  20.589  0.00  0.00    +0.000 A 
ATOM     27  C   UNL     1       2.563   5.281  20.513  0.00  0.00    +0.000 A 
ATOM     28  C   UNL     1       3.442   4.949  19.482  0.00  0.00    +0.000 A 
ATOM     29  F   UNL     1       4.634   5.567  19.457  0.00  0.00    +0.000 F 
ENDBRANCH  20  23
ENDBRANCH   2  19
TORSDOF 3
ENDMDL
MODEL 4
REMARK VINA RESULT:      -7.0      4.632     10.539
REMARK  Name = 
REMARK  4 active torsions:
REMARK  status: ('A' for Active; 'I' for Inactive)
REMARK    1  A    between atoms: C_1  and  C_2
REMARK    2  A    between atoms: C_6  and  C_7
REMARK    3  A    between atoms: C_8  and  N_9
REMARK    4  A    between atoms: C_10  and  C_12
REMARK                            x       y       z     vdW  Elec       q    Type
REMARK                         _______ _______ _______ _____ _____    ______ ____
ROOT
ATOM      1  C   UNL     1       0.095  13.151  21.721  0.00  0.00    +0.000 A 
ATOM      2  C   UNL     1      -0.066  11.832  21.949  0.00  0.00    +0.000 A 
ATOM      3  S   UNL     1      -1.256  11.136  22.995  0.00  0.00    +0.000 S 
ATOM      4  C   UNL     1      -2.351  12.504  23.273  0.00  0.00    +0.000 A 
ATOM      5  C   UNL     1      -3.627  12.236  23.794  0.00  0.00    +0.000 A 
ATOM      6  C   UNL     1      -4.519  13.271  24.084  0.00  0.00    +0.000 A 
ATOM      7  C   UNL     1      -4.145  14.593  23.866  0.00  0.00    +0.000 A 
ATOM      8  C   UNL     1      -2.882  14.872  23.349  0.00  0.00    +0.000 A 
ATOM      9  C   UNL     1      -1.989  13.830  23.046  0.00  0.00    +0.000 A 
ATOM     10  C   UNL     1      -0.680  14.184  22.469  0.00  0.00    +0.000 A 
ATOM     11  O   UNL     1      -0.277  15.344  22.557  0.00  0.00    +0.000 OA
ENDROOT
BRANCH   1  17
ATOM     12  C   UNL     1       4.656  14.796  20.416  0.00  0.00    +0.000 C 
ATOM     13  C   UNL     1       3.246  14.442  20.043  0.00  0.00    +0.000 A 
ATOM     14  C   UNL     1       2.800  14.582  18.726  0.00  0.00    +0.000 A 
ATOM     15  C   UNL     1       1.490  14.244  18.381  0.00  0.00    +0.000 A 
ATOM     16  C   UNL     1       0.606  13.772  19.352  0.00  0.00    +0.000 A 
ATOM     17  C   UNL     1       1.031  13.627  20.675  0.00  0.00    +0.000 A 
ATOM     18  C   UNL     1       2.360  13.944  21.010  0.00  0.00    +0.000 A 
ENDBRANCH   1  17
BRANCH   2  19
ATOM     19  N   UNL     1       0.679  10.887  21.271  0.00  0.00    +0.000 N 
ATOM     20  C   UNL     1       0.227  10.211  20.145  0.00  0.00    +0.000 C 
ATOM     21  O   UNL     1      -0.889  10.367  19.651  0.00  0.00    +0.000 OA
ATOM     22  H   UNL     1       1.662  10.835  21.510  0.00  0.00    +0.000 HD
BRANCH  20  23
ATOM     23  C   UNL     1       1.169   9.214  19.540  0.00  0.00    +0.000 A 
ATOM     24  C   UNL     1       1.617   9.410  18.223  0.00  0.00    +0.000 A 
ATOM     25  C   UNL     1       2.420   8.448  17.593  0.00  0.00    +0.000 A 
ATOM     26  C   UNL     1       2.789   7.288  18.270  0.00  0.00    +0.000 A 
ATOM     27  C   UNL     1       2.380   7.102  19.588  0.00  0.00    +0.000 A 
ATOM     28  C   UNL     1       1.583   8.061  20.213  0.00  0.00    +0.000 A 
ATOM     29  F   UNL     1       1.221   7.837  21.487  0.00  0.00    +0.000 F 
ENDBRANCH  20  23
ENDBRANCH   2  19
TORSDOF 3
ENDMDL
MODEL 5
REMARK VINA RESULT:      -6.8      2.839      5.452
REMARK  Name = 
REMARK  4 active torsions:
REMARK  status: ('A' for Active; 'I' for Inactive)
REMARK    1  A    between atoms: C_1  and  C_2
REMARK    2  A    between atoms: C_6  and  C_7
REMARK    3  A    between atoms: C_8  and  N_9
REMARK    4  A    between atoms: C_10  and  C_12
REMARK                            x       y       z     vdW  Elec       q    Type
REMARK                         _______ _______ _______ _____ _____    ______ ____
ROOT
ATOM      1  C   UNL     1       6.312   5.094  15.273  0.00  0.00    +0.000 A 
ATOM      2  C   UNL     1       5.013   4.731  15.259  0.00  0.00    +0.000 A 
ATOM      3  S   UNL     1       4.209   3.943  13.945  0.00  0.00    +0.000 S 
ATOM      4  C   UNL     1       5.571   3.417  12.938  0.00  0.00    +0.000 A 
ATOM      5  C   UNL     1       5.332   2.441  11.957  0.00  0.00    +0.000 A 
ATOM      6  C   UNL     1       6.348   2.020  11.096  0.00  0.00    +0.000 A 
ATOM      7  C   UNL     1       7.620   2.575  11.198  0.00  0.00    +0.000 A 
ATOM      8  C   UNL     1       7.870   3.544  12.167  0.00  0.00    +0.000 A 
ATOM      9  C   UNL     1       6.851   3.959  13.040  0.00  0.00    +0.000 A 
ATOM     10  C   UNL     1       7.183   4.962  14.068  0.00  0.00    +0.000 A 
ATOM     11  O   UNL     1       8.211   5.629  13.948  0.00  0.00    +0.000 OA
ENDROOT
BRANCH   1  17
ATOM     12  C   UNL     1       8.029   8.957  17.982  0.00  0.00    +0.000 C 
ATOM     13  C   UNL     1       7.789   7.484  17.825  0.00  0.00    +0.000 A 
ATOM     14  C   UNL     1       8.174   6.587  18.827  0.00  0.00    +0.000 A 
ATOM     15  C   UNL     1       7.942   5.218  18.681  0.00  0.00    +0.000 A 
ATOM     16  C   UNL     1       7.331   4.727  17.528  0.00  0.00    +0.000 A 
ATOM     17  C   UNL     1       6.939   5.605  16.514  0.00  0.00    +0.000 A 
ATOM     18  C   UNL     1       7.153   6.986  16.678  0.00  0.00    +0.000 A 
ENDBRANCH   1  17
BRANCH   2  19
ATOM     19  N   UNL     1       4.210   4.885  16.372  0.00  0.00    +0.000 N 
ATOM     20  C   UNL     1       3.881   3.849  17.236  0.00  0.00    +0.000 C 
ATOM     21  O   UNL     1       4.251   2.685  17.087  0.00  0.00    +0.000 OA
ATOM     22  H   UNL     1       4.016   5.838  16.656  0.00  0.00    +0.000 HD
BRANCH  20  23
ATOM     23  C   UNL     1       2.992   4.198  18.392  0.00  0.00    +0.000 A 
ATOM     24  C   UNL     1       3.306   5.317  19.180  0.00  0.00    +0.000 A 
ATOM     25  C   UNL     1       2.553   5.617  20.326  0.00  0.00    +0.000 A 
ATOM     26  C   UNL     1       1.480   4.809  20.691  0.00  0.00    +0.000 A 
ATOM     27  C   UNL     1       1.138   3.718  19.895  0.00  0.00    +0.000 A 
ATOM     28  C   UNL     1       1.887   3.424  18.755  0.00  0.00    +0.000 A 
ATOM     29  F   UNL     1       1.512   2.366  18.019  0.00  0.00    +0.000 F 
ENDBRANCH  20  23
ENDBRANCH   2  19
TORSDOF 3
ENDMDL
MODEL 6
REMARK VINA RESULT:      -6.8      5.477      9.209
REMARK  Name = 
REMARK  4 active torsions:
REMARK  status: ('A' for Active; 'I' for Inactive)
REMARK    1  A    between atoms: C_1  and  C_2
REMARK    2  A    between atoms: C_6  and  C_7
REMARK    3  A    between atoms: C_8  and  N_9
REMARK    4  A    between atoms: C_10  and  C_12
REMARK                            x       y       z     vdW  Elec       q    Type
REMARK                         _______ _______ _______ _____ _____    ______ ____
ROOT
ATOM      1  C   UNL     1      -0.091  12.028  20.919  0.00  0.00    +0.000 A 
ATOM      2  C   UNL     1       0.174  12.661  19.758  0.00  0.00    +0.000 A 
ATOM      3  S   UNL     1       1.201  12.058  18.502  0.00  0.00    +0.000 S 
ATOM      4  C   UNL     1       1.395  10.358  18.967  0.00  0.00    +0.000 A 
ATOM      5  C   UNL     1       1.879   9.458  18.003  0.00  0.00    +0.000 A 
ATOM      6  C   UNL     1       2.105   8.116  18.318  0.00  0.00    +0.000 A 
ATOM      7  C   UNL     1       1.856   7.653  19.606  0.00  0.00    +0.000 A 
ATOM      8  C   UNL     1       1.375   8.535  20.571  0.00  0.00    +0.000 A 
ATOM      9  C   UNL     1       1.138   9.882  20.251  0.00  0.00    +0.000 A 
ATOM     10  C   UNL     1       0.596  10.760  21.304  0.00  0.00    +0.000 A 
ATOM     11  O   UNL     1       0.660  10.401  22.479  0.00  0.00    +0.000 OA
ENDROOT
BRANCH   1  17
ATOM     12  C   UNL     1      -1.342  15.053  24.726  0.00  0.00    +0.000 C 
ATOM     13  C   UNL     1      -1.723  14.016  23.711  0.00  0.00    +0.000 A 
ATOM     14  C   UNL     1      -3.030  13.523  23.650  0.00  0.00    +0.000 A 
ATOM     15  C   UNL     1      -3.383  12.564  22.699  0.00  0.00    +0.000 A 
ATOM     16  C   UNL     1      -2.430  12.077  21.803  0.00  0.00    +0.000 A 
ATOM     17  C   UNL     1      -1.118  12.555  21.848  0.00  0.00    +0.000 A 
ATOM     18  C   UNL     1      -0.776  13.540  22.792  0.00  0.00    +0.000 A 
ENDBRANCH   1  17
BRANCH   2  19
ATOM     19  N   UNL     1      -0.446  13.850  19.428  0.00  0.00    +0.000 N 
ATOM     20  C   UNL     1       0.141  15.098  19.592  0.00  0.00    +0.000 C 
ATOM     21  O   UNL     1       1.261  15.274  20.070  0.00  0.00    +0.000 OA
ATOM     22  H   UNL     1      -1.289  13.776  18.870  0.00  0.00    +0.000 HD
BRANCH  20  23
ATOM     23  C   UNL     1      -0.683  16.283  19.184  0.00  0.00    +0.000 A 
ATOM     24  C   UNL     1      -0.296  17.026  18.056  0.00  0.00    +0.000 A 
ATOM     25  C   UNL     1      -0.985  18.196  17.702  0.00  0.00    +0.000 A 
ATOM     26  C   UNL     1      -2.066  18.631  18.464  0.00  0.00    +0.000 A 
ATOM     27  C   UNL     1      -2.480  17.881  19.563  0.00  0.00    +0.000 A 
ATOM     28  C   UNL     1      -1.794  16.717  19.911  0.00  0.00    +0.000 A 
ATOM     29  F   UNL     1      -2.237  16.028  20.975  0.00  0.00    +0.000 F 
ENDBRANCH  20  23
ENDBRANCH   2  19
TORSDOF 3
ENDMDL
MODEL 7
REMARK VINA RESULT:      -6.8      4.560     10.416
REMARK  Name = 
REMARK  4 active torsions:
REMARK  status: ('A' for Active; 'I' for Inactive)
REMARK    1  A    between atoms: C_1  and  C_2
REMARK    2  A    between atoms: C_6  and  C_7
REMARK    3  A    between atoms: C_8  and  N_9
REMARK    4  A    between atoms: C_10  and  C_12
REMARK                            x       y       z     vdW  Elec       q    Type
REMARK                         _______ _______ _______ _____ _____    ______ ____
ROOT
ATOM      1  C   UNL     1       0.281  12.924  21.596  0.00  0.00    +0.000 A 
ATOM      2  C   UNL     1       0.085  11.616  21.860  0.00  0.00    +0.000 A 
ATOM      3  S   UNL     1      -1.111  10.983  22.938  0.00  0.00    +0.000 S 
ATOM      4  C   UNL     1      -2.163  12.388  23.193  0.00  0.00    +0.000 A 
ATOM      5  C   UNL     1      -3.440  12.171  23.735  0.00  0.00    +0.000 A 
ATOM      6  C   UNL     1      -4.299  13.238  24.009  0.00  0.00    +0.000 A 
ATOM      7  C   UNL     1      -3.890  14.542  23.751  0.00  0.00    +0.000 A 
ATOM      8  C   UNL     1      -2.626  14.772  23.213  0.00  0.00    +0.000 A 
ATOM      9  C   UNL     1      -1.767  13.697  22.927  0.00  0.00    +0.000 A 
ATOM     10  C   UNL     1      -0.455  13.998  22.325  0.00  0.00    +0.000 A 
ATOM     11  O   UNL     1      -0.018  15.148  22.378  0.00  0.00    +0.000 OA
ENDROOT
BRANCH   1  17
ATOM     12  C   UNL     1       4.739  14.789  20.232  0.00  0.00    +0.000 C 
ATOM     13  C   UNL     1       3.381  14.268  19.865  0.00  0.00    +0.000 A 
ATOM     14  C   UNL     1       2.980  14.200  18.527  0.00  0.00    +0.000 A 
ATOM     15  C   UNL     1       1.719  13.707  18.188  0.00  0.00    +0.000 A 
ATOM     16  C   UNL     1       0.837  13.285  19.183  0.00  0.00    +0.000 A 
ATOM     17  C   UNL     1       1.217  13.346  20.527  0.00  0.00    +0.000 A 
ATOM     18  C   UNL     1       2.499  13.819  20.859  0.00  0.00    +0.000 A 
ENDBRANCH   1  17
BRANCH   2  19
ATOM     19  N   UNL     1       0.794  10.633  21.198  0.00  0.00    +0.000 N 
ATOM     20  C   UNL     1       0.303   9.931  20.105  0.00  0.00    +0.000 C 
ATOM     21  O   UNL     1      -0.820  10.095  19.630  0.00  0.00    +0.000 OA
ATOM     22  H   UNL     1       1.781  10.567  21.418  0.00  0.00    +0.000 HD
BRANCH  20  23
ATOM     23  C   UNL     1       1.210   8.893  19.514  0.00  0.00    +0.000 A 
ATOM     24  C   UNL     1       1.540   7.761  20.277  0.00  0.00    +0.000 A 
ATOM     25  C   UNL     1       2.461   6.820  19.795  0.00  0.00    +0.000 A 
ATOM     26  C   UNL     1       3.055   6.994  18.548  0.00  0.00    +0.000 A 
ATOM     27  C   UNL     1       2.706   8.095  17.768  0.00  0.00    +0.000 A 
ATOM     28  C   UNL     1       1.788   9.028  18.250  0.00  0.00    +0.000 A 
ATOM     29  F   UNL     1       1.482  10.067  17.456  0.00  0.00    +0.000 F 
ENDBRANCH  20  23
ENDBRANCH   2  19
TORSDOF 3
ENDMDL
MODEL 8
REMARK VINA RESULT:      -6.8      5.638      9.513
REMARK  Name = 
REMARK  4 active torsions:
REMARK  status: ('A' for Active; 'I' for Inactive)
REMARK    1  A    between atoms: C_1  and  C_2
REMARK    2  A    between atoms: C_6  and  C_7
REMARK    3  A    between atoms: C_8  and  N_9
REMARK    4  A    between atoms: C_10  and  C_12
REMARK                            x       y       z     vdW  Elec       q    Type
REMARK                         _______ _______ _______ _____ _____    ______ ____
ROOT
ATOM      1  C   UNL     1      -0.427  12.113  21.319  0.00  0.00    +0.000 A 
ATOM      2  C   UNL     1      -0.052  12.671  20.150  0.00  0.00    +0.000 A 
ATOM      3  S   UNL     1       1.055  11.970  19.019  0.00  0.00    +0.000 S 
ATOM      4  C   UNL     1       1.164  10.296  19.594  0.00  0.00    +0.000 A 
ATOM      5  C   UNL     1       1.699   9.330  18.726  0.00  0.00    +0.000 A 
ATOM      6  C   UNL     1       1.860   8.004  19.133  0.00  0.00    +0.000 A 
ATOM      7  C   UNL     1       1.496   7.624  20.421  0.00  0.00    +0.000 A 
ATOM      8  C   UNL     1       0.963   8.572  21.292  0.00  0.00    +0.000 A 
ATOM      9  C   UNL     1       0.791   9.903  20.878  0.00  0.00    +0.000 A 
ATOM     10  C   UNL     1       0.190  10.855  21.830  0.00  0.00    +0.000 A 
ATOM     11  O   UNL     1       0.149  10.564  23.026  0.00  0.00    +0.000 OA
ENDROOT
BRANCH   1  17
ATOM     12  C   UNL     1      -5.327  12.804  22.169  0.00  0.00    +0.000 C 
ATOM     13  C   UNL     1      -3.896  13.067  22.533  0.00  0.00    +0.000 A 
ATOM     14  C   UNL     1      -3.574  13.896  23.612  0.00  0.00    +0.000 A 
ATOM     15  C   UNL     1      -2.240  14.132  23.952  0.00  0.00    +0.000 A 
ATOM     16  C   UNL     1      -1.211  13.549  23.212  0.00  0.00    +0.000 A 
ATOM     17  C   UNL     1      -1.511  12.718  22.129  0.00  0.00    +0.000 A 
ATOM     18  C   UNL     1      -2.856  12.464  21.808  0.00  0.00    +0.000 A 
ENDBRANCH   1  17
BRANCH   2  19
ATOM     19  N   UNL     1      -0.610  13.852  19.702  0.00  0.00    +0.000 N 
ATOM     20  C   UNL     1      -0.036  15.101  19.902  0.00  0.00    +0.000 C 
ATOM     21  O   UNL     1       1.013  15.285  20.518  0.00  0.00    +0.000 OA
ATOM     22  H   UNL     1      -1.373  13.765  19.042  0.00  0.00    +0.000 HD
BRANCH  20  23
ATOM     23  C   UNL     1      -0.785  16.277  19.351  0.00  0.00    +0.000 A 
ATOM     24  C   UNL     1      -0.277  16.941  18.223  0.00  0.00    +0.000 A 
ATOM     25  C   UNL     1      -0.897  18.103  17.739  0.00  0.00    +0.000 A 
ATOM     26  C   UNL     1      -2.031  18.608  18.371  0.00  0.00    +0.000 A 
ATOM     27  C   UNL     1      -2.564  17.935  19.468  0.00  0.00    +0.000 A 
ATOM     28  C   UNL     1      -1.945  16.779  19.945  0.00  0.00    +0.000 A 
ATOM     29  F   UNL     1      -2.503  16.166  21.002  0.00  0.00    +0.000 F 
ENDBRANCH  20  23
ENDBRANCH   2  19
TORSDOF 3
ENDMDL
MODEL 9
REMARK VINA RESULT:      -6.7      7.848      9.323
REMARK  Name = 
REMARK  4 active torsions:
REMARK  status: ('A' for Active; 'I' for Inactive)
REMARK    1  A    between atoms: C_1  and  C_2
REMARK    2  A    between atoms: C_6  and  C_7
REMARK    3  A    between atoms: C_8  and  N_9
REMARK    4  A    between atoms: C_10  and  C_12
REMARK                            x       y       z     vdW  Elec       q    Type
REMARK                         _______ _______ _______ _____ _____    ______ ____
ROOT
ATOM      1  C   UNL     1       0.629  13.891  20.736  0.00  0.00    +0.000 A 
ATOM      2  C   UNL     1       0.371  13.968  19.414  0.00  0.00    +0.000 A 
ATOM      3  S   UNL     1       1.441  14.625  18.223  0.00  0.00    +0.000 S 
ATOM      4  C   UNL     1       2.971  14.725  19.114  0.00  0.00    +0.000 A 
ATOM      5  C   UNL     1       4.157  14.886  18.379  0.00  0.00    +0.000 A 
ATOM      6  C   UNL     1       5.390  15.023  19.020  0.00  0.00    +0.000 A 
ATOM      7  C   UNL     1       5.456  15.009  20.410  0.00  0.00    +0.000 A 
ATOM      8  C   UNL     1       4.288  14.849  21.151  0.00  0.00    +0.000 A 
ATOM      9  C   UNL     1       3.049  14.700  20.505  0.00  0.00    +0.000 A 
ATOM     10  C   UNL     1       1.851  14.499  21.340  0.00  0.00    +0.000 A 
ATOM     11  O   UNL     1       1.900  14.775  22.539  0.00  0.00    +0.000 OA
ENDROOT
BRANCH   1  17
ATOM     12  C   UNL     1      -0.625   9.643  23.100  0.00  0.00    +0.000 C 
ATOM     13  C   UNL     1      -0.902  11.082  22.779  0.00  0.00    +0.000 A 
ATOM     14  C   UNL     1      -2.027  11.727  23.304  0.00  0.00    +0.000 A 
ATOM     15  C   UNL     1      -2.277  13.068  23.009  0.00  0.00    +0.000 A 
ATOM     16  C   UNL     1      -1.412  13.780  22.177  0.00  0.00    +0.000 A 
ATOM     17  C   UNL     1      -0.284  13.154  21.641  0.00  0.00    +0.000 A 
ATOM     18  C   UNL     1      -0.023  11.810  21.963  0.00  0.00    +0.000 A 
ENDBRANCH   1  17
BRANCH   2  19
ATOM     19  N   UNL     1      -0.778  13.427  18.872  0.00  0.00    +0.000 N 
ATOM     20  C   UNL     1      -0.887  12.106  18.455  0.00  0.00    +0.000 C 
ATOM     21  O   UNL     1       0.034  11.291  18.504  0.00  0.00    +0.000 OA
ATOM     22  H   UNL     1      -1.621  13.981  18.963  0.00  0.00    +0.000 HD
BRANCH  20  23
ATOM     23  C   UNL     1      -2.210  11.692  17.884  0.00  0.00    +0.000 A 
ATOM     24  C   UNL     1      -2.273  11.269  16.546  0.00  0.00    +0.000 A 
ATOM     25  C   UNL     1      -3.508  10.968  15.952  0.00  0.00    +0.000 A 
ATOM     26  C   UNL     1      -4.686  11.078  16.685  0.00  0.00    +0.000 A 
ATOM     27  C   UNL     1      -4.630  11.461  18.023  0.00  0.00    +0.000 A 
ATOM     28  C   UNL     1      -3.400  11.758  18.612  0.00  0.00    +0.000 A 
ATOM     29  F   UNL     1      -3.401  12.116  19.907  0.00  0.00    +0.000 F 
ENDBRANCH  20  23
ENDBRANCH   2  19
TORSDOF 3
ENDMDL
