MODEL 1
REMARK VINA RESULT:      -9.1      0.000      0.000
REMARK  Name = 
REMARK  8 active torsions:
REMARK  status: ('A' for Active; 'I' for Inactive)
REMARK    1  A    between atoms: C_2  and  C_3
REMARK    2  A    between atoms: C_3  and  N_4
REMARK    3  A    between atoms: C_8  and  C_9
REMARK    4  A    between atoms: C_9  and  C_10
REMARK    5  A    between atoms: C_10  and  C_11
REMARK    6  A    between atoms: N_19  and  C_20
REMARK    7  A    between atoms: C_20  and  C_21
REMARK    8  A    between atoms: C_21  and  C_22
REMARK                            x       y       z     vdW  Elec       q    Type
REMARK                         _______ _______ _______ _____ _____    ______ ____
ROOT
ATOM      1  C   UNL     1       7.542   5.705  18.370  0.00  0.00    +0.000 C 
ENDROOT
BRANCH   1   2
ATOM      2  N   UNL     1       6.609   4.938  17.596  0.00  0.00    +0.000 N 
ATOM      3  C   UNL     1       6.867   4.401  16.368  0.00  0.00    +0.000 C 
ATOM      4  O   UNL     1       7.887   4.537  15.703  0.00  0.00    +0.000 OA
ATOM      5  N   UNL     1       5.770   3.664  15.971  0.00  0.00    +0.000 N 
ATOM      6  C   UNL     1       4.660   3.812  16.883  0.00  0.00    +0.000 C 
ATOM      7  C   UNL     1       5.327   4.651  17.994  0.00  0.00    +0.000 C 
ATOM      8  O   UNL     1       4.806   5.007  19.024  0.00  0.00    +0.000 OA
ATOM      9  H   UNL     1       5.729   3.265  15.038  0.00  0.00    +0.000 HD
BRANCH   6  10
ATOM     10  C   UNL     1       4.149   2.470  17.400  0.00  0.00    +0.000 C 
BRANCH  10  11
ATOM     11  C   UNL     1       2.636   2.497  17.612  0.00  0.00    +0.000 C 
BRANCH  11  12
ATOM     12  C   UNL     1       2.262   2.852  19.029  0.00  0.00    +0.000 A 
ATOM     13  C   UNL     1       1.207   3.741  19.282  0.00  0.00    +0.000 A 
ATOM     14  C   UNL     1       0.825   4.030  20.592  0.00  0.00    +0.000 A 
ATOM     15  C   UNL     1       1.497   3.439  21.659  0.00  0.00    +0.000 A 
ATOM     16  C   UNL     1       2.560   2.569  21.419  0.00  0.00    +0.000 A 
ATOM     17  C   UNL     1       2.945   2.279  20.109  0.00  0.00    +0.000 A 
ENDBRANCH  11  12
ENDBRANCH  10  11
ENDBRANCH   6  10
ENDBRANCH   1   2
BRANCH   1  19
ATOM     18  O   UNL     1       6.828   7.547  16.977  0.00  0.00    +0.000 OA
ATOM     19  C   UNL     1       7.540   7.155  17.899  0.00  0.00    +0.000 C 
ATOM     20  N   UNL     1       8.434   7.978  18.558  0.00  0.00    +0.000 N 
ATOM     21  H   UNL     1       9.093   7.561  19.206  0.00  0.00    +0.000 HD
BRANCH  20  22
ATOM     22  C   UNL     1       8.574   9.396  18.247  0.00  0.00    +0.000 C 
BRANCH  22  23
ATOM     23  C   UNL     1       9.261  10.178  19.374  0.00  0.00    +0.000 C 
BRANCH  23  24
ATOM     24  C   UNL     1       9.629  11.577  18.990  0.00  0.00    +0.000 A 
ATOM     25  C   UNL     1      10.336  11.902  17.843  0.00  0.00    +0.000 A 
ATOM     26  N   UNL     1      10.231  13.265  17.719  0.00  0.00    +0.000 N 
ATOM     27  C   UNL     1      10.331  13.720  19.017  0.00  0.00    +0.000 A 
ATOM     28  C   UNL     1      10.997  14.819  19.544  0.00  0.00    +0.000 A 
ATOM     29  C   UNL     1      10.840  15.029  20.909  0.00  0.00    +0.000 A 
ATOM     30  C   UNL     1       9.941  14.257  21.654  0.00  0.00    +0.000 A 
ATOM     31  C   UNL     1       9.297  13.136  21.097  0.00  0.00    +0.000 A 
ATOM     32  C   UNL     1       9.626  12.785  19.776  0.00  0.00    +0.000 A 
ATOM     33  H   UNL     1       9.502  13.649  17.133  0.00  0.00    +0.000 HD
ENDBRANCH  23  24
ENDBRANCH  22  23
ENDBRANCH  20  22
ENDBRANCH   1  19
TORSDOF 8
ENDMDL
MODEL 2
REMARK VINA RESULT:      -8.8      2.531      3.250
REMARK  Name = 
REMARK  8 active torsions:
REMARK  status: ('A' for Active; 'I' for Inactive)
REMARK    1  A    between atoms: C_2  and  C_3
REMARK    2  A    between atoms: C_3  and  N_4
REMARK    3  A    between atoms: C_8  and  C_9
REMARK    4  A    between atoms: C_9  and  C_10
REMARK    5  A    between atoms: C_10  and  C_11
REMARK    6  A    between atoms: N_19  and  C_20
REMARK    7  A    between atoms: C_20  and  C_21
REMARK    8  A    between atoms: C_21  and  C_22
REMARK                            x       y       z     vdW  Elec       q    Type
REMARK                         _______ _______ _______ _____ _____    ______ ____
ROOT
ATOM      1  C   UNL     1       7.541   6.004  17.322  0.00  0.00    +0.000 C 
ENDROOT
BRANCH   1   2
ATOM      2  N   UNL     1       6.490   5.308  18.007  0.00  0.00    +0.000 N 
ATOM      3  C   UNL     1       6.458   5.069  19.351  0.00  0.00    +0.000 C 
ATOM      4  O   UNL     1       7.329   5.337  20.169  0.00  0.00    +0.000 OA
ATOM      5  N   UNL     1       5.262   4.453  19.659  0.00  0.00    +0.000 N 
ATOM      6  C   UNL     1       4.503   4.123  18.476  0.00  0.00    +0.000 C 
ATOM      7  C   UNL     1       5.379   4.787  17.392  0.00  0.00    +0.000 C 
ATOM      8  O   UNL     1       5.139   4.824  16.209  0.00  0.00    +0.000 OA
ATOM      9  H   UNL     1       5.090   4.104  20.597  0.00  0.00    +0.000 HD
BRANCH   6  10
ATOM     10  C   UNL     1       3.091   4.700  18.511  0.00  0.00    +0.000 C 
BRANCH  10  11
ATOM     11  C   UNL     1       2.869   5.548  19.763  0.00  0.00    +0.000 C 
BRANCH  11  12
ATOM     12  C   UNL     1       2.299   6.907  19.442  0.00  0.00    +0.000 A 
ATOM     13  C   UNL     1       1.669   7.663  20.441  0.00  0.00    +0.000 A 
ATOM     14  C   UNL     1       1.187   8.942  20.160  0.00  0.00    +0.000 A 
ATOM     15  C   UNL     1       1.325   9.472  18.879  0.00  0.00    +0.000 A 
ATOM     16  C   UNL     1       1.932   8.719  17.874  0.00  0.00    +0.000 A 
ATOM     17  C   UNL     1       2.413   7.439  18.152  0.00  0.00    +0.000 A 
ENDBRANCH  11  12
ENDBRANCH  10  11
ENDBRANCH   6  10
ENDBRANCH   1   2
BRANCH   1  19
ATOM     18  O   UNL     1       6.292   8.028  16.893  0.00  0.00    +0.000 OA
ATOM     19  C   UNL     1       7.293   7.508  17.380  0.00  0.00    +0.000 C 
ATOM     20  N   UNL     1       8.302   8.237  17.979  0.00  0.00    +0.000 N 
ATOM     21  H   UNL     1       9.164   7.763  18.227  0.00  0.00    +0.000 HD
BRANCH  20  22
ATOM     22  C   UNL     1       8.243   9.686  18.127  0.00  0.00    +0.000 C 
BRANCH  22  23
ATOM     23  C   UNL     1       9.378  10.234  19.003  0.00  0.00    +0.000 C 
BRANCH  23  24
ATOM     24  C   UNL     1      10.190  11.295  18.332  0.00  0.00    +0.000 A 
ATOM     25  C   UNL     1      11.575  11.281  18.265  0.00  0.00    +0.000 A 
ATOM     26  N   UNL     1      11.911  12.253  17.355  0.00  0.00    +0.000 N 
ATOM     27  C   UNL     1      11.016  13.269  17.619  0.00  0.00    +0.000 A 
ATOM     28  C   UNL     1      11.194  14.646  17.657  0.00  0.00    +0.000 A 
ATOM     29  C   UNL     1      10.051  15.401  17.895  0.00  0.00    +0.000 A 
ATOM     30  C   UNL     1       8.789  14.796  17.938  0.00  0.00    +0.000 A 
ATOM     31  C   UNL     1       8.644  13.396  17.918  0.00  0.00    +0.000 A 
ATOM     32  C   UNL     1       9.815  12.619  17.904  0.00  0.00    +0.000 A 
ATOM     33  H   UNL     1      12.066  11.990  16.392  0.00  0.00    +0.000 HD
ENDBRANCH  23  24
ENDBRANCH  22  23
ENDBRANCH  20  22
ENDBRANCH   1  19
TORSDOF 8
ENDMDL
MODEL 3
REMARK VINA RESULT:      -8.7      1.528      2.106
REMARK  Name = 
REMARK  8 active torsions:
REMARK  status: ('A' for Active; 'I' for Inactive)
REMARK    1  A    between atoms: C_2  and  C_3
REMARK    2  A    between atoms: C_3  and  N_4
REMARK    3  A    between atoms: C_8  and  C_9
REMARK    4  A    between atoms: C_9  and  C_10
REMARK    5  A    between atoms: C_10  and  C_11
REMARK    6  A    between atoms: N_19  and  C_20
REMARK    7  A    between atoms: C_20  and  C_21
REMARK    8  A    between atoms: C_21  and  C_22
REMARK                            x       y       z     vdW  Elec       q    Type
REMARK                         _______ _______ _______ _____ _____    ______ ____
ROOT
ATOM      1  C   UNL     1       7.661   4.541  17.980  0.00  0.00    +0.000 C 
ENDROOT
BRANCH   1   2
ATOM      2  N   UNL     1       6.337   4.646  17.439  0.00  0.00    +0.000 N 
ATOM      3  C   UNL     1       6.035   5.141  16.202  0.00  0.00    +0.000 C 
ATOM      4  O   UNL     1       6.813   5.631  15.394  0.00  0.00    +0.000 OA
ATOM      5  N   UNL     1       4.677   5.008  15.995  0.00  0.00    +0.000 N 
ATOM      6  C   UNL     1       3.992   4.542  17.178  0.00  0.00    +0.000 C 
ATOM      7  C   UNL     1       5.197   4.265  18.102  0.00  0.00    +0.000 C 
ATOM      8  O   UNL     1       5.144   3.810  19.220  0.00  0.00    +0.000 OA
ATOM      9  H   UNL     1       4.241   5.410  15.170  0.00  0.00    +0.000 HD
BRANCH   6  10
ATOM     10  C   UNL     1       3.165   3.287  16.914  0.00  0.00    +0.000 C 
BRANCH  10  11
ATOM     11  C   UNL     1       1.762   3.414  17.507  0.00  0.00    +0.000 C 
BRANCH  11  12
ATOM     12  C   UNL     1       1.779   3.464  19.015  0.00  0.00    +0.000 A 
ATOM     13  C   UNL     1       1.808   2.278  19.762  0.00  0.00    +0.000 A 
ATOM     14  C   UNL     1       1.876   2.323  21.155  0.00  0.00    +0.000 A 
ATOM     15  C   UNL     1       1.909   3.551  21.811  0.00  0.00    +0.000 A 
ATOM     16  C   UNL     1       1.860   4.736  21.077  0.00  0.00    +0.000 A 
ATOM     17  C   UNL     1       1.791   4.694  19.685  0.00  0.00    +0.000 A 
ENDBRANCH  11  12
ENDBRANCH  10  11
ENDBRANCH   6  10
ENDBRANCH   1   2
BRANCH   1  19
ATOM     18  O   UNL     1       7.987   5.697  20.077  0.00  0.00    +0.000 OA
ATOM     19  C   UNL     1       7.965   5.756  18.850  0.00  0.00    +0.000 C 
ATOM     20  N   UNL     1       8.165   6.932  18.151  0.00  0.00    +0.000 N 
ATOM     21  H   UNL     1       7.988   6.941  17.153  0.00  0.00    +0.000 HD
BRANCH  20  22
ATOM     22  C   UNL     1       8.467   8.196  18.811  0.00  0.00    +0.000 C 
BRANCH  22  23
ATOM     23  C   UNL     1       8.262   9.403  17.887  0.00  0.00    +0.000 C 
BRANCH  23  24
ATOM     24  C   UNL     1       8.953  10.642  18.361  0.00  0.00    +0.000 A 
ATOM     25  C   UNL     1       9.811  10.679  19.450  0.00  0.00    +0.000 A 
ATOM     26  N   UNL     1      10.434  11.902  19.388  0.00  0.00    +0.000 N 
ATOM     27  C   UNL     1       9.432  12.758  18.980  0.00  0.00    +0.000 A 
ATOM     28  C   UNL     1       9.124  14.051  19.384  0.00  0.00    +0.000 A 
ATOM     29  C   UNL     1       8.070  14.662  18.715  0.00  0.00    +0.000 A 
ATOM     30  C   UNL     1       7.474  14.051  17.607  0.00  0.00    +0.000 A 
ATOM     31  C   UNL     1       7.792  12.731  17.235  0.00  0.00    +0.000 A 
ATOM     32  C   UNL     1       8.697  12.026  18.047  0.00  0.00    +0.000 A 
ATOM     33  H   UNL     1      11.335  11.970  18.935  0.00  0.00    +0.000 HD
ENDBRANCH  23  24
ENDBRANCH  22  23
ENDBRANCH  20  22
ENDBRANCH   1  19
TORSDOF 8
ENDMDL
MODEL 4
REMARK VINA RESULT:      -8.7      2.541      9.074
REMARK  Name = 
REMARK  8 active torsions:
REMARK  status: ('A' for Active; 'I' for Inactive)
REMARK    1  A    between atoms: C_2  and  C_3
REMARK    2  A    between atoms: C_3  and  N_4
REMARK    3  A    between atoms: C_8  and  C_9
REMARK    4  A    between atoms: C_9  and  C_10
REMARK    5  A    between atoms: C_10  and  C_11
REMARK    6  A    between atoms: N_19  and  C_20
REMARK    7  A    between atoms: C_20  and  C_21
REMARK    8  A    between atoms: C_21  and  C_22
REMARK                            x       y       z     vdW  Elec       q    Type
REMARK                         _______ _______ _______ _____ _____    ______ ____
ROOT
ATOM      1  C   UNL     1       6.950   4.570  17.232  0.00  0.00    +0.000 C 
ENDROOT
BRANCH   1   2
ATOM      2  N   UNL     1       7.315   5.803  17.867  0.00  0.00    +0.000 N 
ATOM      3  C   UNL     1       8.070   5.906  19.000  0.00  0.00    +0.000 C 
ATOM      4  O   UNL     1       8.494   4.986  19.690  0.00  0.00    +0.000 OA
ATOM      5  N   UNL     1       8.285   7.243  19.266  0.00  0.00    +0.000 N 
ATOM      6  C   UNL     1       7.537   8.099  18.375  0.00  0.00    +0.000 C 
ATOM      7  C   UNL     1       6.944   7.046  17.414  0.00  0.00    +0.000 C 
ATOM      8  O   UNL     1       6.260   7.274  16.447  0.00  0.00    +0.000 OA
ATOM      9  H   UNL     1       8.744   7.528  20.126  0.00  0.00    +0.000 HD
BRANCH   6  10
ATOM     10  C   UNL     1       8.428   9.105  17.652  0.00  0.00    +0.000 C 
BRANCH  10  11
ATOM     11  C   UNL     1       9.366   9.816  18.626  0.00  0.00    +0.000 C 
BRANCH  11  12
ATOM     12  C   UNL     1       9.736  11.202  18.159  0.00  0.00    +0.000 A 
ATOM     13  C   UNL     1       8.746  12.180  17.991  0.00  0.00    +0.000 A 
ATOM     14  C   UNL     1       9.092  13.476  17.609  0.00  0.00    +0.000 A 
ATOM     15  C   UNL     1      10.427  13.804  17.385  0.00  0.00    +0.000 A 
ATOM     16  C   UNL     1      11.417  12.832  17.529  0.00  0.00    +0.000 A 
ATOM     17  C   UNL     1      11.073  11.534  17.910  0.00  0.00    +0.000 A 
ENDBRANCH  11  12
ENDBRANCH  10  11
ENDBRANCH   6  10
ENDBRANCH   1   2
BRANCH   1  19
ATOM     18  O   UNL     1       5.575   3.756  19.044  0.00  0.00    +0.000 OA
ATOM     19  C   UNL     1       5.666   4.028  17.849  0.00  0.00    +0.000 C 
ATOM     20  N   UNL     1       4.635   3.823  16.951  0.00  0.00    +0.000 N 
ATOM     21  H   UNL     1       4.824   3.929  15.960  0.00  0.00    +0.000 HD
BRANCH  20  22
ATOM     22  C   UNL     1       3.332   3.310  17.356  0.00  0.00    +0.000 C 
BRANCH  22  23
ATOM     23  C   UNL     1       2.254   4.401  17.380  0.00  0.00    +0.000 C 
BRANCH  23  24
ATOM     24  C   UNL     1       2.340   5.299  18.573  0.00  0.00    +0.000 A 
ATOM     25  C   UNL     1       2.130   4.874  19.875  0.00  0.00    +0.000 A 
ATOM     26  N   UNL     1       2.561   5.904  20.674  0.00  0.00    +0.000 N 
ATOM     27  C   UNL     1       2.147   7.034  20.001  0.00  0.00    +0.000 A 
ATOM     28  C   UNL     1       1.600   8.221  20.472  0.00  0.00    +0.000 A 
ATOM     29  C   UNL     1       1.348   9.197  19.515  0.00  0.00    +0.000 A 
ATOM     30  C   UNL     1       1.770   9.028  18.191  0.00  0.00    +0.000 A 
ATOM     31  C   UNL     1       2.301   7.805  17.739  0.00  0.00    +0.000 A 
ATOM     32  C   UNL     1       2.349   6.738  18.653  0.00  0.00    +0.000 A 
ATOM     33  H   UNL     1       3.505   5.882  21.036  0.00  0.00    +0.000 HD
ENDBRANCH  23  24
ENDBRANCH  22  23
ENDBRANCH  20  22
ENDBRANCH   1  19
TORSDOF 8
ENDMDL
MODEL 5
REMARK VINA RESULT:      -8.6      1.128      2.037
REMARK  Name = 
REMARK  8 active torsions:
REMARK  status: ('A' for Active; 'I' for Inactive)
REMARK    1  A    between atoms: C_2  and  C_3
REMARK    2  A    between atoms: C_3  and  N_4
REMARK    3  A    between atoms: C_8  and  C_9
REMARK    4  A    between atoms: C_9  and  C_10
REMARK    5  A    between atoms: C_10  and  C_11
REMARK    6  A    between atoms: N_19  and  C_20
REMARK    7  A    between atoms: C_20  and  C_21
REMARK    8  A    between atoms: C_21  and  C_22
REMARK                            x       y       z     vdW  Elec       q    Type
REMARK                         _______ _______ _______ _____ _____    ______ ____
ROOT
ATOM      1  C   UNL     1       7.556   6.118  18.452  0.00  0.00    +0.000 C 
ENDROOT
BRANCH   1   2
ATOM      2  N   UNL     1       6.584   5.582  17.544  0.00  0.00    +0.000 N 
ATOM      3  C   UNL     1       6.872   4.795  16.466  0.00  0.00    +0.000 C 
ATOM      4  O   UNL     1       7.983   4.479  16.059  0.00  0.00    +0.000 OA
ATOM      5  N   UNL     1       5.686   4.402  15.879  0.00  0.00    +0.000 N 
ATOM      6  C   UNL     1       4.544   5.052  16.479  0.00  0.00    +0.000 C 
ATOM      7  C   UNL     1       5.232   5.798  17.643  0.00  0.00    +0.000 C 
ATOM      8  O   UNL     1       4.679   6.469  18.481  0.00  0.00    +0.000 OA
ATOM      9  H   UNL     1       5.691   3.891  15.002  0.00  0.00    +0.000 HD
BRANCH   6  10
ATOM     10  C   UNL     1       3.498   4.054  16.970  0.00  0.00    +0.000 C 
BRANCH  10  11
ATOM     11  C   UNL     1       4.044   3.195  18.110  0.00  0.00    +0.000 C 
BRANCH  11  12
ATOM     12  C   UNL     1       3.058   3.052  19.243  0.00  0.00    +0.000 A 
ATOM     13  C   UNL     1       3.497   2.665  20.517  0.00  0.00    +0.000 A 
ATOM     14  C   UNL     1       2.596   2.583  21.579  0.00  0.00    +0.000 A 
ATOM     15  C   UNL     1       1.250   2.879  21.375  0.00  0.00    +0.000 A 
ATOM     16  C   UNL     1       0.801   3.244  20.106  0.00  0.00    +0.000 A 
ATOM     17  C   UNL     1       1.700   3.326  19.043  0.00  0.00    +0.000 A 
ENDBRANCH  11  12
ENDBRANCH  10  11
ENDBRANCH   6  10
ENDBRANCH   1   2
BRANCH   1  19
ATOM     18  O   UNL     1       7.451   8.088  17.056  0.00  0.00    +0.000 OA
ATOM     19  C   UNL     1       7.860   7.568  18.092  0.00  0.00    +0.000 C 
ATOM     20  N   UNL     1       8.668   8.231  18.996  0.00  0.00    +0.000 N 
ATOM     21  H   UNL     1       9.090   7.702  19.752  0.00  0.00    +0.000 HD
BRANCH  20  22
ATOM     22  C   UNL     1       9.066   9.623  18.821  0.00  0.00    +0.000 C 
BRANCH  22  23
ATOM     23  C   UNL     1       9.137  10.384  20.152  0.00  0.00    +0.000 C 
BRANCH  23  24
ATOM     24  C   UNL     1       9.895  11.670  20.064  0.00  0.00    +0.000 A 
ATOM     25  C   UNL     1       9.758  12.711  20.969  0.00  0.00    +0.000 A 
ATOM     26  N   UNL     1      10.797  13.569  20.705  0.00  0.00    +0.000 N 
ATOM     27  C   UNL     1      10.888  13.558  19.329  0.00  0.00    +0.000 A 
ATOM     28  C   UNL     1      11.120  14.588  18.427  0.00  0.00    +0.000 A 
ATOM     29  C   UNL     1      11.215  14.217  17.091  0.00  0.00    +0.000 A 
ATOM     30  C   UNL     1      11.226  12.867  16.721  0.00  0.00    +0.000 A 
ATOM     31  C   UNL     1      10.966  11.847  17.655  0.00  0.00    +0.000 A 
ATOM     32  C   UNL     1      10.646  12.231  18.969  0.00  0.00    +0.000 A 
ATOM     33  H   UNL     1      11.649  13.486  21.242  0.00  0.00    +0.000 HD
ENDBRANCH  23  24
ENDBRANCH  22  23
ENDBRANCH  20  22
ENDBRANCH   1  19
TORSDOF 8
ENDMDL
MODEL 6
REMARK VINA RESULT:      -8.5      3.568      4.437
REMARK  Name = 
REMARK  8 active torsions:
REMARK  status: ('A' for Active; 'I' for Inactive)
REMARK    1  A    between atoms: C_2  and  C_3
REMARK    2  A    between atoms: C_3  and  N_4
REMARK    3  A    between atoms: C_8  and  C_9
REMARK    4  A    between atoms: C_9  and  C_10
REMARK    5  A    between atoms: C_10  and  C_11
REMARK    6  A    between atoms: N_19  and  C_20
REMARK    7  A    between atoms: C_20  and  C_21
REMARK    8  A    between atoms: C_21  and  C_22
REMARK                            x       y       z     vdW  Elec       q    Type
REMARK                         _______ _______ _______ _____ _____    ______ ____
ROOT
ATOM      1  C   UNL     1       6.520   5.290  17.424  0.00  0.00    +0.000 C 
ENDROOT
BRANCH   1   2
ATOM      2  N   UNL     1       5.179   5.462  17.903  0.00  0.00    +0.000 N 
ATOM      3  C   UNL     1       4.609   4.735  18.908  0.00  0.00    +0.000 C 
ATOM      4  O   UNL     1       5.106   3.791  19.510  0.00  0.00    +0.000 OA
ATOM      5  N   UNL     1       3.345   5.235  19.150  0.00  0.00    +0.000 N 
ATOM      6  C   UNL     1       2.969   6.243  18.187  0.00  0.00    +0.000 C 
ATOM      7  C   UNL     1       4.292   6.382  17.403  0.00  0.00    +0.000 C 
ATOM      8  O   UNL     1       4.502   7.152  16.497  0.00  0.00    +0.000 OA
ATOM      9  H   UNL     1       2.722   4.763  19.798  0.00  0.00    +0.000 HD
BRANCH   6  10
ATOM     10  C   UNL     1       2.549   7.552  18.849  0.00  0.00    +0.000 C 
BRANCH  10  11
ATOM     11  C   UNL     1       1.968   8.529  17.828  0.00  0.00    +0.000 C 
BRANCH  11  12
ATOM     12  C   UNL     1       0.915   9.427  18.427  0.00  0.00    +0.000 A 
ATOM     13  C   UNL     1      -0.289   9.658  17.746  0.00  0.00    +0.000 A 
ATOM     14  C   UNL     1      -1.286  10.447  18.322  0.00  0.00    +0.000 A 
ATOM     15  C   UNL     1      -1.085  11.015  19.578  0.00  0.00    +0.000 A 
ATOM     16  C   UNL     1       0.117  10.807  20.253  0.00  0.00    +0.000 A 
ATOM     17  C   UNL     1       1.116  10.020  19.679  0.00  0.00    +0.000 A 
ENDBRANCH  11  12
ENDBRANCH  10  11
ENDBRANCH   6  10
ENDBRANCH   1   2
BRANCH   1  19
ATOM     18  O   UNL     1       7.999   5.445  19.329  0.00  0.00    +0.000 OA
ATOM     19  C   UNL     1       7.499   5.999  18.352  0.00  0.00    +0.000 C 
ATOM     20  N   UNL     1       7.741   7.322  18.035  0.00  0.00    +0.000 N 
ATOM     21  H   UNL     1       7.186   7.758  17.307  0.00  0.00    +0.000 HD
BRANCH  20  22
ATOM     22  C   UNL     1       8.649   8.162  18.808  0.00  0.00    +0.000 C 
BRANCH  22  23
ATOM     23  C   UNL     1       8.620   9.628  18.356  0.00  0.00    +0.000 C 
BRANCH  23  24
ATOM     24  C   UNL     1       9.454  10.532  19.207  0.00  0.00    +0.000 A 
ATOM     25  C   UNL     1       9.124  10.892  20.504  0.00  0.00    +0.000 A 
ATOM     26  N   UNL     1      10.249  11.488  21.019  0.00  0.00    +0.000 N 
ATOM     27  C   UNL     1      10.742  12.223  19.961  0.00  0.00    +0.000 A 
ATOM     28  C   UNL     1      11.298  13.495  19.922  0.00  0.00    +0.000 A 
ATOM     29  C   UNL     1      11.759  13.919  18.681  0.00  0.00    +0.000 A 
ATOM     30  C   UNL     1      11.789  13.043  17.589  0.00  0.00    +0.000 A 
ATOM     31  C   UNL     1      11.198  11.768  17.654  0.00  0.00    +0.000 A 
ATOM     32  C   UNL     1      10.530  11.418  18.841  0.00  0.00    +0.000 A 
ATOM     33  H   UNL     1      10.897  10.929  21.557  0.00  0.00    +0.000 HD
ENDBRANCH  23  24
ENDBRANCH  22  23
ENDBRANCH  20  22
ENDBRANCH   1  19
TORSDOF 8
ENDMDL
MODEL 7
REMARK VINA RESULT:      -8.5      2.749      3.665
REMARK  Name = 
REMARK  8 active torsions:
REMARK  status: ('A' for Active; 'I' for Inactive)
REMARK    1  A    between atoms: C_2  and  C_3
REMARK    2  A    between atoms: C_3  and  N_4
REMARK    3  A    between atoms: C_8  and  C_9
REMARK    4  A    between atoms: C_9  and  C_10
REMARK    5  A    between atoms: C_10  and  C_11
REMARK    6  A    between atoms: N_19  and  C_20
REMARK    7  A    between atoms: C_20  and  C_21
REMARK    8  A    between atoms: C_21  and  C_22
REMARK                            x       y       z     vdW  Elec       q    Type
REMARK                         _______ _______ _______ _____ _____    ______ ____
ROOT
ATOM      1  C   UNL     1       7.520   6.100  17.417  0.00  0.00    +0.000 C 
ENDROOT
BRANCH   1   2
ATOM      2  N   UNL     1       6.296   5.579  17.954  0.00  0.00    +0.000 N 
ATOM      3  C   UNL     1       6.095   5.248  19.263  0.00  0.00    +0.000 C 
ATOM      4  O   UNL     1       6.922   5.271  20.166  0.00  0.00    +0.000 OA
ATOM      5  N   UNL     1       4.778   4.863  19.422  0.00  0.00    +0.000 N 
ATOM      6  C   UNL     1       4.082   4.784  18.160  0.00  0.00    +0.000 C 
ATOM      7  C   UNL     1       5.166   5.340  17.211  0.00  0.00    +0.000 C 
ATOM      8  O   UNL     1       5.047   5.516  16.023  0.00  0.00    +0.000 OA
ATOM      9  H   UNL     1       4.457   4.485  20.308  0.00  0.00    +0.000 HD
BRANCH   6  10
ATOM     10  C   UNL     1       2.811   5.629  18.143  0.00  0.00    +0.000 C 
BRANCH  10  11
ATOM     11  C   UNL     1       3.134   7.113  17.967  0.00  0.00    +0.000 C 
BRANCH  11  12
ATOM     12  C   UNL     1       2.165   8.002  18.706  0.00  0.00    +0.000 A 
ATOM     13  C   UNL     1       1.901   7.784  20.066  0.00  0.00    +0.000 A 
ATOM     14  C   UNL     1       1.046   8.637  20.765  0.00  0.00    +0.000 A 
ATOM     15  C   UNL     1       0.444   9.709  20.110  0.00  0.00    +0.000 A 
ATOM     16  C   UNL     1       0.685   9.921  18.753  0.00  0.00    +0.000 A 
ATOM     17  C   UNL     1       1.538   9.069  18.052  0.00  0.00    +0.000 A 
ENDBRANCH  11  12
ENDBRANCH  10  11
ENDBRANCH   6  10
ENDBRANCH   1   2
BRANCH   1  19
ATOM     18  O   UNL     1       6.718   8.273  16.728  0.00  0.00    +0.000 OA
ATOM     19  C   UNL     1       7.487   7.624  17.434  0.00  0.00    +0.000 C 
ATOM     20  N   UNL     1       8.421   8.213  18.266  0.00  0.00    +0.000 N 
ATOM     21  H   UNL     1       9.120   7.625  18.706  0.00  0.00    +0.000 HD
BRANCH  20  22
ATOM     22  C   UNL     1       8.540   9.658  18.414  0.00  0.00    +0.000 C 
BRANCH  22  23
ATOM     23  C   UNL     1       9.491  10.055  19.551  0.00  0.00    +0.000 C 
BRANCH  23  24
ATOM     24  C   UNL     1       9.797  11.518  19.591  0.00  0.00    +0.000 A 
ATOM     25  C   UNL     1       9.040  12.447  20.288  0.00  0.00    +0.000 A 
ATOM     26  N   UNL     1       9.787  13.599  20.300  0.00  0.00    +0.000 N 
ATOM     27  C   UNL     1      10.349  13.635  19.041  0.00  0.00    +0.000 A 
ATOM     28  C   UNL     1      10.550  14.696  18.167  0.00  0.00    +0.000 A 
ATOM     29  C   UNL     1      11.213  14.393  16.984  0.00  0.00    +0.000 A 
ATOM     30  C   UNL     1      11.767  13.124  16.777  0.00  0.00    +0.000 A 
ATOM     31  C   UNL     1      11.527  12.063  17.670  0.00  0.00    +0.000 A 
ATOM     32  C   UNL     1      10.669  12.307  18.756  0.00  0.00    +0.000 A 
ATOM     33  H   UNL     1      10.382  13.790  21.095  0.00  0.00    +0.000 HD
ENDBRANCH  23  24
ENDBRANCH  22  23
ENDBRANCH  20  22
ENDBRANCH   1  19
TORSDOF 8
ENDMDL
MODEL 8
REMARK VINA RESULT:      -8.4      3.962      8.762
REMARK  Name = 
REMARK  8 active torsions:
REMARK  status: ('A' for Active; 'I' for Inactive)
REMARK    1  A    between atoms: C_2  and  C_3
REMARK    2  A    between atoms: C_3  and  N_4
REMARK    3  A    between atoms: C_8  and  C_9
REMARK    4  A    between atoms: C_9  and  C_10
REMARK    5  A    between atoms: C_10  and  C_11
REMARK    6  A    between atoms: N_19  and  C_20
REMARK    7  A    between atoms: C_20  and  C_21
REMARK    8  A    between atoms: C_21  and  C_22
REMARK                            x       y       z     vdW  Elec       q    Type
REMARK                         _______ _______ _______ _____ _____    ______ ____
ROOT
ATOM      1  C   UNL     1       5.179   4.709  18.208  0.00  0.00    +0.000 C 
ENDROOT
BRANCH   1   2
ATOM      2  N   UNL     1       6.198   5.672  17.908  0.00  0.00    +0.000 N 
ATOM      3  C   UNL     1       6.270   6.399  16.754  0.00  0.00    +0.000 C 
ATOM      4  O   UNL     1       5.539   6.307  15.776  0.00  0.00    +0.000 OA
ATOM      5  N   UNL     1       7.329   7.279  16.855  0.00  0.00    +0.000 N 
ATOM      6  C   UNL     1       8.105   7.057  18.052  0.00  0.00    +0.000 C 
ATOM      7  C   UNL     1       7.240   5.982  18.746  0.00  0.00    +0.000 C 
ATOM      8  O   UNL     1       7.453   5.489  19.827  0.00  0.00    +0.000 OA
ATOM      9  H   UNL     1       7.608   7.841  16.056  0.00  0.00    +0.000 HD
BRANCH   6  10
ATOM     10  C   UNL     1       8.246   8.320  18.897  0.00  0.00    +0.000 C 
BRANCH  10  11
ATOM     11  C   UNL     1       8.480   9.550  18.020  0.00  0.00    +0.000 C 
BRANCH  11  12
ATOM     12  C   UNL     1       9.448  10.524  18.644  0.00  0.00    +0.000 A 
ATOM     13  C   UNL     1      10.323  11.266  17.839  0.00  0.00    +0.000 A 
ATOM     14  C   UNL     1      11.183  12.205  18.408  0.00  0.00    +0.000 A 
ATOM     15  C   UNL     1      11.180  12.405  19.787  0.00  0.00    +0.000 A 
ATOM     16  C   UNL     1      10.328  11.657  20.598  0.00  0.00    +0.000 A 
ATOM     17  C   UNL     1       9.468  10.717  20.031  0.00  0.00    +0.000 A 
ENDBRANCH  11  12
ENDBRANCH  10  11
ENDBRANCH   6  10
ENDBRANCH   1   2
BRANCH   1  19
ATOM     18  O   UNL     1       3.637   5.280  19.979  0.00  0.00    +0.000 OA
ATOM     19  C   UNL     1       3.960   5.408  18.800  0.00  0.00    +0.000 C 
ATOM     20  N   UNL     1       3.228   6.155  17.898  0.00  0.00    +0.000 N 
ATOM     21  H   UNL     1       3.466   6.100  16.913  0.00  0.00    +0.000 HD
BRANCH  20  22
ATOM     22  C   UNL     1       2.031   6.896  18.279  0.00  0.00    +0.000 C 
BRANCH  22  23
ATOM     23  C   UNL     1       2.357   8.175  19.061  0.00  0.00    +0.000 C 
BRANCH  23  24
ATOM     24  C   UNL     1       1.161   9.033  19.327  0.00  0.00    +0.000 A 
ATOM     25  C   UNL     1       0.713  10.021  18.464  0.00  0.00    +0.000 A 
ATOM     26  N   UNL     1      -0.531  10.377  18.925  0.00  0.00    +0.000 N 
ATOM     27  C   UNL     1      -0.389  10.354  20.296  0.00  0.00    +0.000 A 
ATOM     28  C   UNL     1      -0.878  11.212  21.273  0.00  0.00    +0.000 A 
ATOM     29  C   UNL     1      -0.598  10.859  22.588  0.00  0.00    +0.000 A 
ATOM     30  C   UNL     1       0.006   9.633  22.888  0.00  0.00    +0.000 A 
ATOM     31  C   UNL     1       0.510   8.795  21.876  0.00  0.00    +0.000 A 
ATOM     32  C   UNL     1       0.431   9.253  20.550  0.00  0.00    +0.000 A 
ATOM     33  H   UNL     1      -1.347   9.939  18.520  0.00  0.00    +0.000 HD
ENDBRANCH  23  24
ENDBRANCH  22  23
ENDBRANCH  20  22
ENDBRANCH   1  19
TORSDOF 8
ENDMDL
MODEL 9
REMARK VINA RESULT:      -8.4      1.375      1.804
REMARK  Name = 
REMARK  8 active torsions:
REMARK  status: ('A' for Active; 'I' for Inactive)
REMARK    1  A    between atoms: C_2  and  C_3
REMARK    2  A    between atoms: C_3  and  N_4
REMARK    3  A    between atoms: C_8  and  C_9
REMARK    4  A    between atoms: C_9  and  C_10
REMARK    5  A    between atoms: C_10  and  C_11
REMARK    6  A    between atoms: N_19  and  C_20
REMARK    7  A    between atoms: C_20  and  C_21
REMARK    8  A    between atoms: C_21  and  C_22
REMARK                            x       y       z     vdW  Elec       q    Type
REMARK                         _______ _______ _______ _____ _____    ______ ____
ROOT
ATOM      1  C   UNL     1       7.412   6.445  18.676  0.00  0.00    +0.000 C 
ENDROOT
BRANCH   1   2
ATOM      2  N   UNL     1       6.764   5.615  17.703  0.00  0.00    +0.000 N 
ATOM      3  C   UNL     1       7.319   4.510  17.123  0.00  0.00    +0.000 C 
ATOM      4  O   UNL     1       8.459   4.090  17.278  0.00  0.00    +0.000 OA
ATOM      5  N   UNL     1       6.376   3.921  16.306  0.00  0.00    +0.000 N 
ATOM      6  C   UNL     1       5.178   4.720  16.200  0.00  0.00    +0.000 C 
ATOM      7  C   UNL     1       5.496   5.832  17.223  0.00  0.00    +0.000 C 
ATOM      8  O   UNL     1       4.765   6.741  17.533  0.00  0.00    +0.000 OA
ATOM      9  H   UNL     1       6.629   3.140  15.709  0.00  0.00    +0.000 HD
BRANCH   6  10
ATOM     10  C   UNL     1       3.922   3.937  16.569  0.00  0.00    +0.000 C 
BRANCH  10  11
ATOM     11  C   UNL     1       4.111   3.169  17.877  0.00  0.00    +0.000 C 
BRANCH  11  12
ATOM     12  C   UNL     1       3.016   3.455  18.874  0.00  0.00    +0.000 A 
ATOM     13  C   UNL     1       1.820   2.724  18.840  0.00  0.00    +0.000 A 
ATOM     14  C   UNL     1       0.827   2.951  19.793  0.00  0.00    +0.000 A 
ATOM     15  C   UNL     1       1.018   3.913  20.783  0.00  0.00    +0.000 A 
ATOM     16  C   UNL     1       2.196   4.659  20.812  0.00  0.00    +0.000 A 
ATOM     17  C   UNL     1       3.190   4.435  19.859  0.00  0.00    +0.000 A 
ENDBRANCH  11  12
ENDBRANCH  10  11
ENDBRANCH   6  10
ENDBRANCH   1   2
BRANCH   1  19
ATOM     18  O   UNL     1       7.822   7.922  16.807  0.00  0.00    +0.000 OA
ATOM     19  C   UNL     1       7.909   7.728  18.017  0.00  0.00    +0.000 C 
ATOM     20  N   UNL     1       8.503   8.628  18.881  0.00  0.00    +0.000 N 
ATOM     21  H   UNL     1       8.673   8.344  19.840  0.00  0.00    +0.000 HD
BRANCH  20  22
ATOM     22  C   UNL     1       9.037   9.910  18.435  0.00  0.00    +0.000 C 
BRANCH  22  23
ATOM     23  C   UNL     1       9.884  10.599  19.513  0.00  0.00    +0.000 C 
BRANCH  23  24
ATOM     24  C   UNL     1       9.353  11.936  19.925  0.00  0.00    +0.000 A 
ATOM     25  C   UNL     1       9.597  13.110  19.231  0.00  0.00    +0.000 A 
ATOM     26  N   UNL     1       8.732  14.037  19.758  0.00  0.00    +0.000 N 
ATOM     27  C   UNL     1       8.733  13.753  21.108  0.00  0.00    +0.000 A 
ATOM     28  C   UNL     1       8.734  14.596  22.212  0.00  0.00    +0.000 A 
ATOM     29  C   UNL     1       8.670  13.973  23.453  0.00  0.00    +0.000 A 
ATOM     30  C   UNL     1       8.465  12.592  23.552  0.00  0.00    +0.000 A 
ATOM     31  C   UNL     1       8.490  11.762  22.416  0.00  0.00    +0.000 A 
ATOM     32  C   UNL     1       8.780  12.360  21.177  0.00  0.00    +0.000 A 
ATOM     33  H   UNL     1       7.843  14.193  19.303  0.00  0.00    +0.000 HD
ENDBRANCH  23  24
ENDBRANCH  22  23
ENDBRANCH  20  22
ENDBRANCH   1  19
TORSDOF 8
ENDMDL
