MODEL 1
REMARK VINA RESULT:      -9.4      0.000      0.000
REMARK  Name = 
REMARK  9 active torsions:
REMARK  status: ('A' for Active; 'I' for Inactive)
REMARK    1  A    between atoms: C_1  and  C_2
REMARK    2  A    between atoms: C_6  and  O_7
REMARK    3  A    between atoms: O_7  and  C_8
REMARK    4  A    between atoms: C_8  and  C_9
REMARK    5  A    between atoms: C_9  and  O_10
REMARK    6  A    between atoms: C_9  and  C_11
REMARK    7  A    between atoms: C_11  and  N_12
REMARK    8  A    between atoms: C_16  and  C_17
REMARK    9  A    between atoms: C_16  and  C_18
REMARK                            x       y       z     vdW  Elec       q    Type
REMARK                         _______ _______ _______ _____ _____    ______ ____
ROOT
ATOM      1  N   UNL     1       7.186   6.168  17.430  0.00  0.00    +0.000 N 
ATOM      2  C   UNL     1       7.377   5.205  18.378  0.00  0.00    +0.000 C 
ATOM      3  O   UNL     1       8.092   5.251  19.364  0.00  0.00    +0.000 OA
ATOM      4  N   UNL     1       6.634   4.095  18.004  0.00  0.00    +0.000 N 
ATOM      5  C   UNL     1       5.626   4.466  17.024  0.00  0.00    +0.000 C 
ATOM      6  C   UNL     1       5.259   3.422  15.983  0.00  0.00    +0.000 C 
ATOM      7  C   UNL     1       6.521   5.598  16.394  0.00  0.00    +0.000 C 
ATOM      8  O   UNL     1       6.453   6.038  15.252  0.00  0.00    +0.000 OA
ATOM      9  H   UNL     1       6.602   3.285  18.608  0.00  0.00    +0.000 HD
ENDROOT
BRANCH   5  10
ATOM     10  C   UNL     1       4.388   5.195  17.623  0.00  0.00    +0.000 A 
ATOM     11  C   UNL     1       4.103   6.431  16.987  0.00  0.00    +0.000 A 
ATOM     12  C   UNL     1       3.440   7.446  17.649  0.00  0.00    +0.000 A 
ATOM     13  C   UNL     1       2.848   7.179  18.863  0.00  0.00    +0.000 A 
ATOM     14  C   UNL     1       2.813   5.877  19.360  0.00  0.00    +0.000 A 
ATOM     15  C   UNL     1       1.936   5.641  20.415  0.00  0.00    +0.000 A 
ATOM     16  C   UNL     1       1.871   4.396  21.020  0.00  0.00    +0.000 A 
ATOM     17  C   UNL     1       2.733   3.395  20.596  0.00  0.00    +0.000 A 
ATOM     18  C   UNL     1       3.607   3.612  19.507  0.00  0.00    +0.000 A 
ATOM     19  C   UNL     1       3.643   4.853  18.808  0.00  0.00    +0.000 A 
ENDBRANCH   5  10
BRANCH   1  20
ATOM     20  C   UNL     1       7.116   7.614  17.600  0.00  0.00    +0.000 C 
BRANCH  20  21
ATOM     21  C   UNL     1       8.401   8.406  17.901  0.00  0.00    +0.000 C 
BRANCH  21  22
ATOM     22  O   UNL     1       8.859   8.013  19.211  0.00  0.00    +0.000 OA
ATOM     23  H   UNL     1       8.838   7.043  19.270  0.00  0.00    +0.000 HD
ENDBRANCH  21  22
BRANCH  21  24
ATOM     24  C   UNL     1       8.085   9.901  17.863  0.00  0.00    +0.000 C 
BRANCH  24  25
ATOM     25  O   UNL     1       8.449  10.582  19.069  0.00  0.00    +0.000 OA
BRANCH  25  31
ATOM     26  C   UNL     1      11.447  13.388  16.427  0.00  0.00    +0.000 C 
ATOM     27  C   UNL     1      11.156  12.616  17.681  0.00  0.00    +0.000 A 
ATOM     28  C   UNL     1      12.092  12.598  18.721  0.00  0.00    +0.000 A 
ATOM     29  C   UNL     1      11.823  11.900  19.893  0.00  0.00    +0.000 A 
ATOM     30  C   UNL     1      10.617  11.213  20.033  0.00  0.00    +0.000 A 
ATOM     31  C   UNL     1       9.668  11.220  19.012  0.00  0.00    +0.000 A 
ATOM     32  C   UNL     1       9.945  11.920  17.831  0.00  0.00    +0.000 A 
ENDBRANCH  25  31
ENDBRANCH  24  25
ENDBRANCH  21  24
ENDBRANCH  20  21
ENDBRANCH   1  20
TORSDOF 7
ENDMDL
MODEL 2
REMARK VINA RESULT:      -9.2      0.885      1.147
REMARK  Name = 
REMARK  9 active torsions:
REMARK  status: ('A' for Active; 'I' for Inactive)
REMARK    1  A    between atoms: C_1  and  C_2
REMARK    2  A    between atoms: C_6  and  O_7
REMARK    3  A    between atoms: O_7  and  C_8
REMARK    4  A    between atoms: C_8  and  C_9
REMARK    5  A    between atoms: C_9  and  O_10
REMARK    6  A    between atoms: C_9  and  C_11
REMARK    7  A    between atoms: C_11  and  N_12
REMARK    8  A    between atoms: C_16  and  C_17
REMARK    9  A    between atoms: C_16  and  C_18
REMARK                            x       y       z     vdW  Elec       q    Type
REMARK                         _______ _______ _______ _____ _____    ______ ____
ROOT
ATOM      1  N   UNL     1       7.161   6.208  17.476  0.00  0.00    +0.000 N 
ATOM      2  C   UNL     1       7.361   5.246  18.424  0.00  0.00    +0.000 C 
ATOM      3  O   UNL     1       8.074   5.300  19.412  0.00  0.00    +0.000 OA
ATOM      4  N   UNL     1       6.632   4.128  18.048  0.00  0.00    +0.000 N 
ATOM      5  C   UNL     1       5.622   4.489  17.066  0.00  0.00    +0.000 C 
ATOM      6  C   UNL     1       5.269   3.441  16.023  0.00  0.00    +0.000 C 
ATOM      7  C   UNL     1       6.505   5.631  16.439  0.00  0.00    +0.000 C 
ATOM      8  O   UNL     1       6.434   6.072  15.297  0.00  0.00    +0.000 OA
ATOM      9  H   UNL     1       6.609   3.318  18.650  0.00  0.00    +0.000 HD
ENDROOT
BRANCH   5  10
ATOM     10  C   UNL     1       4.375   5.202  17.663  0.00  0.00    +0.000 A 
ATOM     11  C   UNL     1       4.077   6.435  17.028  0.00  0.00    +0.000 A 
ATOM     12  C   UNL     1       3.401   7.442  17.690  0.00  0.00    +0.000 A 
ATOM     13  C   UNL     1       2.808   7.166  18.902  0.00  0.00    +0.000 A 
ATOM     14  C   UNL     1       2.788   5.864  19.396  0.00  0.00    +0.000 A 
ATOM     15  C   UNL     1       1.910   5.616  20.450  0.00  0.00    +0.000 A 
ATOM     16  C   UNL     1       1.858   4.369  21.052  0.00  0.00    +0.000 A 
ATOM     17  C   UNL     1       2.733   3.378  20.629  0.00  0.00    +0.000 A 
ATOM     18  C   UNL     1       3.607   3.607  19.542  0.00  0.00    +0.000 A 
ATOM     19  C   UNL     1       3.630   4.850  18.845  0.00  0.00    +0.000 A 
ENDBRANCH   5  10
BRANCH   1  20
ATOM     20  C   UNL     1       7.073   7.653  17.648  0.00  0.00    +0.000 C 
BRANCH  20  21
ATOM     21  C   UNL     1       8.357   8.468  17.890  0.00  0.00    +0.000 C 
BRANCH  21  22
ATOM     22  O   UNL     1       8.854   8.119  19.198  0.00  0.00    +0.000 OA
ATOM     23  H   UNL     1       8.228   7.506  19.616  0.00  0.00    +0.000 HD
ENDBRANCH  21  22
BRANCH  21  24
ATOM     24  C   UNL     1       8.023   9.958  17.815  0.00  0.00    +0.000 C 
BRANCH  24  25
ATOM     25  O   UNL     1       8.692  10.733  18.815  0.00  0.00    +0.000 OA
BRANCH  25  31
ATOM     26  C   UNL     1       9.055  15.537  18.027  0.00  0.00    +0.000 C 
ATOM     27  C   UNL     1       9.630  14.155  17.922  0.00  0.00    +0.000 A 
ATOM     28  C   UNL     1      10.899  13.969  17.363  0.00  0.00    +0.000 A 
ATOM     29  C   UNL     1      11.447  12.694  17.278  0.00  0.00    +0.000 A 
ATOM     30  C   UNL     1      10.730  11.595  17.750  0.00  0.00    +0.000 A 
ATOM     31  C   UNL     1       9.464  11.756  18.314  0.00  0.00    +0.000 A 
ATOM     32  C   UNL     1       8.914  13.042  18.393  0.00  0.00    +0.000 A 
ENDBRANCH  25  31
ENDBRANCH  24  25
ENDBRANCH  21  24
ENDBRANCH  20  21
ENDBRANCH   1  20
TORSDOF 7
ENDMDL
MODEL 3
REMARK VINA RESULT:      -9.0      0.897      1.113
REMARK  Name = 
REMARK  9 active torsions:
REMARK  status: ('A' for Active; 'I' for Inactive)
REMARK    1  A    between atoms: C_1  and  C_2
REMARK    2  A    between atoms: C_6  and  O_7
REMARK    3  A    between atoms: O_7  and  C_8
REMARK    4  A    between atoms: C_8  and  C_9
REMARK    5  A    between atoms: C_9  and  O_10
REMARK    6  A    between atoms: C_9  and  C_11
REMARK    7  A    between atoms: C_11  and  N_12
REMARK    8  A    between atoms: C_16  and  C_17
REMARK    9  A    between atoms: C_16  and  C_18
REMARK                            x       y       z     vdW  Elec       q    Type
REMARK                         _______ _______ _______ _____ _____    ______ ____
ROOT
ATOM      1  N   UNL     1       7.094   6.169  17.415  0.00  0.00    +0.000 N 
ATOM      2  C   UNL     1       7.300   5.179  18.332  0.00  0.00    +0.000 C 
ATOM      3  O   UNL     1       8.033   5.195  19.306  0.00  0.00    +0.000 OA
ATOM      4  N   UNL     1       6.548   4.081  17.940  0.00  0.00    +0.000 N 
ATOM      5  C   UNL     1       5.523   4.482  16.989  0.00  0.00    +0.000 C 
ATOM      6  C   UNL     1       5.136   3.469  15.926  0.00  0.00    +0.000 C 
ATOM      7  C   UNL     1       6.409   5.630  16.376  0.00  0.00    +0.000 C 
ATOM      8  O   UNL     1       6.321   6.103  15.248  0.00  0.00    +0.000 OA
ATOM      9  H   UNL     1       6.526   3.254  18.520  0.00  0.00    +0.000 HD
ENDROOT
BRANCH   5  10
ATOM     10  C   UNL     1       4.298   5.194  17.631  0.00  0.00    +0.000 A 
ATOM     11  C   UNL     1       4.000   6.445  17.032  0.00  0.00    +0.000 A 
ATOM     12  C   UNL     1       3.351   7.443  17.733  0.00  0.00    +0.000 A 
ATOM     13  C   UNL     1       2.783   7.145  18.951  0.00  0.00    +0.000 A 
ATOM     14  C   UNL     1       2.759   5.832  19.416  0.00  0.00    +0.000 A 
ATOM     15  C   UNL     1       1.903   5.569  20.483  0.00  0.00    +0.000 A 
ATOM     16  C   UNL     1       1.851   4.309  21.057  0.00  0.00    +0.000 A 
ATOM     17  C   UNL     1       2.704   3.319  20.591  0.00  0.00    +0.000 A 
ATOM     18  C   UNL     1       3.556   3.564  19.490  0.00  0.00    +0.000 A 
ATOM     19  C   UNL     1       3.577   4.823  18.822  0.00  0.00    +0.000 A 
ENDBRANCH   5  10
BRANCH   1  20
ATOM     20  C   UNL     1       7.029   7.609  17.629  0.00  0.00    +0.000 C 
BRANCH  20  21
ATOM     21  C   UNL     1       8.325   8.395  17.906  0.00  0.00    +0.000 C 
BRANCH  21  22
ATOM     22  O   UNL     1       8.869   7.910  19.151  0.00  0.00    +0.000 OA
ATOM     23  H   UNL     1       8.214   8.053  19.854  0.00  0.00    +0.000 HD
ENDBRANCH  21  22
BRANCH  21  24
ATOM     24  C   UNL     1       7.993   9.884  18.002  0.00  0.00    +0.000 C 
BRANCH  24  25
ATOM     25  O   UNL     1       9.131  10.726  17.789  0.00  0.00    +0.000 OA
BRANCH  25  31
ATOM     26  C   UNL     1      11.097  14.897  19.392  0.00  0.00    +0.000 C 
ATOM     27  C   UNL     1      10.481  13.558  19.672  0.00  0.00    +0.000 A 
ATOM     28  C   UNL     1      10.281  13.145  20.994  0.00  0.00    +0.000 A 
ATOM     29  C   UNL     1       9.695  11.913  21.263  0.00  0.00    +0.000 A 
ATOM     30  C   UNL     1       9.307  11.083  20.212  0.00  0.00    +0.000 A 
ATOM     31  C   UNL     1       9.494  11.474  18.886  0.00  0.00    +0.000 A 
ATOM     32  C   UNL     1      10.089  12.714  18.620  0.00  0.00    +0.000 A 
ENDBRANCH  25  31
ENDBRANCH  24  25
ENDBRANCH  21  24
ENDBRANCH  20  21
ENDBRANCH   1  20
TORSDOF 7
ENDMDL
MODEL 4
REMARK VINA RESULT:      -8.8      1.250      1.855
REMARK  Name = 
REMARK  9 active torsions:
REMARK  status: ('A' for Active; 'I' for Inactive)
REMARK    1  A    between atoms: C_1  and  C_2
REMARK    2  A    between atoms: C_6  and  O_7
REMARK    3  A    between atoms: O_7  and  C_8
REMARK    4  A    between atoms: C_8  and  C_9
REMARK    5  A    between atoms: C_9  and  O_10
REMARK    6  A    between atoms: C_9  and  C_11
REMARK    7  A    between atoms: C_11  and  N_12
REMARK    8  A    between atoms: C_16  and  C_17
REMARK    9  A    between atoms: C_16  and  C_18
REMARK                            x       y       z     vdW  Elec       q    Type
REMARK                         _______ _______ _______ _____ _____    ______ ____
ROOT
ATOM      1  N   UNL     1       6.763   5.957  17.121  0.00  0.00    +0.000 N 
ATOM      2  C   UNL     1       7.046   4.788  17.768  0.00  0.00    +0.000 C 
ATOM      3  O   UNL     1       7.920   4.575  18.591  0.00  0.00    +0.000 OA
ATOM      4  N   UNL     1       6.177   3.821  17.284  0.00  0.00    +0.000 N 
ATOM      5  C   UNL     1       5.045   4.444  16.617  0.00  0.00    +0.000 C 
ATOM      6  C   UNL     1       4.437   3.693  15.445  0.00  0.00    +0.000 C 
ATOM      7  C   UNL     1       5.895   5.671  16.119  0.00  0.00    +0.000 C 
ATOM      8  O   UNL     1       5.665   6.377  15.143  0.00  0.00    +0.000 OA
ATOM      9  H   UNL     1       6.193   2.890  17.677  0.00  0.00    +0.000 HD
ENDROOT
BRANCH   5  10
ATOM     10  C   UNL     1       3.979   5.036  17.583  0.00  0.00    +0.000 A 
ATOM     11  C   UNL     1       3.568   6.347  17.229  0.00  0.00    +0.000 A 
ATOM     12  C   UNL     1       3.079   7.229  18.173  0.00  0.00    +0.000 A 
ATOM     13  C   UNL     1       2.771   6.761  19.431  0.00  0.00    +0.000 A 
ATOM     14  C   UNL     1       2.839   5.398  19.712  0.00  0.00    +0.000 A 
ATOM     15  C   UNL     1       2.219   4.977  20.886  0.00  0.00    +0.000 A 
ATOM     16  C   UNL     1       2.281   3.651  21.286  0.00  0.00    +0.000 A 
ATOM     17  C   UNL     1       3.018   2.752  20.529  0.00  0.00    +0.000 A 
ATOM     18  C   UNL     1       3.627   3.159  19.321  0.00  0.00    +0.000 A 
ATOM     19  C   UNL     1       3.516   4.495  18.836  0.00  0.00    +0.000 A 
ENDBRANCH   5  10
BRANCH   1  20
ATOM     20  C   UNL     1       6.821   7.319  17.636  0.00  0.00    +0.000 C 
BRANCH  20  21
ATOM     21  C   UNL     1       8.190   7.980  17.884  0.00  0.00    +0.000 C 
BRANCH  21  22
ATOM     22  O   UNL     1       8.669   7.520  19.164  0.00  0.00    +0.000 OA
ATOM     23  H   UNL     1       9.608   7.288  19.080  0.00  0.00    +0.000 HD
ENDBRANCH  21  22
BRANCH  21  24
ATOM     24  C   UNL     1       8.018   9.498  17.881  0.00  0.00    +0.000 C 
BRANCH  24  25
ATOM     25  O   UNL     1       9.257  10.203  18.004  0.00  0.00    +0.000 OA
BRANCH  25  31
ATOM     26  C   UNL     1       9.507  13.024  21.981  0.00  0.00    +0.000 C 
ATOM     27  C   UNL     1       9.260  12.871  20.509  0.00  0.00    +0.000 A 
ATOM     28  C   UNL     1       8.952  13.993  19.733  0.00  0.00    +0.000 A 
ATOM     29  C   UNL     1       8.738  13.864  18.366  0.00  0.00    +0.000 A 
ATOM     30  C   UNL     1       8.828  12.609  17.764  0.00  0.00    +0.000 A 
ATOM     31  C   UNL     1       9.137  11.475  18.516  0.00  0.00    +0.000 A 
ATOM     32  C   UNL     1       9.346  11.610  19.894  0.00  0.00    +0.000 A 
ENDBRANCH  25  31
ENDBRANCH  24  25
ENDBRANCH  21  24
ENDBRANCH  20  21
ENDBRANCH   1  20
TORSDOF 7
ENDMDL
MODEL 5
REMARK VINA RESULT:      -8.7      1.277      1.754
REMARK  Name = 
REMARK  9 active torsions:
REMARK  status: ('A' for Active; 'I' for Inactive)
REMARK    1  A    between atoms: C_1  and  C_2
REMARK    2  A    between atoms: C_6  and  O_7
REMARK    3  A    between atoms: O_7  and  C_8
REMARK    4  A    between atoms: C_8  and  C_9
REMARK    5  A    between atoms: C_9  and  O_10
REMARK    6  A    between atoms: C_9  and  C_11
REMARK    7  A    between atoms: C_11  and  N_12
REMARK    8  A    between atoms: C_16  and  C_17
REMARK    9  A    between atoms: C_16  and  C_18
REMARK                            x       y       z     vdW  Elec       q    Type
REMARK                         _______ _______ _______ _____ _____    ______ ____
ROOT
ATOM      1  N   UNL     1       7.177   6.198  17.463  0.00  0.00    +0.000 N 
ATOM      2  C   UNL     1       7.377   5.240  18.415  0.00  0.00    +0.000 C 
ATOM      3  O   UNL     1       8.085   5.299  19.406  0.00  0.00    +0.000 OA
ATOM      4  N   UNL     1       6.655   4.117  18.038  0.00  0.00    +0.000 N 
ATOM      5  C   UNL     1       5.648   4.470  17.050  0.00  0.00    +0.000 C 
ATOM      6  C   UNL     1       5.306   3.418  16.008  0.00  0.00    +0.000 C 
ATOM      7  C   UNL     1       6.528   5.615  16.424  0.00  0.00    +0.000 C 
ATOM      8  O   UNL     1       6.461   6.053  15.281  0.00  0.00    +0.000 OA
ATOM      9  H   UNL     1       6.633   3.308  18.642  0.00  0.00    +0.000 HD
ENDROOT
BRANCH   5  10
ATOM     10  C   UNL     1       4.394   5.178  17.639  0.00  0.00    +0.000 A 
ATOM     11  C   UNL     1       4.098   6.412  17.005  0.00  0.00    +0.000 A 
ATOM     12  C   UNL     1       3.414   7.415  17.664  0.00  0.00    +0.000 A 
ATOM     13  C   UNL     1       2.813   7.135  18.871  0.00  0.00    +0.000 A 
ATOM     14  C   UNL     1       2.792   5.831  19.362  0.00  0.00    +0.000 A 
ATOM     15  C   UNL     1       1.907   5.578  20.408  0.00  0.00    +0.000 A 
ATOM     16  C   UNL     1       1.854   4.329  21.006  0.00  0.00    +0.000 A 
ATOM     17  C   UNL     1       2.734   3.342  20.588  0.00  0.00    +0.000 A 
ATOM     18  C   UNL     1       3.616   3.576  19.508  0.00  0.00    +0.000 A 
ATOM     19  C   UNL     1       3.642   4.821  18.815  0.00  0.00    +0.000 A 
ENDBRANCH   5  10
BRANCH   1  20
ATOM     20  C   UNL     1       7.080   7.643  17.631  0.00  0.00    +0.000 C 
BRANCH  20  21
ATOM     21  C   UNL     1       8.357   8.463  17.894  0.00  0.00    +0.000 C 
BRANCH  21  22
ATOM     22  O   UNL     1       8.844   8.103  19.203  0.00  0.00    +0.000 OA
ATOM     23  H   UNL     1       8.373   7.308  19.502  0.00  0.00    +0.000 HD
ENDBRANCH  21  22
BRANCH  21  24
ATOM     24  C   UNL     1       8.013   9.952  17.834  0.00  0.00    +0.000 C 
BRANCH  24  25
ATOM     25  O   UNL     1       9.171  10.794  17.832  0.00  0.00    +0.000 OA
BRANCH  25  31
ATOM     26  C   UNL     1      10.527  14.917  20.069  0.00  0.00    +0.000 C 
ATOM     27  C   UNL     1       9.584  14.177  19.165  0.00  0.00    +0.000 A 
ATOM     28  C   UNL     1       8.517  14.854  18.566  0.00  0.00    +0.000 A 
ATOM     29  C   UNL     1       7.649  14.181  17.713  0.00  0.00    +0.000 A 
ATOM     30  C   UNL     1       7.841  12.824  17.456  0.00  0.00    +0.000 A 
ATOM     31  C   UNL     1       8.900  12.127  18.039  0.00  0.00    +0.000 A 
ATOM     32  C   UNL     1       9.768  12.809  18.901  0.00  0.00    +0.000 A 
ENDBRANCH  25  31
ENDBRANCH  24  25
ENDBRANCH  21  24
ENDBRANCH  20  21
ENDBRANCH   1  20
TORSDOF 7
ENDMDL
MODEL 6
REMARK VINA RESULT:      -8.7      1.210      2.492
REMARK  Name = 
REMARK  9 active torsions:
REMARK  status: ('A' for Active; 'I' for Inactive)
REMARK    1  A    between atoms: C_1  and  C_2
REMARK    2  A    between atoms: C_6  and  O_7
REMARK    3  A    between atoms: O_7  and  C_8
REMARK    4  A    between atoms: C_8  and  C_9
REMARK    5  A    between atoms: C_9  and  O_10
REMARK    6  A    between atoms: C_9  and  C_11
REMARK    7  A    between atoms: C_11  and  N_12
REMARK    8  A    between atoms: C_16  and  C_17
REMARK    9  A    between atoms: C_16  and  C_18
REMARK                            x       y       z     vdW  Elec       q    Type
REMARK                         _______ _______ _______ _____ _____    ______ ____
ROOT
ATOM      1  N   UNL     1       6.520   6.043  17.185  0.00  0.00    +0.000 N 
ATOM      2  C   UNL     1       6.921   4.859  17.735  0.00  0.00    +0.000 C 
ATOM      3  O   UNL     1       7.985   4.600  18.270  0.00  0.00    +0.000 OA
ATOM      4  N   UNL     1       5.901   3.940  17.539  0.00  0.00    +0.000 N 
ATOM      5  C   UNL     1       4.656   4.622  17.224  0.00  0.00    +0.000 C 
ATOM      6  C   UNL     1       3.695   3.907  16.290  0.00  0.00    +0.000 C 
ATOM      7  C   UNL     1       5.383   5.806  16.484  0.00  0.00    +0.000 C 
ATOM      8  O   UNL     1       4.913   6.525  15.610  0.00  0.00    +0.000 OA
ATOM      9  H   UNL     1       5.985   3.008  17.922  0.00  0.00    +0.000 HD
ENDROOT
BRANCH   5  10
ATOM     10  C   UNL     1       3.950   5.265  18.452  0.00  0.00    +0.000 A 
ATOM     11  C   UNL     1       3.961   4.436  19.603  0.00  0.00    +0.000 A 
ATOM     12  C   UNL     1       2.991   4.546  20.581  0.00  0.00    +0.000 A 
ATOM     13  C   UNL     1       2.133   5.623  20.554  0.00  0.00    +0.000 A 
ATOM     14  C   UNL     1       2.316   6.648  19.628  0.00  0.00    +0.000 A 
ATOM     15  C   UNL     1       1.618   7.829  19.867  0.00  0.00    +0.000 A 
ATOM     16  C   UNL     1       1.685   8.886  18.973  0.00  0.00    +0.000 A 
ATOM     17  C   UNL     1       2.414   8.735  17.802  0.00  0.00    +0.000 A 
ATOM     18  C   UNL     1       3.150   7.553  17.562  0.00  0.00    +0.000 A 
ATOM     19  C   UNL     1       3.172   6.477  18.497  0.00  0.00    +0.000 A 
ENDBRANCH   5  10
BRANCH   1  20
ATOM     20  C   UNL     1       6.793   7.399  17.644  0.00  0.00    +0.000 C 
BRANCH  20  21
ATOM     21  C   UNL     1       8.239   7.809  17.982  0.00  0.00    +0.000 C 
BRANCH  21  22
ATOM     22  O   UNL     1       8.577   7.205  19.247  0.00  0.00    +0.000 OA
ATOM     23  H   UNL     1       9.516   6.955  19.231  0.00  0.00    +0.000 HD
ENDBRANCH  21  22
BRANCH  21  24
ATOM     24  C   UNL     1       8.316   9.334  18.071  0.00  0.00    +0.000 C 
BRANCH  24  25
ATOM     25  O   UNL     1       8.983   9.792  19.252  0.00  0.00    +0.000 OA
BRANCH  25  31
ATOM     26  C   UNL     1      10.360  14.032  21.243  0.00  0.00    +0.000 C 
ATOM     27  C   UNL     1      10.366  13.076  20.087  0.00  0.00    +0.000 A 
ATOM     28  C   UNL     1      11.090  13.385  18.930  0.00  0.00    +0.000 A 
ATOM     29  C   UNL     1      11.116  12.497  17.861  0.00  0.00    +0.000 A 
ATOM     30  C   UNL     1      10.417  11.293  17.939  0.00  0.00    +0.000 A 
ATOM     31  C   UNL     1       9.690  10.961  19.083  0.00  0.00    +0.000 A 
ATOM     32  C   UNL     1       9.663  11.861  20.156  0.00  0.00    +0.000 A 
ENDBRANCH  25  31
ENDBRANCH  24  25
ENDBRANCH  21  24
ENDBRANCH  20  21
ENDBRANCH   1  20
TORSDOF 7
ENDMDL
MODEL 7
REMARK VINA RESULT:      -8.3      4.720      7.583
REMARK  Name = 
REMARK  9 active torsions:
REMARK  status: ('A' for Active; 'I' for Inactive)
REMARK    1  A    between atoms: C_1  and  C_2
REMARK    2  A    between atoms: C_6  and  O_7
REMARK    3  A    between atoms: O_7  and  C_8
REMARK    4  A    between atoms: C_8  and  C_9
REMARK    5  A    between atoms: C_9  and  O_10
REMARK    6  A    between atoms: C_9  and  C_11
REMARK    7  A    between atoms: C_11  and  N_12
REMARK    8  A    between atoms: C_16  and  C_17
REMARK    9  A    between atoms: C_16  and  C_18
REMARK                            x       y       z     vdW  Elec       q    Type
REMARK                         _______ _______ _______ _____ _____    ______ ____
ROOT
ATOM      1  N   UNL     1       2.112   4.393  19.106  0.00  0.00    +0.000 N 
ATOM      2  C   UNL     1       1.765   4.134  17.811  0.00  0.00    +0.000 C 
ATOM      3  O   UNL     1       0.985   4.749  17.103  0.00  0.00    +0.000 OA
ATOM      4  N   UNL     1       2.431   2.982  17.421  0.00  0.00    +0.000 N 
ATOM      5  C   UNL     1       3.539   2.707  18.322  0.00  0.00    +0.000 C 
ATOM      6  C   UNL     1       3.888   1.248  18.560  0.00  0.00    +0.000 C 
ATOM      7  C   UNL     1       2.799   3.319  19.569  0.00  0.00    +0.000 C 
ATOM      8  O   UNL     1       2.991   3.041  20.747  0.00  0.00    +0.000 OA
ATOM      9  H   UNL     1       2.345   2.649  16.471  0.00  0.00    +0.000 HD
ENDROOT
BRANCH   5  10
ATOM     10  C   UNL     1       4.789   3.605  18.093  0.00  0.00    +0.000 A 
ATOM     11  C   UNL     1       5.306   4.163  19.291  0.00  0.00    +0.000 A 
ATOM     12  C   UNL     1       6.021   5.345  19.286  0.00  0.00    +0.000 A 
ATOM     13  C   UNL     1       6.434   5.872  18.084  0.00  0.00    +0.000 A 
ATOM     14  C   UNL     1       6.239   5.165  16.899  0.00  0.00    +0.000 A 
ATOM     15  C   UNL     1       6.954   5.608  15.789  0.00  0.00    +0.000 A 
ATOM     16  C   UNL     1       6.784   5.011  14.550  0.00  0.00    +0.000 A 
ATOM     17  C   UNL     1       5.849   3.996  14.413  0.00  0.00    +0.000 A 
ATOM     18  C   UNL     1       5.138   3.517  15.536  0.00  0.00    +0.000 A 
ATOM     19  C   UNL     1       5.346   4.051  16.841  0.00  0.00    +0.000 A 
ENDBRANCH   5  10
BRANCH   1  20
ATOM     20  C   UNL     1       2.299   5.683  19.758  0.00  0.00    +0.000 C 
BRANCH  20  21
ATOM     21  C   UNL     1       2.055   6.979  18.962  0.00  0.00    +0.000 C 
BRANCH  21  22
ATOM     22  O   UNL     1       3.168   7.152  18.061  0.00  0.00    +0.000 OA
ATOM     23  H   UNL     1       3.889   7.596  18.538  0.00  0.00    +0.000 HD
ENDBRANCH  21  22
BRANCH  21  24
ATOM     24  C   UNL     1       1.959   8.152  19.938  0.00  0.00    +0.000 C 
BRANCH  24  25
ATOM     25  O   UNL     1       1.099   7.886  21.050  0.00  0.00    +0.000 OA
BRANCH  25  31
ATOM     26  C   UNL     1      -1.093  12.063  19.795  0.00  0.00    +0.000 C 
ATOM     27  C   UNL     1      -0.706  11.062  20.843  0.00  0.00    +0.000 A 
ATOM     28  C   UNL     1      -1.101  11.255  22.171  0.00  0.00    +0.000 A 
ATOM     29  C   UNL     1      -0.762  10.324  23.146  0.00  0.00    +0.000 A 
ATOM     30  C   UNL     1      -0.023   9.193  22.801  0.00  0.00    +0.000 A 
ATOM     31  C   UNL     1       0.380   8.977  21.483  0.00  0.00    +0.000 A 
ATOM     32  C   UNL     1       0.040   9.920  20.505  0.00  0.00    +0.000 A 
ENDBRANCH  25  31
ENDBRANCH  24  25
ENDBRANCH  21  24
ENDBRANCH  20  21
ENDBRANCH   1  20
TORSDOF 7
ENDMDL
MODEL 8
REMARK VINA RESULT:      -8.3      6.360      9.948
REMARK  Name = 
REMARK  9 active torsions:
REMARK  status: ('A' for Active; 'I' for Inactive)
REMARK    1  A    between atoms: C_1  and  C_2
REMARK    2  A    between atoms: C_6  and  O_7
REMARK    3  A    between atoms: O_7  and  C_8
REMARK    4  A    between atoms: C_8  and  C_9
REMARK    5  A    between atoms: C_9  and  O_10
REMARK    6  A    between atoms: C_9  and  C_11
REMARK    7  A    between atoms: C_11  and  N_12
REMARK    8  A    between atoms: C_16  and  C_17
REMARK    9  A    between atoms: C_16  and  C_18
REMARK                            x       y       z     vdW  Elec       q    Type
REMARK                         _______ _______ _______ _____ _____    ______ ____
ROOT
ATOM      1  N   UNL     1       0.647  10.244  19.949  0.00  0.00    +0.000 N 
ATOM      2  C   UNL     1       1.207  10.275  18.705  0.00  0.00    +0.000 C 
ATOM      3  O   UNL     1       1.905   9.429  18.172  0.00  0.00    +0.000 OA
ATOM      4  N   UNL     1       0.885  11.496  18.130  0.00  0.00    +0.000 N 
ATOM      5  C   UNL     1      -0.234  12.107  18.831  0.00  0.00    +0.000 C 
ATOM      6  C   UNL     1      -0.258  13.624  18.899  0.00  0.00    +0.000 C 
ATOM      7  C   UNL     1       0.177  11.488  20.219  0.00  0.00    +0.000 C 
ATOM      8  O   UNL     1      -0.094  11.931  21.330  0.00  0.00    +0.000 OA
ATOM      9  H   UNL     1       1.167  11.694  17.180  0.00  0.00    +0.000 HD
ENDROOT
BRANCH   5  10
ATOM     10  C   UNL     1      -1.619  11.488  18.489  0.00  0.00    +0.000 A 
ATOM     11  C   UNL     1      -1.568  10.555  17.421  0.00  0.00    +0.000 A 
ATOM     12  C   UNL     1      -2.672  10.304  16.629  0.00  0.00    +0.000 A 
ATOM     13  C   UNL     1      -3.899  10.791  17.018  0.00  0.00    +0.000 A 
ATOM     14  C   UNL     1      -4.048  11.425  18.250  0.00  0.00    +0.000 A 
ATOM     15  C   UNL     1      -5.354  11.601  18.701  0.00  0.00    +0.000 A 
ATOM     16  C   UNL     1      -5.612  12.274  19.884  0.00  0.00    +0.000 A 
ATOM     17  C   UNL     1      -4.553  12.822  20.593  0.00  0.00    +0.000 A 
ATOM     18  C   UNL     1      -3.222  12.625  20.163  0.00  0.00    +0.000 A 
ATOM     19  C   UNL     1      -2.913  11.869  18.995  0.00  0.00    +0.000 A 
ENDBRANCH   5  10
BRANCH   1  20
ATOM     20  C   UNL     1       0.080   9.109  20.666  0.00  0.00    +0.000 C 
BRANCH  20  21
ATOM     21  C   UNL     1       1.009   8.177  21.468  0.00  0.00    +0.000 C 
BRANCH  21  22
ATOM     22  O   UNL     1       1.985   9.005  22.134  0.00  0.00    +0.000 OA
ATOM     23  H   UNL     1       2.724   9.167  21.525  0.00  0.00    +0.000 HD
ENDBRANCH  21  22
BRANCH  21  24
ATOM     24  C   UNL     1       1.690   7.204  20.506  0.00  0.00    +0.000 C 
BRANCH  24  25
ATOM     25  O   UNL     1       1.875   5.900  21.066  0.00  0.00    +0.000 OA
BRANCH  25  31
ATOM     26  C   UNL     1       3.760   3.922  17.021  0.00  0.00    +0.000 C 
ATOM     27  C   UNL     1       2.748   3.901  18.128  0.00  0.00    +0.000 A 
ATOM     28  C   UNL     1       1.815   2.861  18.201  0.00  0.00    +0.000 A 
ATOM     29  C   UNL     1       0.885   2.824  19.233  0.00  0.00    +0.000 A 
ATOM     30  C   UNL     1       0.879   3.829  20.200  0.00  0.00    +0.000 A 
ATOM     31  C   UNL     1       1.800   4.875  20.150  0.00  0.00    +0.000 A 
ATOM     32  C   UNL     1       2.732   4.910  19.105  0.00  0.00    +0.000 A 
ENDBRANCH  25  31
ENDBRANCH  24  25
ENDBRANCH  21  24
ENDBRANCH  20  21
ENDBRANCH   1  20
TORSDOF 7
ENDMDL
MODEL 9
REMARK VINA RESULT:      -8.2      6.794     10.372
REMARK  Name = 
REMARK  9 active torsions:
REMARK  status: ('A' for Active; 'I' for Inactive)
REMARK    1  A    between atoms: C_1  and  C_2
REMARK    2  A    between atoms: C_6  and  O_7
REMARK    3  A    between atoms: O_7  and  C_8
REMARK    4  A    between atoms: C_8  and  C_9
REMARK    5  A    between atoms: C_9  and  O_10
REMARK    6  A    between atoms: C_9  and  C_11
REMARK    7  A    between atoms: C_11  and  N_12
REMARK    8  A    between atoms: C_16  and  C_17
REMARK    9  A    between atoms: C_16  and  C_18
REMARK                            x       y       z     vdW  Elec       q    Type
REMARK                         _______ _______ _______ _____ _____    ______ ____
ROOT
ATOM      1  N   UNL     1       0.253  10.551  20.053  0.00  0.00    +0.000 N 
ATOM      2  C   UNL     1       0.337  10.539  18.690  0.00  0.00    +0.000 C 
ATOM      3  O   UNL     1       0.647   9.611  17.963  0.00  0.00    +0.000 OA
ATOM      4  N   UNL     1       0.047  11.819  18.242  0.00  0.00    +0.000 N 
ATOM      5  C   UNL     1      -0.631  12.579  19.279  0.00  0.00    +0.000 C 
ATOM      6  C   UNL     1      -0.370  14.075  19.320  0.00  0.00    +0.000 C 
ATOM      7  C   UNL     1       0.128  11.843  20.445  0.00  0.00    +0.000 C 
ATOM      8  O   UNL     1       0.345  12.278  21.571  0.00  0.00    +0.000 OA
ATOM      9  H   UNL     1       0.007  12.007  17.249  0.00  0.00    +0.000 HD
ENDROOT
BRANCH   5  10
ATOM     10  C   UNL     1      -2.133  12.215  19.461  0.00  0.00    +0.000 A 
ATOM     11  C   UNL     1      -2.690  11.556  18.335  0.00  0.00    +0.000 A 
ATOM     12  C   UNL     1      -4.042  11.620  18.058  0.00  0.00    +0.000 A 
ATOM     13  C   UNL     1      -4.896  12.139  19.005  0.00  0.00    +0.000 A 
ATOM     14  C   UNL     1      -4.422  12.482  20.270  0.00  0.00    +0.000 A 
ATOM     15  C   UNL     1      -5.383  12.694  21.255  0.00  0.00    +0.000 A 
ATOM     16  C   UNL     1      -5.018  13.098  22.529  0.00  0.00    +0.000 A 
ATOM     17  C   UNL     1      -3.680  13.345  22.801  0.00  0.00    +0.000 A 
ATOM     18  C   UNL     1      -2.691  13.105  21.820  0.00  0.00    +0.000 A 
ATOM     19  C   UNL     1      -3.022  12.611  20.524  0.00  0.00    +0.000 A 
ENDBRANCH   5  10
BRANCH   1  20
ATOM     20  C   UNL     1      -0.211   9.497  20.946  0.00  0.00    +0.000 C 
BRANCH  20  21
ATOM     21  C   UNL     1       0.813   8.695  21.771  0.00  0.00    +0.000 C 
BRANCH  21  22
ATOM     22  O   UNL     1       1.625   9.642  22.496  0.00  0.00    +0.000 OA
ATOM     23  H   UNL     1       1.766  10.423  21.936  0.00  0.00    +0.000 HD
ENDBRANCH  21  22
BRANCH  21  24
ATOM     24  C   UNL     1       1.672   7.859  20.822  0.00  0.00    +0.000 C 
BRANCH  24  25
ATOM     25  O   UNL     1       1.554   6.452  21.054  0.00  0.00    +0.000 OA
BRANCH  25  31
ATOM     26  C   UNL     1       0.799   2.186  18.802  0.00  0.00    +0.000 C 
ATOM     27  C   UNL     1       1.449   3.537  18.843  0.00  0.00    +0.000 A 
ATOM     28  C   UNL     1       2.264   3.951  17.783  0.00  0.00    +0.000 A 
ATOM     29  C   UNL     1       2.857   5.208  17.804  0.00  0.00    +0.000 A 
ATOM     30  C   UNL     1       2.641   6.061  18.887  0.00  0.00    +0.000 A 
ATOM     31  C   UNL     1       1.831   5.672  19.954  0.00  0.00    +0.000 A 
ATOM     32  C   UNL     1       1.240   4.403  19.930  0.00  0.00    +0.000 A 
ENDBRANCH  25  31
ENDBRANCH  24  25
ENDBRANCH  21  24
ENDBRANCH  20  21
ENDBRANCH   1  20
TORSDOF 7
ENDMDL
