MODEL 1
REMARK VINA RESULT:      -8.6      0.000      0.000
REMARK  Name = 
REMARK  5 active torsions:
REMARK  status: ('A' for Active; 'I' for Inactive)
REMARK    1  A    between atoms: C_2  and  C_3
REMARK    2  A    between atoms: C_3  and  C_4
REMARK    3  A    between atoms: C_7  and  N_8
REMARK    4  A    between atoms: N_15  and  C_16
REMARK    5  A    between atoms: C_16  and  C_17
REMARK                            x       y       z     vdW  Elec       q    Type
REMARK                         _______ _______ _______ _____ _____    ______ ____
ROOT
ATOM      1  O   UNL     1       8.327   6.771  18.843  0.00  0.00    +0.000 OA
ATOM      2  C   UNL     1       7.853   7.600  18.061  0.00  0.00    +0.000 C 
ATOM      3  N   UNL     1       8.197   8.929  18.069  0.00  0.00    +0.000 N 
ATOM      4  H   UNL     1       7.754   9.561  17.418  0.00  0.00    +0.000 HD
ENDROOT
BRANCH   2   5
ATOM      5  C   UNL     1       6.805   7.223  17.022  0.00  0.00    +0.000 C 
BRANCH   5   6
ATOM      6  C   UNL     1       5.684   6.343  17.537  0.00  0.00    +0.000 A 
ATOM      7  C   UNL     1       4.362   6.809  17.489  0.00  0.00    +0.000 A 
ATOM      8  C   UNL     1       3.293   6.004  17.902  0.00  0.00    +0.000 A 
ATOM      9  C   UNL     1       3.532   4.707  18.373  0.00  0.00    +0.000 A 
ATOM     10  C   UNL     1       4.848   4.228  18.410  0.00  0.00    +0.000 A 
ATOM     11  C   UNL     1       5.911   5.032  17.982  0.00  0.00    +0.000 A 
BRANCH   9  12
ATOM     12  N   UNL     1       2.468   3.867  18.810  0.00  0.00    +0.000 N 
ATOM     13  C   UNL     1       1.646   3.061  18.048  0.00  0.00    +0.000 A 
ATOM     14  C   UNL     1       0.747   2.470  18.902  0.00  0.00    +0.000 A 
ATOM     15  C   UNL     1       1.096   2.957  20.169  0.00  0.00    +0.000 A 
ATOM     16  N   UNL     1       2.133   3.790  20.127  0.00  0.00    +0.000 NA
ENDBRANCH   9  12
ENDBRANCH   5   6
ENDBRANCH   2   5
BRANCH   3  17
ATOM     17  C   UNL     1       9.111   9.486  19.035  0.00  0.00    +0.000 C 
BRANCH  17  18
ATOM     18  C   UNL     1       9.497  10.909  18.718  0.00  0.00    +0.000 A 
ATOM     19  C   UNL     1       8.649  11.678  17.916  0.00  0.00    +0.000 A 
ATOM     20  C   UNL     1       9.051  12.935  17.468  0.00  0.00    +0.000 A 
ATOM     21  C   UNL     1      10.252  13.501  17.907  0.00  0.00    +0.000 A 
ATOM     22  C   UNL     1      10.649  14.762  17.452  0.00  0.00    +0.000 A 
ATOM     23  C   UNL     1      11.643  15.468  18.123  0.00  0.00    +0.000 A 
ATOM     24  C   UNL     1      12.333  14.859  19.167  0.00  0.00    +0.000 A 
ATOM     25  C   UNL     1      12.090  13.517  19.478  0.00  0.00    +0.000 A 
ATOM     26  C   UNL     1      11.029  12.818  18.869  0.00  0.00    +0.000 A 
ATOM     27  C   UNL     1      10.678  11.495  19.205  0.00  0.00    +0.000 A 
ENDBRANCH  17  18
ENDBRANCH   3  17
TORSDOF 5
ENDMDL
MODEL 2
REMARK VINA RESULT:      -8.5      2.120     10.585
REMARK  Name = 
REMARK  5 active torsions:
REMARK  status: ('A' for Active; 'I' for Inactive)
REMARK    1  A    between atoms: C_2  and  C_3
REMARK    2  A    between atoms: C_3  and  C_4
REMARK    3  A    between atoms: C_7  and  N_8
REMARK    4  A    between atoms: N_15  and  C_16
REMARK    5  A    between atoms: C_16  and  C_17
REMARK                            x       y       z     vdW  Elec       q    Type
REMARK                         _______ _______ _______ _____ _____    ______ ____
ROOT
ATOM      1  O   UNL     1       7.955   6.968  16.392  0.00  0.00    +0.000 OA
ATOM      2  C   UNL     1       7.496   7.307  17.486  0.00  0.00    +0.000 C 
ATOM      3  N   UNL     1       6.159   7.257  17.792  0.00  0.00    +0.000 N 
ATOM      4  H   UNL     1       5.844   7.572  18.698  0.00  0.00    +0.000 HD
ENDROOT
BRANCH   2   5
ATOM      5  C   UNL     1       8.381   7.849  18.600  0.00  0.00    +0.000 C 
BRANCH   5   6
ATOM      6  C   UNL     1       8.599   9.349  18.569  0.00  0.00    +0.000 A 
ATOM      7  C   UNL     1       9.418   9.948  19.537  0.00  0.00    +0.000 A 
ATOM      8  C   UNL     1       9.690  11.322  19.508  0.00  0.00    +0.000 A 
ATOM      9  C   UNL     1       9.144  12.125  18.499  0.00  0.00    +0.000 A 
ATOM     10  C   UNL     1       8.338  11.531  17.518  0.00  0.00    +0.000 A 
ATOM     11  C   UNL     1       8.082  10.155  17.544  0.00  0.00    +0.000 A 
BRANCH   9  12
ATOM     12  N   UNL     1       9.393  13.526  18.448  0.00  0.00    +0.000 N 
ATOM     13  C   UNL     1       8.780  14.530  19.170  0.00  0.00    +0.000 A 
ATOM     14  C   UNL     1       9.324  15.722  18.757  0.00  0.00    +0.000 A 
ATOM     15  C   UNL     1      10.271  15.357  17.789  0.00  0.00    +0.000 A 
ATOM     16  N   UNL     1      10.327  14.040  17.602  0.00  0.00    +0.000 NA
ENDBRANCH   9  12
ENDBRANCH   5   6
ENDBRANCH   2   5
BRANCH   3  17
ATOM     17  C   UNL     1       5.160   6.850  16.835  0.00  0.00    +0.000 C 
BRANCH  17  18
ATOM     18  C   UNL     1       4.251   5.770  17.366  0.00  0.00    +0.000 A 
ATOM     19  C   UNL     1       4.277   4.508  16.767  0.00  0.00    +0.000 A 
ATOM     20  C   UNL     1       3.339   3.539  17.121  0.00  0.00    +0.000 A 
ATOM     21  C   UNL     1       2.433   3.768  18.161  0.00  0.00    +0.000 A 
ATOM     22  C   UNL     1       1.493   2.793  18.509  0.00  0.00    +0.000 A 
ATOM     23  C   UNL     1       0.830   2.864  19.730  0.00  0.00    +0.000 A 
ATOM     24  C   UNL     1       1.006   3.978  20.545  0.00  0.00    +0.000 A 
ATOM     25  C   UNL     1       1.772   5.059  20.096  0.00  0.00    +0.000 A 
ATOM     26  C   UNL     1       2.520   4.966  18.905  0.00  0.00    +0.000 A 
ATOM     27  C   UNL     1       3.380   5.985  18.448  0.00  0.00    +0.000 A 
ENDBRANCH  17  18
ENDBRANCH   3  17
TORSDOF 5
ENDMDL
MODEL 3
REMARK VINA RESULT:      -8.5      0.485      1.042
REMARK  Name = 
REMARK  5 active torsions:
REMARK  status: ('A' for Active; 'I' for Inactive)
REMARK    1  A    between atoms: C_2  and  C_3
REMARK    2  A    between atoms: C_3  and  C_4
REMARK    3  A    between atoms: C_7  and  N_8
REMARK    4  A    between atoms: N_15  and  C_16
REMARK    5  A    between atoms: C_16  and  C_17
REMARK                            x       y       z     vdW  Elec       q    Type
REMARK                         _______ _______ _______ _____ _____    ______ ____
ROOT
ATOM      1  O   UNL     1       8.169   6.686  18.792  0.00  0.00    +0.000 OA
ATOM      2  C   UNL     1       7.801   7.506  17.948  0.00  0.00    +0.000 C 
ATOM      3  N   UNL     1       8.183   8.825  17.960  0.00  0.00    +0.000 N 
ATOM      4  H   UNL     1       7.828   9.452  17.252  0.00  0.00    +0.000 HD
ENDROOT
BRANCH   2   5
ATOM      5  C   UNL     1       6.853   7.132  16.816  0.00  0.00    +0.000 C 
BRANCH   5   6
ATOM      6  C   UNL     1       5.677   6.270  17.229  0.00  0.00    +0.000 A 
ATOM      7  C   UNL     1       5.847   4.883  17.351  0.00  0.00    +0.000 A 
ATOM      8  C   UNL     1       4.801   4.058  17.784  0.00  0.00    +0.000 A 
ATOM      9  C   UNL     1       3.558   4.614  18.108  0.00  0.00    +0.000 A 
ATOM     10  C   UNL     1       3.384   6.001  18.005  0.00  0.00    +0.000 A 
ATOM     11  C   UNL     1       4.438   6.821  17.585  0.00  0.00    +0.000 A 
BRANCH   9  12
ATOM     12  N   UNL     1       2.471   3.802  18.542  0.00  0.00    +0.000 N 
ATOM     13  C   UNL     1       2.100   2.554  18.082  0.00  0.00    +0.000 A 
ATOM     14  C   UNL     1       0.973   2.182  18.774  0.00  0.00    +0.000 A 
ATOM     15  C   UNL     1       0.728   3.253  19.645  0.00  0.00    +0.000 A 
ATOM     16  N   UNL     1       1.627   4.227  19.521  0.00  0.00    +0.000 NA
ENDBRANCH   9  12
ENDBRANCH   5   6
ENDBRANCH   2   5
BRANCH   3  17
ATOM     17  C   UNL     1       9.012   9.382  19.000  0.00  0.00    +0.000 C 
BRANCH  17  18
ATOM     18  C   UNL     1       9.330  10.838  18.774  0.00  0.00    +0.000 A 
ATOM     19  C   UNL     1       8.594  11.553  17.826  0.00  0.00    +0.000 A 
ATOM     20  C   UNL     1       8.967  12.849  17.474  0.00  0.00    +0.000 A 
ATOM     21  C   UNL     1      10.007  13.501  18.144  0.00  0.00    +0.000 A 
ATOM     22  C   UNL     1      10.378  14.800  17.783  0.00  0.00    +0.000 A 
ATOM     23  C   UNL     1      11.158  15.569  18.642  0.00  0.00    +0.000 A 
ATOM     24  C   UNL     1      11.680  14.996  19.797  0.00  0.00    +0.000 A 
ATOM     25  C   UNL     1      11.496  13.631  20.045  0.00  0.00    +0.000 A 
ATOM     26  C   UNL     1      10.636  12.862  19.235  0.00  0.00    +0.000 A 
ATOM     27  C   UNL     1      10.340  11.507  19.488  0.00  0.00    +0.000 A 
ENDBRANCH  17  18
ENDBRANCH   3  17
TORSDOF 5
ENDMDL
MODEL 4
REMARK VINA RESULT:      -8.5      1.037      1.781
REMARK  Name = 
REMARK  5 active torsions:
REMARK  status: ('A' for Active; 'I' for Inactive)
REMARK    1  A    between atoms: C_2  and  C_3
REMARK    2  A    between atoms: C_3  and  C_4
REMARK    3  A    between atoms: C_7  and  N_8
REMARK    4  A    between atoms: N_15  and  C_16
REMARK    5  A    between atoms: C_16  and  C_17
REMARK                            x       y       z     vdW  Elec       q    Type
REMARK                         _______ _______ _______ _____ _____    ______ ____
ROOT
ATOM      1  O   UNL     1       8.623   7.256  19.031  0.00  0.00    +0.000 OA
ATOM      2  C   UNL     1       8.108   7.942  18.145  0.00  0.00    +0.000 C 
ATOM      3  N   UNL     1       8.285   9.301  18.044  0.00  0.00    +0.000 N 
ATOM      4  H   UNL     1       7.817   9.809  17.307  0.00  0.00    +0.000 HD
ENDROOT
BRANCH   2   5
ATOM      5  C   UNL     1       7.194   7.342  17.086  0.00  0.00    +0.000 C 
BRANCH   5   6
ATOM      6  C   UNL     1       6.008   6.571  17.630  0.00  0.00    +0.000 A 
ATOM      7  C   UNL     1       6.226   5.492  18.499  0.00  0.00    +0.000 A 
ATOM      8  C   UNL     1       5.155   4.791  19.068  0.00  0.00    +0.000 A 
ATOM      9  C   UNL     1       3.838   5.162  18.775  0.00  0.00    +0.000 A 
ATOM     10  C   UNL     1       3.611   6.250  17.920  0.00  0.00    +0.000 A 
ATOM     11  C   UNL     1       4.686   6.956  17.367  0.00  0.00    +0.000 A 
BRANCH   9  12
ATOM     12  N   UNL     1       2.728   4.463  19.329  0.00  0.00    +0.000 N 
ATOM     13  C   UNL     1       1.809   3.664  18.677  0.00  0.00    +0.000 A 
ATOM     14  C   UNL     1       0.902   3.236  19.616  0.00  0.00    +0.000 A 
ATOM     15  C   UNL     1       1.345   3.807  20.817  0.00  0.00    +0.000 A 
ATOM     16  N   UNL     1       2.446   4.539  20.658  0.00  0.00    +0.000 NA
ENDBRANCH   9  12
ENDBRANCH   5   6
ENDBRANCH   2   5
BRANCH   3  17
ATOM     17  C   UNL     1       9.050  10.056  19.004  0.00  0.00    +0.000 C 
BRANCH  17  18
ATOM     18  C   UNL     1       9.553  11.364  18.449  0.00  0.00    +0.000 A 
ATOM     19  C   UNL     1      10.719  11.369  17.678  0.00  0.00    +0.000 A 
ATOM     20  C   UNL     1      11.302  12.574  17.288  0.00  0.00    +0.000 A 
ATOM     21  C   UNL     1      10.671  13.794  17.557  0.00  0.00    +0.000 A 
ATOM     22  C   UNL     1      11.263  14.998  17.165  0.00  0.00    +0.000 A 
ATOM     23  C   UNL     1      10.508  16.167  17.119  0.00  0.00    +0.000 A 
ATOM     24  C   UNL     1       9.200  16.159  17.592  0.00  0.00    +0.000 A 
ATOM     25  C   UNL     1       8.679  15.008  18.192  0.00  0.00    +0.000 A 
ATOM     26  C   UNL     1       9.397  13.795  18.166  0.00  0.00    +0.000 A 
ATOM     27  C   UNL     1       8.888  12.582  18.673  0.00  0.00    +0.000 A 
ENDBRANCH  17  18
ENDBRANCH   3  17
TORSDOF 5
ENDMDL
MODEL 5
REMARK VINA RESULT:      -8.3      1.053      1.598
REMARK  Name = 
REMARK  5 active torsions:
REMARK  status: ('A' for Active; 'I' for Inactive)
REMARK    1  A    between atoms: C_2  and  C_3
REMARK    2  A    between atoms: C_3  and  C_4
REMARK    3  A    between atoms: C_7  and  N_8
REMARK    4  A    between atoms: N_15  and  C_16
REMARK    5  A    between atoms: C_16  and  C_17
REMARK                            x       y       z     vdW  Elec       q    Type
REMARK                         _______ _______ _______ _____ _____    ______ ____
ROOT
ATOM      1  O   UNL     1       8.288   6.845  18.861  0.00  0.00    +0.000 OA
ATOM      2  C   UNL     1       7.927   7.697  18.046  0.00  0.00    +0.000 C 
ATOM      3  N   UNL     1       8.324   9.011  18.101  0.00  0.00    +0.000 N 
ATOM      4  H   UNL     1       7.974   9.665  17.416  0.00  0.00    +0.000 HD
ENDROOT
BRANCH   2   5
ATOM      5  C   UNL     1       6.971   7.372  16.906  0.00  0.00    +0.000 C 
BRANCH   5   6
ATOM      6  C   UNL     1       5.850   6.419  17.267  0.00  0.00    +0.000 A 
ATOM      7  C   UNL     1       6.139   5.065  17.491  0.00  0.00    +0.000 A 
ATOM      8  C   UNL     1       5.140   4.164  17.882  0.00  0.00    +0.000 A 
ATOM      9  C   UNL     1       3.824   4.608  18.058  0.00  0.00    +0.000 A 
ATOM     10  C   UNL     1       3.530   5.963  17.852  0.00  0.00    +0.000 A 
ATOM     11  C   UNL     1       4.535   6.861  17.476  0.00  0.00    +0.000 A 
BRANCH   9  12
ATOM     12  N   UNL     1       2.784   3.716  18.445  0.00  0.00    +0.000 N 
ATOM     13  C   UNL     1       1.463   4.009  18.718  0.00  0.00    +0.000 A 
ATOM     14  C   UNL     1       0.851   2.835  19.083  0.00  0.00    +0.000 A 
ATOM     15  C   UNL     1       1.863   1.870  18.996  0.00  0.00    +0.000 A 
ATOM     16  N   UNL     1       3.027   2.386  18.605  0.00  0.00    +0.000 NA
ENDBRANCH   9  12
ENDBRANCH   5   6
ENDBRANCH   2   5
BRANCH   3  17
ATOM     17  C   UNL     1       9.162   9.523  19.157  0.00  0.00    +0.000 C 
BRANCH  17  18
ATOM     18  C   UNL     1       9.478  10.987  18.991  0.00  0.00    +0.000 A 
ATOM     19  C   UNL     1       9.087  11.882  19.991  0.00  0.00    +0.000 A 
ATOM     20  C   UNL     1       9.214  13.257  19.797  0.00  0.00    +0.000 A 
ATOM     21  C   UNL     1       9.842  13.763  18.655  0.00  0.00    +0.000 A 
ATOM     22  C   UNL     1       9.963  15.143  18.466  0.00  0.00    +0.000 A 
ATOM     23  C   UNL     1      10.863  15.645  17.530  0.00  0.00    +0.000 A 
ATOM     24  C   UNL     1      11.543  14.769  16.691  0.00  0.00    +0.000 A 
ATOM     25  C   UNL     1      11.254  13.400  16.726  0.00  0.00    +0.000 A 
ATOM     26  C   UNL     1      10.415  12.868  17.725  0.00  0.00    +0.000 A 
ATOM     27  C   UNL     1      10.158  11.489  17.868  0.00  0.00    +0.000 A 
ENDBRANCH  17  18
ENDBRANCH   3  17
TORSDOF 5
ENDMDL
MODEL 6
REMARK VINA RESULT:      -8.2      6.671      9.468
REMARK  Name = 
REMARK  5 active torsions:
REMARK  status: ('A' for Active; 'I' for Inactive)
REMARK    1  A    between atoms: C_2  and  C_3
REMARK    2  A    between atoms: C_3  and  C_4
REMARK    3  A    between atoms: C_7  and  N_8
REMARK    4  A    between atoms: N_15  and  C_16
REMARK    5  A    between atoms: C_16  and  C_17
REMARK                            x       y       z     vdW  Elec       q    Type
REMARK                         _______ _______ _______ _____ _____    ______ ____
ROOT
ATOM      1  O   UNL     1       0.667   8.757  20.646  0.00  0.00    +0.000 OA
ATOM      2  C   UNL     1       1.156   8.942  19.528  0.00  0.00    +0.000 C 
ATOM      3  N   UNL     1       2.045   8.076  18.941  0.00  0.00    +0.000 N 
ATOM      4  H   UNL     1       2.428   8.297  18.033  0.00  0.00    +0.000 HD
ENDROOT
BRANCH   2   5
ATOM      5  C   UNL     1       0.836  10.179  18.700  0.00  0.00    +0.000 C 
BRANCH   5   6
ATOM      6  C   UNL     1      -0.642  10.464  18.526  0.00  0.00    +0.000 A 
ATOM      7  C   UNL     1      -1.250  11.462  19.302  0.00  0.00    +0.000 A 
ATOM      8  C   UNL     1      -2.600  11.794  19.130  0.00  0.00    +0.000 A 
ATOM      9  C   UNL     1      -3.370  11.129  18.169  0.00  0.00    +0.000 A 
ATOM     10  C   UNL     1      -2.767  10.142  17.377  0.00  0.00    +0.000 A 
ATOM     11  C   UNL     1      -1.414   9.825  17.544  0.00  0.00    +0.000 A 
BRANCH   9  12
ATOM     12  N   UNL     1      -4.747  11.436  17.977  0.00  0.00    +0.000 N 
ATOM     13  C   UNL     1      -5.315  12.257  17.023  0.00  0.00    +0.000 A 
ATOM     14  C   UNL     1      -6.669  12.274  17.253  0.00  0.00    +0.000 A 
ATOM     15  C   UNL     1      -6.848  11.429  18.356  0.00  0.00    +0.000 A 
ATOM     16  N   UNL     1      -5.701  10.912  18.794  0.00  0.00    +0.000 NA
ENDBRANCH   9  12
ENDBRANCH   5   6
ENDBRANCH   2   5
BRANCH   3  17
ATOM     17  C   UNL     1       2.530   6.893  19.608  0.00  0.00    +0.000 C 
BRANCH  17  18
ATOM     18  C   UNL     1       3.654   6.222  18.860  0.00  0.00    +0.000 A 
ATOM     19  C   UNL     1       4.483   5.328  19.543  0.00  0.00    +0.000 A 
ATOM     20  C   UNL     1       5.627   4.818  18.931  0.00  0.00    +0.000 A 
ATOM     21  C   UNL     1       5.902   5.094  17.588  0.00  0.00    +0.000 A 
ATOM     22  C   UNL     1       7.053   4.581  16.981  0.00  0.00    +0.000 A 
ATOM     23  C   UNL     1       7.163   4.560  15.594  0.00  0.00    +0.000 A 
ATOM     24  C   UNL     1       6.185   5.174  14.817  0.00  0.00    +0.000 A 
ATOM     25  C   UNL     1       5.148   5.884  15.431  0.00  0.00    +0.000 A 
ATOM     26  C   UNL     1       4.973   5.839  16.829  0.00  0.00    +0.000 A 
ATOM     27  C   UNL     1       3.896   6.458  17.496  0.00  0.00    +0.000 A 
ENDBRANCH  17  18
ENDBRANCH   3  17
TORSDOF 5
ENDMDL
MODEL 7
REMARK VINA RESULT:      -8.2      6.822     10.000
REMARK  Name = 
REMARK  5 active torsions:
REMARK  status: ('A' for Active; 'I' for Inactive)
REMARK    1  A    between atoms: C_2  and  C_3
REMARK    2  A    between atoms: C_3  and  C_4
REMARK    3  A    between atoms: C_7  and  N_8
REMARK    4  A    between atoms: N_15  and  C_16
REMARK    5  A    between atoms: C_16  and  C_17
REMARK                            x       y       z     vdW  Elec       q    Type
REMARK                         _______ _______ _______ _____ _____    ______ ____
ROOT
ATOM      1  O   UNL     1       0.888   9.787  21.097  0.00  0.00    +0.000 OA
ATOM      2  C   UNL     1       0.994   9.760  19.868  0.00  0.00    +0.000 C 
ATOM      3  N   UNL     1       1.516   8.693  19.179  0.00  0.00    +0.000 N 
ATOM      4  H   UNL     1       1.597   8.742  18.173  0.00  0.00    +0.000 HD
ENDROOT
BRANCH   2   5
ATOM      5  C   UNL     1       0.577  10.935  18.994  0.00  0.00    +0.000 C 
BRANCH   5   6
ATOM      6  C   UNL     1      -0.919  11.096  18.814  0.00  0.00    +0.000 A 
ATOM      7  C   UNL     1      -1.616  12.017  19.610  0.00  0.00    +0.000 A 
ATOM      8  C   UNL     1      -2.988  12.236  19.435  0.00  0.00    +0.000 A 
ATOM      9  C   UNL     1      -3.692  11.532  18.451  0.00  0.00    +0.000 A 
ATOM     10  C   UNL     1      -3.001  10.621  17.640  0.00  0.00    +0.000 A 
ATOM     11  C   UNL     1      -1.626  10.418  17.810  0.00  0.00    +0.000 A 
BRANCH   9  12
ATOM     12  N   UNL     1      -5.089  11.724  18.255  0.00  0.00    +0.000 N 
ATOM     13  C   UNL     1      -5.720  12.534  17.332  0.00  0.00    +0.000 A 
ATOM     14  C   UNL     1      -7.072  12.420  17.544  0.00  0.00    +0.000 A 
ATOM     15  C   UNL     1      -7.184  11.513  18.606  0.00  0.00    +0.000 A 
ATOM     16  N   UNL     1      -6.000  11.081  19.035  0.00  0.00    +0.000 NA
ENDBRANCH   9  12
ENDBRANCH   5   6
ENDBRANCH   2   5
BRANCH   3  17
ATOM     17  C   UNL     1       2.039   7.524  19.841  0.00  0.00    +0.000 C 
BRANCH  17  18
ATOM     18  C   UNL     1       2.718   6.571  18.891  0.00  0.00    +0.000 A 
ATOM     19  C   UNL     1       2.392   5.213  18.946  0.00  0.00    +0.000 A 
ATOM     20  C   UNL     1       3.115   4.283  18.201  0.00  0.00    +0.000 A 
ATOM     21  C   UNL     1       4.098   4.700  17.297  0.00  0.00    +0.000 A 
ATOM     22  C   UNL     1       4.821   3.761  16.555  0.00  0.00    +0.000 A 
ATOM     23  C   UNL     1       5.541   4.160  15.432  0.00  0.00    +0.000 A 
ATOM     24  C   UNL     1       5.648   5.514  15.130  0.00  0.00    +0.000 A 
ATOM     25  C   UNL     1       5.112   6.470  15.999  0.00  0.00    +0.000 A 
ATOM     26  C   UNL     1       4.307   6.081  17.088  0.00  0.00    +0.000 A 
ATOM     27  C   UNL     1       3.665   6.999  17.945  0.00  0.00    +0.000 A 
ENDBRANCH  17  18
ENDBRANCH   3  17
TORSDOF 5
ENDMDL
MODEL 8
REMARK VINA RESULT:      -8.2      6.653      9.906
REMARK  Name = 
REMARK  5 active torsions:
REMARK  status: ('A' for Active; 'I' for Inactive)
REMARK    1  A    between atoms: C_2  and  C_3
REMARK    2  A    between atoms: C_3  and  C_4
REMARK    3  A    between atoms: C_7  and  N_8
REMARK    4  A    between atoms: N_15  and  C_16
REMARK    5  A    between atoms: C_16  and  C_17
REMARK                            x       y       z     vdW  Elec       q    Type
REMARK                         _______ _______ _______ _____ _____    ______ ____
ROOT
ATOM      1  O   UNL     1       0.820   9.244  20.974  0.00  0.00    +0.000 OA
ATOM      2  C   UNL     1       1.159   9.369  19.794  0.00  0.00    +0.000 C 
ATOM      3  N   UNL     1       1.829   8.396  19.094  0.00  0.00    +0.000 N 
ATOM      4  H   UNL     1       2.100   8.570  18.136  0.00  0.00    +0.000 HD
ENDROOT
BRANCH   2   5
ATOM      5  C   UNL     1       0.886  10.643  19.005  0.00  0.00    +0.000 C 
BRANCH   5   6
ATOM      6  C   UNL     1      -0.580  10.986  18.835  0.00  0.00    +0.000 A 
ATOM      7  C   UNL     1      -1.352  10.277  17.904  0.00  0.00    +0.000 A 
ATOM      8  C   UNL     1      -2.722  10.525  17.757  0.00  0.00    +0.000 A 
ATOM      9  C   UNL     1      -3.349  11.494  18.549  0.00  0.00    +0.000 A 
ATOM     10  C   UNL     1      -2.589  12.196  19.495  0.00  0.00    +0.000 A 
ATOM     11  C   UNL     1      -1.222  11.933  19.646  0.00  0.00    +0.000 A 
BRANCH   9  12
ATOM     12  N   UNL     1      -4.738  11.777  18.418  0.00  0.00    +0.000 N 
ATOM     13  C   UNL     1      -5.472  11.937  17.259  0.00  0.00    +0.000 A 
ATOM     14  C   UNL     1      -6.761  12.233  17.629  0.00  0.00    +0.000 A 
ATOM     15  C   UNL     1      -6.734  12.222  19.030  0.00  0.00    +0.000 A 
ATOM     16  N   UNL     1      -5.526  11.940  19.515  0.00  0.00    +0.000 NA
ENDBRANCH   9  12
ENDBRANCH   5   6
ENDBRANCH   2   5
BRANCH   3  17
ATOM     17  C   UNL     1       2.246   7.155  19.698  0.00  0.00    +0.000 C 
BRANCH  17  18
ATOM     18  C   UNL     1       2.949   6.242  18.726  0.00  0.00    +0.000 A 
ATOM     19  C   UNL     1       2.681   4.871  18.771  0.00  0.00    +0.000 A 
ATOM     20  C   UNL     1       3.430   3.980  18.004  0.00  0.00    +0.000 A 
ATOM     21  C   UNL     1       4.379   4.447  17.088  0.00  0.00    +0.000 A 
ATOM     22  C   UNL     1       5.128   3.548  16.324  0.00  0.00    +0.000 A 
ATOM     23  C   UNL     1       5.812   3.989  15.195  0.00  0.00    +0.000 A 
ATOM     24  C   UNL     1       5.857   5.349  14.906  0.00  0.00    +0.000 A 
ATOM     25  C   UNL     1       5.296   6.272  15.794  0.00  0.00    +0.000 A 
ATOM     26  C   UNL     1       4.526   5.838  16.892  0.00  0.00    +0.000 A 
ATOM     27  C   UNL     1       3.861   6.719  17.769  0.00  0.00    +0.000 A 
ENDBRANCH  17  18
ENDBRANCH   3  17
TORSDOF 5
ENDMDL
MODEL 9
REMARK VINA RESULT:      -8.1      7.303     11.092
REMARK  Name = 
REMARK  5 active torsions:
REMARK  status: ('A' for Active; 'I' for Inactive)
REMARK    1  A    between atoms: C_2  and  C_3
REMARK    2  A    between atoms: C_3  and  C_4
REMARK    3  A    between atoms: C_7  and  N_8
REMARK    4  A    between atoms: N_15  and  C_16
REMARK    5  A    between atoms: C_16  and  C_17
REMARK                            x       y       z     vdW  Elec       q    Type
REMARK                         _______ _______ _______ _____ _____    ______ ____
ROOT
ATOM      1  O   UNL     1       1.118  10.548  22.149  0.00  0.00    +0.000 OA
ATOM      2  C   UNL     1       0.898  10.336  20.954  0.00  0.00    +0.000 C 
ATOM      3  N   UNL     1       0.981   9.090  20.381  0.00  0.00    +0.000 N 
ATOM      4  H   UNL     1       0.811   8.987  19.391  0.00  0.00    +0.000 HD
ENDROOT
BRANCH   2   5
ATOM      5  C   UNL     1       0.539  11.455  19.986  0.00  0.00    +0.000 C 
BRANCH   5   6
ATOM      6  C   UNL     1      -0.941  11.589  19.687  0.00  0.00    +0.000 A 
ATOM      7  C   UNL     1      -1.746  12.379  20.520  0.00  0.00    +0.000 A 
ATOM      8  C   UNL     1      -3.106  12.573  20.245  0.00  0.00    +0.000 A 
ATOM      9  C   UNL     1      -3.686  11.975  19.120  0.00  0.00    +0.000 A 
ATOM     10  C   UNL     1      -2.885  11.197  18.272  0.00  0.00    +0.000 A 
ATOM     11  C   UNL     1      -1.524  11.019  18.545  0.00  0.00    +0.000 A 
BRANCH   9  12
ATOM     12  N   UNL     1      -5.068  12.145  18.818  0.00  0.00    +0.000 N 
ATOM     13  C   UNL     1      -5.882  13.220  19.114  0.00  0.00    +0.000 A 
ATOM     14  C   UNL     1      -7.142  12.916  18.658  0.00  0.00    +0.000 A 
ATOM     15  C   UNL     1      -7.009  11.644  18.085  0.00  0.00    +0.000 A 
ATOM     16  N   UNL     1      -5.766  11.174  18.167  0.00  0.00    +0.000 NA
ENDBRANCH   9  12
ENDBRANCH   5   6
ENDBRANCH   2   5
BRANCH   3  17
ATOM     17  C   UNL     1       1.388   7.923  21.121  0.00  0.00    +0.000 C 
BRANCH  17  18
ATOM     18  C   UNL     1       1.750   6.764  20.228  0.00  0.00    +0.000 A 
ATOM     19  C   UNL     1       2.459   7.012  19.050  0.00  0.00    +0.000 A 
ATOM     20  C   UNL     1       2.666   5.993  18.122  0.00  0.00    +0.000 A 
ATOM     21  C   UNL     1       2.276   4.679  18.404  0.00  0.00    +0.000 A 
ATOM     22  C   UNL     1       2.485   3.662  17.468  0.00  0.00    +0.000 A 
ATOM     23  C   UNL     1       2.418   2.328  17.857  0.00  0.00    +0.000 A 
ATOM     24  C   UNL     1       2.012   2.008  19.149  0.00  0.00    +0.000 A 
ATOM     25  C   UNL     1       1.586   3.017  20.018  0.00  0.00    +0.000 A 
ATOM     26  C   UNL     1       1.731   4.375  19.671  0.00  0.00    +0.000 A 
ATOM     27  C   UNL     1       1.405   5.437  20.539  0.00  0.00    +0.000 A 
ENDBRANCH  17  18
ENDBRANCH   3  17
TORSDOF 5
ENDMDL
