MODEL 1
REMARK VINA RESULT:      -9.6      0.000      0.000
REMARK  Name = 
REMARK  7 active torsions:
REMARK  status: ('A' for Active; 'I' for Inactive)
REMARK    1  A    between atoms: C_1  and  N_2
REMARK    2  A    between atoms: C_6  and  C_7
REMARK    3  A    between atoms: C_7  and  C_8
REMARK    4  A    between atoms: C_8  and  C_9
REMARK    5  A    between atoms: C_13  and  N_14
REMARK    6  A    between atoms: C_16  and  C_17
REMARK    7  A    between atoms: C_21  and  N_22
REMARK                            x       y       z     vdW  Elec       q    Type
REMARK                         _______ _______ _______ _____ _____    ______ ____
ROOT
ATOM      1  C   UNL     1       4.588   5.033  17.294  0.00  0.00    +0.000 A 
ATOM      2  C   UNL     1       3.747   3.911  17.191  0.00  0.00    +0.000 A 
ATOM      3  C   UNL     1       2.424   3.944  17.625  0.00  0.00    +0.000 A 
ATOM      4  C   UNL     1       1.897   5.109  18.183  0.00  0.00    +0.000 A 
ATOM      5  C   UNL     1       2.683   6.256  18.300  0.00  0.00    +0.000 A 
ATOM      6  C   UNL     1       4.005   6.198  17.828  0.00  0.00    +0.000 A 
ENDROOT
BRANCH   5   7
ATOM      7  N   UNL     1       2.211   7.436  18.931  0.00  0.00    +0.000 N 
ATOM      8  C   UNL     1       1.761   7.437  20.301  0.00  0.00    +0.000 C 
ATOM      9  C   UNL     1       1.089   8.750  20.419  0.00  0.00    +0.000 C 
ATOM     10  C   UNL     1       1.223   9.505  19.329  0.00  0.00    +0.000 C 
ATOM     11  C   UNL     1       1.962   8.666  18.327  0.00  0.00    +0.000 C 
ATOM     12  O   UNL     1       2.205   9.059  17.197  0.00  0.00    +0.000 OA
BRANCH   9  13
ATOM     13  C   UNL     1       0.344   9.032  21.651  0.00  0.00    +0.000 C 
ATOM     14  F   UNL     1       1.142   8.979  22.747  0.00  0.00    +0.000 F 
ATOM     15  F   UNL     1      -0.229  10.258  21.644  0.00  0.00    +0.000 F 
ATOM     16  F   UNL     1      -0.647   8.128  21.851  0.00  0.00    +0.000 F 
ENDBRANCH   9  13
BRANCH  10  17
ATOM     17  N   UNL     1       0.761  10.754  19.006  0.00  0.00    +0.000 N 
ATOM     18  H   UNL     1       0.120  10.792  18.220  0.00  0.00    +0.000 HD
ATOM     19  H   UNL     1       1.525  11.431  18.935  0.00  0.00    +0.000 HD
ENDBRANCH  10  17
ENDBRANCH   5   7
BRANCH   1  20
ATOM     20  C   UNL     1       6.136   4.998  16.845  0.00  0.00    +0.000 C 
ATOM     21  C   UNL     1       6.883   6.379  16.706  0.00  0.00    +0.000 C 
ATOM     22  C   UNL     1       7.483   6.184  18.102  0.00  0.00    +0.000 C 
ATOM     23  C   UNL     1       7.158   4.690  18.007  0.00  0.00    +0.000 C 
BRANCH  20  24
ATOM     24  C   UNL     1       6.320   4.038  15.651  0.00  0.00    +0.000 C 
BRANCH  24  30
ATOM     25  C   UNL     1       5.707   3.364  12.601  0.00  0.00    +0.000 C 
ATOM     26  N   UNL     1       6.677   4.288  13.120  0.00  0.00    +0.000 N 
ATOM     27  C   UNL     1       7.571   4.984  12.360  0.00  0.00    +0.000 A 
ATOM     28  N   UNL     1       8.304   5.748  13.131  0.00  0.00    +0.000 NA
ATOM     29  N   UNL     1       7.901   5.533  14.428  0.00  0.00    +0.000 NA
ATOM     30  C   UNL     1       6.931   4.639  14.425  0.00  0.00    +0.000 A 
ENDBRANCH  24  30
ENDBRANCH  20  24
ENDBRANCH   1  20
TORSDOF 6
ENDMDL
MODEL 2
REMARK VINA RESULT:      -9.1      4.062      8.336
REMARK  Name = 
REMARK  7 active torsions:
REMARK  status: ('A' for Active; 'I' for Inactive)
REMARK    1  A    between atoms: C_1  and  N_2
REMARK    2  A    between atoms: C_6  and  C_7
REMARK    3  A    between atoms: C_7  and  C_8
REMARK    4  A    between atoms: C_8  and  C_9
REMARK    5  A    between atoms: C_13  and  N_14
REMARK    6  A    between atoms: C_16  and  C_17
REMARK    7  A    between atoms: C_21  and  N_22
REMARK                            x       y       z     vdW  Elec       q    Type
REMARK                         _______ _______ _______ _____ _____    ______ ____
ROOT
ATOM      1  C   UNL     1       1.855   7.021  20.252  0.00  0.00    +0.000 A 
ATOM      2  C   UNL     1       1.261   5.889  20.836  0.00  0.00    +0.000 A 
ATOM      3  C   UNL     1       1.791   4.612  20.664  0.00  0.00    +0.000 A 
ATOM      4  C   UNL     1       2.939   4.426  19.894  0.00  0.00    +0.000 A 
ATOM      5  C   UNL     1       3.577   5.515  19.300  0.00  0.00    +0.000 A 
ATOM      6  C   UNL     1       3.034   6.793  19.515  0.00  0.00    +0.000 A 
ENDROOT
BRANCH   5   7
ATOM      7  N   UNL     1       4.701   5.362  18.447  0.00  0.00    +0.000 N 
ATOM      8  C   UNL     1       4.567   5.335  17.012  0.00  0.00    +0.000 C 
ATOM      9  C   UNL     1       5.896   4.854  16.573  0.00  0.00    +0.000 C 
ATOM     10  C   UNL     1       6.765   4.734  17.575  0.00  0.00    +0.000 C 
ATOM     11  C   UNL     1       6.007   5.065  18.829  0.00  0.00    +0.000 C 
ATOM     12  O   UNL     1       6.516   5.003  19.936  0.00  0.00    +0.000 OA
BRANCH   9  13
ATOM     13  C   UNL     1       6.075   4.532  15.153  0.00  0.00    +0.000 C 
ATOM     14  F   UNL     1       7.225   5.055  14.657  0.00  0.00    +0.000 F 
ATOM     15  F   UNL     1       6.121   3.200  14.922  0.00  0.00    +0.000 F 
ATOM     16  F   UNL     1       5.066   5.035  14.398  0.00  0.00    +0.000 F 
ENDBRANCH   9  13
BRANCH  10  17
ATOM     17  N   UNL     1       8.070   4.318  17.624  0.00  0.00    +0.000 N 
ATOM     18  H   UNL     1       8.587   4.406  16.754  0.00  0.00    +0.000 HD
ATOM     19  H   UNL     1       8.155   3.393  18.050  0.00  0.00    +0.000 HD
ENDBRANCH  10  17
ENDBRANCH   5   7
BRANCH   1  20
ATOM     20  C   UNL     1       1.228   8.499  20.396  0.00  0.00    +0.000 C 
ATOM     21  C   UNL     1      -0.230   8.615  20.983  0.00  0.00    +0.000 C 
ATOM     22  C   UNL     1       0.361   8.941  22.359  0.00  0.00    +0.000 C 
ATOM     23  C   UNL     1       1.688   9.294  21.679  0.00  0.00    +0.000 C 
BRANCH  20  24
ATOM     24  C   UNL     1       1.473   9.307  19.104  0.00  0.00    +0.000 C 
BRANCH  24  30
ATOM     25  C   UNL     1       1.155  12.351  19.981  0.00  0.00    +0.000 C 
ATOM     26  N   UNL     1       0.262  11.571  19.167  0.00  0.00    +0.000 N 
ATOM     27  C   UNL     1      -0.940  12.009  18.696  0.00  0.00    +0.000 A 
ATOM     28  N   UNL     1      -1.501  11.067  17.979  0.00  0.00    +0.000 NA
ATOM     29  N   UNL     1      -0.662   9.979  17.999  0.00  0.00    +0.000 NA
ATOM     30  C   UNL     1       0.395  10.274  18.731  0.00  0.00    +0.000 A 
ENDBRANCH  24  30
ENDBRANCH  20  24
ENDBRANCH   1  20
TORSDOF 6
ENDMDL
MODEL 3
REMARK VINA RESULT:      -9.1      4.062      8.247
REMARK  Name = 
REMARK  7 active torsions:
REMARK  status: ('A' for Active; 'I' for Inactive)
REMARK    1  A    between atoms: C_1  and  N_2
REMARK    2  A    between atoms: C_6  and  C_7
REMARK    3  A    between atoms: C_7  and  C_8
REMARK    4  A    between atoms: C_8  and  C_9
REMARK    5  A    between atoms: C_13  and  N_14
REMARK    6  A    between atoms: C_16  and  C_17
REMARK    7  A    between atoms: C_21  and  N_22
REMARK                            x       y       z     vdW  Elec       q    Type
REMARK                         _______ _______ _______ _____ _____    ______ ____
ROOT
ATOM      1  C   UNL     1       1.855   7.048  20.257  0.00  0.00    +0.000 A 
ATOM      2  C   UNL     1       1.252   5.914  20.829  0.00  0.00    +0.000 A 
ATOM      3  C   UNL     1       1.777   4.636  20.651  0.00  0.00    +0.000 A 
ATOM      4  C   UNL     1       2.930   4.451  19.887  0.00  0.00    +0.000 A 
ATOM      5  C   UNL     1       3.576   5.541  19.305  0.00  0.00    +0.000 A 
ATOM      6  C   UNL     1       3.037   6.820  19.526  0.00  0.00    +0.000 A 
ENDROOT
BRANCH   5   7
ATOM      7  N   UNL     1       4.704   5.389  18.458  0.00  0.00    +0.000 N 
ATOM      8  C   UNL     1       4.581   5.388  17.022  0.00  0.00    +0.000 C 
ATOM      9  C   UNL     1       5.907   4.898  16.584  0.00  0.00    +0.000 C 
ATOM     10  C   UNL     1       6.767   4.750  17.591  0.00  0.00    +0.000 C 
ATOM     11  C   UNL     1       6.004   5.070  18.844  0.00  0.00    +0.000 C 
ATOM     12  O   UNL     1       6.503   4.983  19.954  0.00  0.00    +0.000 OA
BRANCH   9  13
ATOM     13  C   UNL     1       6.093   4.598  15.160  0.00  0.00    +0.000 C 
ATOM     14  F   UNL     1       5.079   5.089  14.403  0.00  0.00    +0.000 F 
ATOM     15  F   UNL     1       7.239   5.120  14.664  0.00  0.00    +0.000 F 
ATOM     16  F   UNL     1       6.131   3.261  14.934  0.00  0.00    +0.000 F 
ENDBRANCH   9  13
BRANCH  10  17
ATOM     17  N   UNL     1       8.067   4.319  17.642  0.00  0.00    +0.000 N 
ATOM     18  H   UNL     1       8.324   3.630  16.941  0.00  0.00    +0.000 HD
ATOM     19  H   UNL     1       8.336   4.047  18.590  0.00  0.00    +0.000 HD
ENDBRANCH  10  17
ENDBRANCH   5   7
BRANCH   1  20
ATOM     20  C   UNL     1       1.233   8.528  20.408  0.00  0.00    +0.000 C 
ATOM     21  C   UNL     1      -0.176   8.656  21.102  0.00  0.00    +0.000 C 
ATOM     22  C   UNL     1       0.517   9.023  22.418  0.00  0.00    +0.000 C 
ATOM     23  C   UNL     1       1.787   9.359  21.629  0.00  0.00    +0.000 C 
BRANCH  20  24
ATOM     24  C   UNL     1       1.375   9.300  19.079  0.00  0.00    +0.000 C 
BRANCH  24  30
ATOM     25  C   UNL     1      -1.442  10.043  17.795  0.00  0.00    +0.000 C 
ATOM     26  N   UNL     1      -0.500  10.929  18.422  0.00  0.00    +0.000 N 
ATOM     27  C   UNL     1      -0.637  12.283  18.494  0.00  0.00    +0.000 A 
ATOM     28  N   UNL     1       0.382  12.795  19.137  0.00  0.00    +0.000 NA
ATOM     29  N   UNL     1       1.220  11.760  19.475  0.00  0.00    +0.000 NA
ATOM     30  C   UNL     1       0.698  10.633  19.028  0.00  0.00    +0.000 A 
ENDBRANCH  24  30
ENDBRANCH  20  24
ENDBRANCH   1  20
TORSDOF 6
ENDMDL
MODEL 4
REMARK VINA RESULT:      -9.0      1.457      3.013
REMARK  Name = 
REMARK  7 active torsions:
REMARK  status: ('A' for Active; 'I' for Inactive)
REMARK    1  A    between atoms: C_1  and  N_2
REMARK    2  A    between atoms: C_6  and  C_7
REMARK    3  A    between atoms: C_7  and  C_8
REMARK    4  A    between atoms: C_8  and  C_9
REMARK    5  A    between atoms: C_13  and  N_14
REMARK    6  A    between atoms: C_16  and  C_17
REMARK    7  A    between atoms: C_21  and  N_22
REMARK                            x       y       z     vdW  Elec       q    Type
REMARK                         _______ _______ _______ _____ _____    ______ ____
ROOT
ATOM      1  C   UNL     1       4.215   4.559  16.969  0.00  0.00    +0.000 A 
ATOM      2  C   UNL     1       3.367   3.449  17.126  0.00  0.00    +0.000 A 
ATOM      3  C   UNL     1       2.162   3.540  17.820  0.00  0.00    +0.000 A 
ATOM      4  C   UNL     1       1.768   4.753  18.386  0.00  0.00    +0.000 A 
ATOM      5  C   UNL     1       2.565   5.889  18.252  0.00  0.00    +0.000 A 
ATOM      6  C   UNL     1       3.760   5.772  17.523  0.00  0.00    +0.000 A 
ENDROOT
BRANCH   5   7
ATOM      7  N   UNL     1       2.239   7.121  18.876  0.00  0.00    +0.000 N 
ATOM      8  C   UNL     1       1.789   7.183  20.244  0.00  0.00    +0.000 C 
ATOM      9  C   UNL     1       1.282   8.569  20.355  0.00  0.00    +0.000 C 
ATOM     10  C   UNL     1       1.511   9.297  19.263  0.00  0.00    +0.000 C 
ATOM     11  C   UNL     1       2.145   8.370  18.267  0.00  0.00    +0.000 C 
ATOM     12  O   UNL     1       2.438   8.725  17.136  0.00  0.00    +0.000 OA
BRANCH   9  13
ATOM     13  C   UNL     1       0.573   8.946  21.583  0.00  0.00    +0.000 C 
ATOM     14  F   UNL     1      -0.013  10.165  21.475  0.00  0.00    +0.000 F 
ATOM     15  F   UNL     1      -0.405   8.069  21.909  0.00  0.00    +0.000 F 
ATOM     16  F   UNL     1       1.418   9.016  22.642  0.00  0.00    +0.000 F 
ENDBRANCH   9  13
BRANCH  10  17
ATOM     17  N   UNL     1       1.207  10.592  18.933  0.00  0.00    +0.000 N 
ATOM     18  H   UNL     1       0.399  10.984  19.408  0.00  0.00    +0.000 HD
ATOM     19  H   UNL     1       1.182  10.727  17.920  0.00  0.00    +0.000 HD
ENDBRANCH  10  17
ENDBRANCH   5   7
BRANCH   1  20
ATOM     20  C   UNL     1       5.637   4.462  16.214  0.00  0.00    +0.000 C 
ATOM     21  C   UNL     1       5.799   3.345  15.114  0.00  0.00    +0.000 C 
ATOM     22  C   UNL     1       5.512   4.388  14.028  0.00  0.00    +0.000 C 
ATOM     23  C   UNL     1       5.836   5.494  15.038  0.00  0.00    +0.000 C 
BRANCH  20  24
ATOM     24  C   UNL     1       6.787   4.533  17.240  0.00  0.00    +0.000 C 
BRANCH  24  30
ATOM     25  C   UNL     1       8.057   5.720  19.908  0.00  0.00    +0.000 C 
ATOM     26  N   UNL     1       7.865   6.390  18.651  0.00  0.00    +0.000 N 
ATOM     27  C   UNL     1       8.135   7.707  18.424  0.00  0.00    +0.000 A 
ATOM     28  N   UNL     1       7.865   8.003  17.178  0.00  0.00    +0.000 NA
ATOM     29  N   UNL     1       7.386   6.864  16.576  0.00  0.00    +0.000 NA
ATOM     30  C   UNL     1       7.368   5.893  17.469  0.00  0.00    +0.000 A 
ENDBRANCH  24  30
ENDBRANCH  20  24
ENDBRANCH   1  20
TORSDOF 6
ENDMDL
MODEL 5
REMARK VINA RESULT:      -8.9      2.279      3.926
REMARK  Name = 
REMARK  7 active torsions:
REMARK  status: ('A' for Active; 'I' for Inactive)
REMARK    1  A    between atoms: C_1  and  N_2
REMARK    2  A    between atoms: C_6  and  C_7
REMARK    3  A    between atoms: C_7  and  C_8
REMARK    4  A    between atoms: C_8  and  C_9
REMARK    5  A    between atoms: C_13  and  N_14
REMARK    6  A    between atoms: C_16  and  C_17
REMARK    7  A    between atoms: C_21  and  N_22
REMARK                            x       y       z     vdW  Elec       q    Type
REMARK                         _______ _______ _______ _____ _____    ______ ____
ROOT
ATOM      1  C   UNL     1       2.917   5.732  18.645  0.00  0.00    +0.000 A 
ATOM      2  C   UNL     1       3.497   6.190  17.448  0.00  0.00    +0.000 A 
ATOM      3  C   UNL     1       3.412   7.524  17.056  0.00  0.00    +0.000 A 
ATOM      4  C   UNL     1       2.736   8.448  17.854  0.00  0.00    +0.000 A 
ATOM      5  C   UNL     1       2.151   8.052  19.057  0.00  0.00    +0.000 A 
ATOM      6  C   UNL     1       2.278   6.705  19.437  0.00  0.00    +0.000 A 
ENDROOT
BRANCH   5   7
ATOM      7  N   UNL     1       1.390   8.941  19.858  0.00  0.00    +0.000 N 
ATOM      8  C   UNL     1       1.301   8.788  21.289  0.00  0.00    +0.000 C 
ATOM      9  C   UNL     1       0.193   9.702  21.643  0.00  0.00    +0.000 C 
ATOM     10  C   UNL     1      -0.245  10.418  20.609  0.00  0.00    +0.000 C 
ATOM     11  C   UNL     1       0.528   9.941  19.413  0.00  0.00    +0.000 C 
ATOM     12  O   UNL     1       0.326  10.372  18.289  0.00  0.00    +0.000 OA
BRANCH   9  13
ATOM     13  C   UNL     1      -0.303   9.677  23.024  0.00  0.00    +0.000 C 
ATOM     14  F   UNL     1      -1.265   8.736  23.199  0.00  0.00    +0.000 F 
ATOM     15  F   UNL     1       0.672   9.411  23.923  0.00  0.00    +0.000 F 
ATOM     16  F   UNL     1      -0.858  10.865  23.374  0.00  0.00    +0.000 F 
ENDBRANCH   9  13
BRANCH  10  17
ATOM     17  N   UNL     1      -1.240  11.352  20.484  0.00  0.00    +0.000 N 
ATOM     18  H   UNL     1      -1.954  11.326  21.206  0.00  0.00    +0.000 HD
ATOM     19  H   UNL     1      -1.626  11.367  19.537  0.00  0.00    +0.000 HD
ENDBRANCH  10  17
ENDBRANCH   5   7
BRANCH   1  20
ATOM     20  C   UNL     1       2.960   4.183  19.090  0.00  0.00    +0.000 C 
ATOM     21  C   UNL     1       2.579   3.845  20.581  0.00  0.00    +0.000 C 
ATOM     22  C   UNL     1       1.164   3.474  20.124  0.00  0.00    +0.000 C 
ATOM     23  C   UNL     1       1.687   3.341  18.690  0.00  0.00    +0.000 C 
BRANCH  20  24
ATOM     24  C   UNL     1       4.263   3.524  18.588  0.00  0.00    +0.000 C 
BRANCH  24  30
ATOM     25  C   UNL     1       6.453   4.271  16.402  0.00  0.00    +0.000 C 
ATOM     26  N   UNL     1       6.458   4.600  17.801  0.00  0.00    +0.000 N 
ATOM     27  C   UNL     1       7.478   5.236  18.445  0.00  0.00    +0.000 A 
ATOM     28  N   UNL     1       7.169   5.397  19.707  0.00  0.00    +0.000 NA
ATOM     29  N   UNL     1       5.931   4.835  19.904  0.00  0.00    +0.000 NA
ATOM     30  C   UNL     1       5.507   4.336  18.758  0.00  0.00    +0.000 A 
ENDBRANCH  24  30
ENDBRANCH  20  24
ENDBRANCH   1  20
TORSDOF 6
ENDMDL
MODEL 6
REMARK VINA RESULT:      -8.8      4.601      8.291
REMARK  Name = 
REMARK  7 active torsions:
REMARK  status: ('A' for Active; 'I' for Inactive)
REMARK    1  A    between atoms: C_1  and  N_2
REMARK    2  A    between atoms: C_6  and  C_7
REMARK    3  A    between atoms: C_7  and  C_8
REMARK    4  A    between atoms: C_8  and  C_9
REMARK    5  A    between atoms: C_13  and  N_14
REMARK    6  A    between atoms: C_16  and  C_17
REMARK    7  A    between atoms: C_21  and  N_22
REMARK                            x       y       z     vdW  Elec       q    Type
REMARK                         _______ _______ _______ _____ _____    ______ ____
ROOT
ATOM      1  C   UNL     1       4.381   4.893  18.233  0.00  0.00    +0.000 A 
ATOM      2  C   UNL     1       5.554   4.840  19.006  0.00  0.00    +0.000 A 
ATOM      3  C   UNL     1       6.815   4.749  18.420  0.00  0.00    +0.000 A 
ATOM      4  C   UNL     1       6.941   4.706  17.031  0.00  0.00    +0.000 A 
ATOM      5  C   UNL     1       5.812   4.767  16.215  0.00  0.00    +0.000 A 
ATOM      6  C   UNL     1       4.557   4.886  16.836  0.00  0.00    +0.000 A 
ENDROOT
BRANCH   5   7
ATOM      7  N   UNL     1       5.890   4.648  14.803  0.00  0.00    +0.000 N 
ATOM      8  C   UNL     1       4.813   4.089  14.027  0.00  0.00    +0.000 C 
ATOM      9  C   UNL     1       5.443   3.878  12.704  0.00  0.00    +0.000 C 
ATOM     10  C   UNL     1       6.682   4.361  12.633  0.00  0.00    +0.000 C 
ATOM     11  C   UNL     1       7.008   4.881  14.004  0.00  0.00    +0.000 C 
ATOM     12  O   UNL     1       8.098   5.353  14.283  0.00  0.00    +0.000 OA
BRANCH   9  13
ATOM     13  C   UNL     1       4.678   3.147  11.688  0.00  0.00    +0.000 C 
ATOM     14  F   UNL     1       3.430   2.835  12.121  0.00  0.00    +0.000 F 
ATOM     15  F   UNL     1       4.529   3.851  10.542  0.00  0.00    +0.000 F 
ATOM     16  F   UNL     1       5.277   1.974  11.362  0.00  0.00    +0.000 F 
ENDBRANCH   9  13
BRANCH  10  17
ATOM     17  N   UNL     1       7.615   4.372  11.630  0.00  0.00    +0.000 N 
ATOM     18  H   UNL     1       8.495   4.825  11.859  0.00  0.00    +0.000 HD
ATOM     19  H   UNL     1       7.215   4.697  10.747  0.00  0.00    +0.000 HD
ENDBRANCH  10  17
ENDBRANCH   5   7
BRANCH   1  20
ATOM     20  C   UNL     1       2.911   4.946  18.894  0.00  0.00    +0.000 C 
ATOM     21  C   UNL     1       1.678   4.702  17.943  0.00  0.00    +0.000 C 
ATOM     22  C   UNL     1       1.623   3.243  18.406  0.00  0.00    +0.000 C 
ATOM     23  C   UNL     1       2.465   3.623  19.628  0.00  0.00    +0.000 C 
BRANCH  20  24
ATOM     24  C   UNL     1       2.787   6.180  19.812  0.00  0.00    +0.000 C 
BRANCH  24  30
ATOM     25  C   UNL     1       1.008   8.571  20.933  0.00  0.00    +0.000 C 
ATOM     26  N   UNL     1       1.601   8.451  19.629  0.00  0.00    +0.000 N 
ATOM     27  C   UNL     1       1.419   9.338  18.610  0.00  0.00    +0.000 A 
ATOM     28  N   UNL     1       2.103   8.951  17.562  0.00  0.00    +0.000 NA
ATOM     29  N   UNL     1       2.730   7.773  17.890  0.00  0.00    +0.000 NA
ATOM     30  C   UNL     1       2.413   7.459  19.132  0.00  0.00    +0.000 A 
ENDBRANCH  24  30
ENDBRANCH  20  24
ENDBRANCH   1  20
TORSDOF 6
ENDMDL
MODEL 7
REMARK VINA RESULT:      -8.8      1.715      2.137
REMARK  Name = 
REMARK  7 active torsions:
REMARK  status: ('A' for Active; 'I' for Inactive)
REMARK    1  A    between atoms: C_1  and  N_2
REMARK    2  A    between atoms: C_6  and  C_7
REMARK    3  A    between atoms: C_7  and  C_8
REMARK    4  A    between atoms: C_8  and  C_9
REMARK    5  A    between atoms: C_13  and  N_14
REMARK    6  A    between atoms: C_16  and  C_17
REMARK    7  A    between atoms: C_21  and  N_22
REMARK                            x       y       z     vdW  Elec       q    Type
REMARK                         _______ _______ _______ _____ _____    ______ ____
ROOT
ATOM      1  C   UNL     1       4.756   4.874  17.200  0.00  0.00    +0.000 A 
ATOM      2  C   UNL     1       4.021   3.685  17.049  0.00  0.00    +0.000 A 
ATOM      3  C   UNL     1       2.675   3.606  17.400  0.00  0.00    +0.000 A 
ATOM      4  C   UNL     1       2.018   4.722  17.920  0.00  0.00    +0.000 A 
ATOM      5  C   UNL     1       2.696   5.930  18.082  0.00  0.00    +0.000 A 
ATOM      6  C   UNL     1       4.045   5.985  17.693  0.00  0.00    +0.000 A 
ENDROOT
BRANCH   5   7
ATOM      7  N   UNL     1       2.088   7.065  18.678  0.00  0.00    +0.000 N 
ATOM      8  C   UNL     1       1.905   8.298  17.953  0.00  0.00    +0.000 C 
ATOM      9  C   UNL     1       1.547   9.253  19.024  0.00  0.00    +0.000 C 
ATOM     10  C   UNL     1       1.394   8.671  20.213  0.00  0.00    +0.000 C 
ATOM     11  C   UNL     1       1.742   7.223  20.018  0.00  0.00    +0.000 C 
ATOM     12  O   UNL     1       1.745   6.422  20.938  0.00  0.00    +0.000 OA
BRANCH   9  13
ATOM     13  C   UNL     1       1.454  10.675  18.675  0.00  0.00    +0.000 C 
ATOM     14  F   UNL     1       0.201  11.019  18.283  0.00  0.00    +0.000 F 
ATOM     15  F   UNL     1       1.778  11.487  19.707  0.00  0.00    +0.000 F 
ATOM     16  F   UNL     1       2.279  10.988  17.644  0.00  0.00    +0.000 F 
ENDBRANCH   9  13
BRANCH  10  17
ATOM     17  N   UNL     1       1.085   9.166  21.453  0.00  0.00    +0.000 N 
ATOM     18  H   UNL     1       1.876   9.490  22.001  0.00  0.00    +0.000 HD
ATOM     19  H   UNL     1       0.472   8.531  21.970  0.00  0.00    +0.000 HD
ENDBRANCH  10  17
ENDBRANCH   5   7
BRANCH   1  20
ATOM     20  C   UNL     1       6.327   4.970  16.849  0.00  0.00    +0.000 C 
ATOM     21  C   UNL     1       6.954   6.410  16.717  0.00  0.00    +0.000 C 
ATOM     22  C   UNL     1       7.479   6.301  18.152  0.00  0.00    +0.000 C 
ATOM     23  C   UNL     1       7.296   4.782  18.079  0.00  0.00    +0.000 C 
BRANCH  20  24
ATOM     24  C   UNL     1       6.671   4.005  15.695  0.00  0.00    +0.000 C 
BRANCH  24  30
ATOM     25  C   UNL     1       5.718   3.404  12.718  0.00  0.00    +0.000 C 
ATOM     26  N   UNL     1       6.728   4.331  13.148  0.00  0.00    +0.000 N 
ATOM     27  C   UNL     1       7.517   5.064  12.311  0.00  0.00    +0.000 A 
ATOM     28  N   UNL     1       8.324   5.818  13.014  0.00  0.00    +0.000 NA
ATOM     29  N   UNL     1       8.078   5.561  14.341  0.00  0.00    +0.000 NA
ATOM     30  C   UNL     1       7.127   4.650  14.425  0.00  0.00    +0.000 A 
ENDBRANCH  24  30
ENDBRANCH  20  24
ENDBRANCH   1  20
TORSDOF 6
ENDMDL
MODEL 8
REMARK VINA RESULT:      -8.8      0.777      1.513
REMARK  Name = 
REMARK  7 active torsions:
REMARK  status: ('A' for Active; 'I' for Inactive)
REMARK    1  A    between atoms: C_1  and  N_2
REMARK    2  A    between atoms: C_6  and  C_7
REMARK    3  A    between atoms: C_7  and  C_8
REMARK    4  A    between atoms: C_8  and  C_9
REMARK    5  A    between atoms: C_13  and  N_14
REMARK    6  A    between atoms: C_16  and  C_17
REMARK    7  A    between atoms: C_21  and  N_22
REMARK                            x       y       z     vdW  Elec       q    Type
REMARK                         _______ _______ _______ _____ _____    ______ ____
ROOT
ATOM      1  C   UNL     1       4.614   5.517  17.270  0.00  0.00    +0.000 A 
ATOM      2  C   UNL     1       3.918   4.296  17.311  0.00  0.00    +0.000 A 
ATOM      3  C   UNL     1       2.652   4.192  17.885  0.00  0.00    +0.000 A 
ATOM      4  C   UNL     1       2.040   5.315  18.443  0.00  0.00    +0.000 A 
ATOM      5  C   UNL     1       2.680   6.554  18.421  0.00  0.00    +0.000 A 
ATOM      6  C   UNL     1       3.943   6.632  17.811  0.00  0.00    +0.000 A 
ENDROOT
BRANCH   5   7
ATOM      7  N   UNL     1       2.127   7.702  19.045  0.00  0.00    +0.000 N 
ATOM      8  C   UNL     1       1.652   7.673  20.406  0.00  0.00    +0.000 C 
ATOM      9  C   UNL     1       0.902   8.944  20.513  0.00  0.00    +0.000 C 
ATOM     10  C   UNL     1       1.012   9.708  19.428  0.00  0.00    +0.000 C 
ATOM     11  C   UNL     1       1.818   8.918  18.439  0.00  0.00    +0.000 C 
ATOM     12  O   UNL     1       2.059   9.328  17.315  0.00  0.00    +0.000 OA
BRANCH   9  13
ATOM     13  C   UNL     1       0.118   9.178  21.731  0.00  0.00    +0.000 C 
ATOM     14  F   UNL     1      -0.645  10.296  21.635  0.00  0.00    +0.000 F 
ATOM     15  F   UNL     1      -0.721   8.155  22.016  0.00  0.00    +0.000 F 
ATOM     16  F   UNL     1       0.920   9.351  22.812  0.00  0.00    +0.000 F 
ENDBRANCH   9  13
BRANCH  10  17
ATOM     17  N   UNL     1       0.484  10.929  19.099  0.00  0.00    +0.000 N 
ATOM     18  H   UNL     1      -0.528  10.995  19.154  0.00  0.00    +0.000 HD
ATOM     19  H   UNL     1       0.861  11.277  18.214  0.00  0.00    +0.000 HD
ENDBRANCH  10  17
ENDBRANCH   5   7
BRANCH   1  20
ATOM     20  C   UNL     1       6.099   5.647  16.657  0.00  0.00    +0.000 C 
ATOM     21  C   UNL     1       7.177   6.404  17.521  0.00  0.00    +0.000 C 
ATOM     22  C   UNL     1       7.710   5.057  18.020  0.00  0.00    +0.000 C 
ATOM     23  C   UNL     1       7.008   4.371  16.843  0.00  0.00    +0.000 C 
BRANCH  20  24
ATOM     24  C   UNL     1       6.026   6.087  15.180  0.00  0.00    +0.000 C 
BRANCH  24  30
ATOM     25  C   UNL     1       8.346   5.666  13.042  0.00  0.00    +0.000 C 
ATOM     26  N   UNL     1       7.165   4.869  13.227  0.00  0.00    +0.000 N 
ATOM     27  C   UNL     1       6.804   3.820  12.434  0.00  0.00    +0.000 A 
ATOM     28  N   UNL     1       5.687   3.298  12.875  0.00  0.00    +0.000 NA
ATOM     29  N   UNL     1       5.291   4.033  13.966  0.00  0.00    +0.000 NA
ATOM     30  C   UNL     1       6.172   4.994  14.170  0.00  0.00    +0.000 A 
ENDBRANCH  24  30
ENDBRANCH  20  24
ENDBRANCH   1  20
TORSDOF 6
ENDMDL
MODEL 9
REMARK VINA RESULT:      -8.6      4.873      8.204
REMARK  Name = 
REMARK  7 active torsions:
REMARK  status: ('A' for Active; 'I' for Inactive)
REMARK    1  A    between atoms: C_1  and  N_2
REMARK    2  A    between atoms: C_6  and  C_7
REMARK    3  A    between atoms: C_7  and  C_8
REMARK    4  A    between atoms: C_8  and  C_9
REMARK    5  A    between atoms: C_13  and  N_14
REMARK    6  A    between atoms: C_16  and  C_17
REMARK    7  A    between atoms: C_21  and  N_22
REMARK                            x       y       z     vdW  Elec       q    Type
REMARK                         _______ _______ _______ _____ _____    ______ ____
ROOT
ATOM      1  C   UNL     1       4.808   5.402  18.226  0.00  0.00    +0.000 A 
ATOM      2  C   UNL     1       6.007   5.251  18.945  0.00  0.00    +0.000 A 
ATOM      3  C   UNL     1       7.217   4.985  18.308  0.00  0.00    +0.000 A 
ATOM      4  C   UNL     1       7.265   4.858  16.919  0.00  0.00    +0.000 A 
ATOM      5  C   UNL     1       6.109   5.009  16.153  0.00  0.00    +0.000 A 
ATOM      6  C   UNL     1       4.910   5.304  16.824  0.00  0.00    +0.000 A 
ENDROOT
BRANCH   5   7
ATOM      7  N   UNL     1       6.100   4.811  14.749  0.00  0.00    +0.000 N 
ATOM      8  C   UNL     1       4.983   4.197  14.075  0.00  0.00    +0.000 C 
ATOM      9  C   UNL     1       5.531   3.918  12.729  0.00  0.00    +0.000 C 
ATOM     10  C   UNL     1       6.756   4.411  12.552  0.00  0.00    +0.000 C 
ATOM     11  C   UNL     1       7.160   5.011  13.868  0.00  0.00    +0.000 C 
ATOM     12  O   UNL     1       8.259   5.509  14.049  0.00  0.00    +0.000 OA
BRANCH   9  13
ATOM     13  C   UNL     1       4.714   3.123  11.806  0.00  0.00    +0.000 C 
ATOM     14  F   UNL     1       4.501   3.771  10.632  0.00  0.00    +0.000 F 
ATOM     15  F   UNL     1       5.283   1.934  11.498  0.00  0.00    +0.000 F 
ATOM     16  F   UNL     1       3.490   2.858  12.327  0.00  0.00    +0.000 F 
ENDBRANCH   9  13
BRANCH  10  17
ATOM     17  N   UNL     1       7.624   4.375  11.492  0.00  0.00    +0.000 N 
ATOM     18  H   UNL     1       7.777   3.457  11.086  0.00  0.00    +0.000 HD
ATOM     19  H   UNL     1       8.493   4.872  11.700  0.00  0.00    +0.000 HD
ENDBRANCH  10  17
ENDBRANCH   5   7
BRANCH   1  20
ATOM     20  C   UNL     1       3.391   5.659  18.949  0.00  0.00    +0.000 C 
ATOM     21  C   UNL     1       3.065   7.131  19.406  0.00  0.00    +0.000 C 
ATOM     22  C   UNL     1       2.234   7.331  18.135  0.00  0.00    +0.000 C 
ATOM     23  C   UNL     1       2.163   5.809  17.971  0.00  0.00    +0.000 C 
BRANCH  20  24
ATOM     24  C   UNL     1       3.140   4.577  20.021  0.00  0.00    +0.000 C 
BRANCH  24  30
ATOM     25  C   UNL     1       3.551   1.942  18.283  0.00  0.00    +0.000 C 
ATOM     26  N   UNL     1       2.332   2.428  18.868  0.00  0.00    +0.000 N 
ATOM     27  C   UNL     1       1.106   1.857  18.695  0.00  0.00    +0.000 A 
ATOM     28  N   UNL     1       0.208   2.531  19.369  0.00  0.00    +0.000 NA
ATOM     29  N   UNL     1       0.851   3.581  19.979  0.00  0.00    +0.000 NA
ATOM     30  C   UNL     1       2.131   3.532  19.663  0.00  0.00    +0.000 A 
ENDBRANCH  24  30
ENDBRANCH  20  24
ENDBRANCH   1  20
TORSDOF 6
ENDMDL
