MODEL 1
REMARK VINA RESULT:      -9.5      0.000      0.000
REMARK  Name = 
REMARK  8 active torsions:
REMARK  status: ('A' for Active; 'I' for Inactive)
REMARK    1  A    between atoms: C_1  and  C_2
REMARK    2  A    between atoms: C_2  and  C_3
REMARK    3  A    between atoms: C_2  and  C_4
REMARK    4  A    between atoms: C_8  and  C_9
REMARK    5  A    between atoms: N_15  and  C_16
REMARK    6  A    between atoms: C_20  and  C_21
REMARK    7  A    between atoms: C_21  and  C_22
REMARK    8  A    between atoms: N_25  and  C_26
REMARK                            x       y       z     vdW  Elec       q    Type
REMARK                         _______ _______ _______ _____ _____    ______ ____
ROOT
ATOM      1  C   UNL     1       4.497   4.805  17.230  0.00  0.00    +0.000 A 
ATOM      2  C   UNL     1       4.121   6.148  17.339  0.00  0.00    +0.000 A 
ATOM      3  C   UNL     1       3.251   6.489  18.353  0.00  0.00    +0.000 A 
ATOM      4  C   UNL     1       2.743   5.555  19.253  0.00  0.00    +0.000 A 
ATOM      5  C   UNL     1       3.060   4.208  19.147  0.00  0.00    +0.000 A 
ATOM      6  C   UNL     1       3.945   3.848  18.117  0.00  0.00    +0.000 A 
ATOM      7  C   UNL     1       1.888   6.252  20.249  0.00  0.00    +0.000 C 
ATOM      8  N   UNL     1       1.901   7.640  19.810  0.00  0.00    +0.000 N 
ATOM      9  C   UNL     1       2.706   7.813  18.685  0.00  0.00    +0.000 C 
ATOM     10  O   UNL     1       2.963   8.803  18.026  0.00  0.00    +0.000 OA
ENDROOT
BRANCH   8  11
ATOM     11  C   UNL     1       1.086   8.612  20.431  0.00  0.00    +0.000 A 
ATOM     12  C   UNL     1       0.956   8.715  21.813  0.00  0.00    +0.000 A 
ATOM     13  C   UNL     1       0.231   9.763  22.378  0.00  0.00    +0.000 A 
ATOM     14  C   UNL     1      -0.372  10.725  21.564  0.00  0.00    +0.000 A 
ATOM     15  C   UNL     1      -0.299  10.651  20.161  0.00  0.00    +0.000 A 
ATOM     16  C   UNL     1       0.412   9.560  19.636  0.00  0.00    +0.000 A 
BRANCH  15  17
ATOM     17  C   UNL     1      -0.888  11.787  19.192  0.00  0.00    +0.000 C 
ATOM     18  C   UNL     1       0.120  12.601  18.345  0.00  0.00    +0.000 C 
ATOM     19  O   UNL     1      -0.508  13.851  18.727  0.00  0.00    +0.000 OA
ATOM     20  C   UNL     1      -1.196  13.179  19.806  0.00  0.00    +0.000 C 
BRANCH  17  21
ATOM     21  C   UNL     1      -2.062  11.087  18.418  0.00  0.00    +0.000 C 
ATOM     22  N   UNL     1      -3.300  11.444  18.585  0.00  0.00    +0.000 NA
ATOM     23  C   UNL     1      -4.026  10.685  17.549  0.00  0.00    +0.000 C 
ATOM     24  N   UNL     1      -3.083  10.040  16.622  0.00  0.00    +0.000 NA
ATOM     25  C   UNL     1      -2.923  10.859  15.417  0.00  0.00    +0.000 C 
ATOM     26  C   UNL     1      -1.839  10.007  17.391  0.00  0.00    +0.000 C 
ENDBRANCH  17  21
ENDBRANCH  15  17
ENDBRANCH   8  11
BRANCH   5  27
ATOM     27  C   UNL     1       2.510   3.152  20.069  0.00  0.00    +0.000 C 
ATOM     28  F   UNL     1       2.829   3.351  21.380  0.00  0.00    +0.000 F 
ATOM     29  F   UNL     1       1.152   3.082  20.026  0.00  0.00    +0.000 F 
ATOM     30  F   UNL     1       2.963   1.906  19.762  0.00  0.00    +0.000 F 
ENDBRANCH   5  27
BRANCH   1  32
ATOM     31  C   UNL     1       5.368   5.253  14.929  0.00  0.00    +0.000 C 
ATOM     32  C   UNL     1       5.522   4.397  16.189  0.00  0.00    +0.000 C 
ATOM     33  C   UNL     1       6.941   4.469  16.751  0.00  0.00    +0.000 C 
ENDBRANCH   1  32
TORSDOF 5
ENDMDL
MODEL 2
REMARK VINA RESULT:      -9.5      0.681      1.150
REMARK  Name = 
REMARK  8 active torsions:
REMARK  status: ('A' for Active; 'I' for Inactive)
REMARK    1  A    between atoms: C_1  and  C_2
REMARK    2  A    between atoms: C_2  and  C_3
REMARK    3  A    between atoms: C_2  and  C_4
REMARK    4  A    between atoms: C_8  and  C_9
REMARK    5  A    between atoms: N_15  and  C_16
REMARK    6  A    between atoms: C_20  and  C_21
REMARK    7  A    between atoms: C_21  and  C_22
REMARK    8  A    between atoms: N_25  and  C_26
REMARK                            x       y       z     vdW  Elec       q    Type
REMARK                         _______ _______ _______ _____ _____    ______ ____
ROOT
ATOM      1  C   UNL     1       4.906   5.458  16.411  0.00  0.00    +0.000 A 
ATOM      2  C   UNL     1       4.394   6.738  16.655  0.00  0.00    +0.000 A 
ATOM      3  C   UNL     1       3.533   6.891  17.721  0.00  0.00    +0.000 A 
ATOM      4  C   UNL     1       3.162   5.832  18.546  0.00  0.00    +0.000 A 
ATOM      5  C   UNL     1       3.615   4.541  18.307  0.00  0.00    +0.000 A 
ATOM      6  C   UNL     1       4.492   4.372  17.222  0.00  0.00    +0.000 A 
ATOM      7  C   UNL     1       2.277   6.340  19.626  0.00  0.00    +0.000 C 
ATOM      8  N   UNL     1       2.127   7.755  19.317  0.00  0.00    +0.000 N 
ATOM      9  C   UNL     1       2.865   8.113  18.190  0.00  0.00    +0.000 C 
ATOM     10  O   UNL     1       2.990   9.180  17.617  0.00  0.00    +0.000 OA
ENDROOT
BRANCH   8  11
ATOM     11  C   UNL     1       1.239   8.574  20.048  0.00  0.00    +0.000 A 
ATOM     12  C   UNL     1       1.078   8.469  21.427  0.00  0.00    +0.000 A 
ATOM     13  C   UNL     1       0.276   9.376  22.116  0.00  0.00    +0.000 A 
ATOM     14  C   UNL     1      -0.375  10.406  21.431  0.00  0.00    +0.000 A 
ATOM     15  C   UNL     1      -0.274  10.538  20.034  0.00  0.00    +0.000 A 
ATOM     16  C   UNL     1       0.517   9.582  19.378  0.00  0.00    +0.000 A 
BRANCH  15  17
ATOM     17  C   UNL     1      -0.921  11.762  19.222  0.00  0.00    +0.000 C 
ATOM     18  C   UNL     1       0.033  12.661  18.399  0.00  0.00    +0.000 C 
ATOM     19  O   UNL     1      -0.568  13.864  18.941  0.00  0.00    +0.000 OA
ATOM     20  C   UNL     1      -1.188  13.085  19.990  0.00  0.00    +0.000 C 
BRANCH  17  21
ATOM     21  C   UNL     1      -2.142  11.137  18.457  0.00  0.00    +0.000 C 
ATOM     22  N   UNL     1      -3.347  11.601  18.597  0.00  0.00    +0.000 NA
ATOM     23  C   UNL     1      -4.124  10.871  17.578  0.00  0.00    +0.000 C 
ATOM     24  N   UNL     1      -3.230  10.119  16.684  0.00  0.00    +0.000 NA
ATOM     25  C   UNL     1      -2.991  10.881  15.454  0.00  0.00    +0.000 C 
ATOM     26  C   UNL     1      -2.000  10.008  17.468  0.00  0.00    +0.000 C 
ENDBRANCH  17  21
ENDBRANCH  15  17
ENDBRANCH   8  11
BRANCH   5  27
ATOM     27  C   UNL     1       3.215   3.354  19.143  0.00  0.00    +0.000 C 
ATOM     28  F   UNL     1       1.870   3.132  19.167  0.00  0.00    +0.000 F 
ATOM     29  F   UNL     1       3.773   2.195  18.700  0.00  0.00    +0.000 F 
ATOM     30  F   UNL     1       3.592   3.484  20.444  0.00  0.00    +0.000 F 
ENDBRANCH   5  27
BRANCH   1  32
ATOM     31  C   UNL     1       7.271   4.825  15.901  0.00  0.00    +0.000 C 
ATOM     32  C   UNL     1       5.927   5.258  15.309  0.00  0.00    +0.000 C 
ATOM     33  C   UNL     1       5.424   4.263  14.263  0.00  0.00    +0.000 C 
ENDBRANCH   1  32
TORSDOF 5
ENDMDL
MODEL 3
REMARK VINA RESULT:      -9.3      1.637      2.546
REMARK  Name = 
REMARK  8 active torsions:
REMARK  status: ('A' for Active; 'I' for Inactive)
REMARK    1  A    between atoms: C_1  and  C_2
REMARK    2  A    between atoms: C_2  and  C_3
REMARK    3  A    between atoms: C_2  and  C_4
REMARK    4  A    between atoms: C_8  and  C_9
REMARK    5  A    between atoms: N_15  and  C_16
REMARK    6  A    between atoms: C_20  and  C_21
REMARK    7  A    between atoms: C_21  and  C_22
REMARK    8  A    between atoms: N_25  and  C_26
REMARK                            x       y       z     vdW  Elec       q    Type
REMARK                         _______ _______ _______ _____ _____    ______ ____
ROOT
ATOM      1  C   UNL     1       3.775   5.507  17.733  0.00  0.00    +0.000 A 
ATOM      2  C   UNL     1       3.344   6.835  17.818  0.00  0.00    +0.000 A 
ATOM      3  C   UNL     1       2.536   7.180  18.881  0.00  0.00    +0.000 A 
ATOM      4  C   UNL     1       2.142   6.264  19.853  0.00  0.00    +0.000 A 
ATOM      5  C   UNL     1       2.513   4.928  19.776  0.00  0.00    +0.000 A 
ATOM      6  C   UNL     1       3.335   4.565  18.697  0.00  0.00    +0.000 A 
ATOM      7  C   UNL     1       1.330   6.963  20.883  0.00  0.00    +0.000 C 
ATOM      8  N   UNL     1       1.244   8.330  20.390  0.00  0.00    +0.000 N 
ATOM      9  C   UNL     1       1.955   8.491  19.202  0.00  0.00    +0.000 C 
ATOM     10  O   UNL     1       2.115   9.463  18.487  0.00  0.00    +0.000 OA
ENDROOT
BRANCH   8  11
ATOM     11  C   UNL     1       0.433   9.291  21.033  0.00  0.00    +0.000 A 
ATOM     12  C   UNL     1       0.175   9.266  22.401  0.00  0.00    +0.000 A 
ATOM     13  C   UNL     1      -0.538  10.301  23.004  0.00  0.00    +0.000 A 
ATOM     14  C   UNL     1      -1.000  11.378  22.243  0.00  0.00    +0.000 A 
ATOM     15  C   UNL     1      -0.796  11.437  20.852  0.00  0.00    +0.000 A 
ATOM     16  C   UNL     1      -0.103  10.357  20.283  0.00  0.00    +0.000 A 
BRANCH  15  17
ATOM     17  C   UNL     1      -1.220  12.701  19.957  0.00  0.00    +0.000 C 
ATOM     18  C   UNL     1      -0.925  12.636  18.439  0.00  0.00    +0.000 C 
ATOM     19  O   UNL     1      -0.346  13.965  18.455  0.00  0.00    +0.000 OA
ATOM     20  C   UNL     1      -0.245  13.908  19.896  0.00  0.00    +0.000 C 
BRANCH  17  21
ATOM     21  C   UNL     1      -2.700  13.015  20.380  0.00  0.00    +0.000 C 
ATOM     22  N   UNL     1      -3.703  12.334  19.914  0.00  0.00    +0.000 NA
ATOM     23  C   UNL     1      -4.851  12.819  20.702  0.00  0.00    +0.000 C 
ATOM     24  N   UNL     1      -4.395  13.664  21.817  0.00  0.00    +0.000 NA
ATOM     25  C   UNL     1      -4.327  12.876  23.051  0.00  0.00    +0.000 C 
ATOM     26  C   UNL     1      -3.057  14.073  21.392  0.00  0.00    +0.000 C 
ENDBRANCH  17  21
ENDBRANCH  15  17
ENDBRANCH   8  11
BRANCH   5  27
ATOM     27  C   UNL     1       2.083   3.889  20.777  0.00  0.00    +0.000 C 
ATOM     28  F   UNL     1       2.611   2.654  20.543  0.00  0.00    +0.000 F 
ATOM     29  F   UNL     1       2.446   4.211  22.048  0.00  0.00    +0.000 F 
ATOM     30  F   UNL     1       0.733   3.717  20.801  0.00  0.00    +0.000 F 
ENDBRANCH   5  27
BRANCH   1  32
ATOM     31  C   UNL     1       5.160   6.327  15.819  0.00  0.00    +0.000 C 
ATOM     32  C   UNL     1       4.738   5.101  16.635  0.00  0.00    +0.000 C 
ATOM     33  C   UNL     1       5.946   4.359  17.204  0.00  0.00    +0.000 C 
ENDBRANCH   1  32
TORSDOF 5
ENDMDL
MODEL 4
REMARK VINA RESULT:      -9.2      1.858      2.700
REMARK  Name = 
REMARK  8 active torsions:
REMARK  status: ('A' for Active; 'I' for Inactive)
REMARK    1  A    between atoms: C_1  and  C_2
REMARK    2  A    between atoms: C_2  and  C_3
REMARK    3  A    between atoms: C_2  and  C_4
REMARK    4  A    between atoms: C_8  and  C_9
REMARK    5  A    between atoms: N_15  and  C_16
REMARK    6  A    between atoms: C_20  and  C_21
REMARK    7  A    between atoms: C_21  and  C_22
REMARK    8  A    between atoms: N_25  and  C_26
REMARK                            x       y       z     vdW  Elec       q    Type
REMARK                         _______ _______ _______ _____ _____    ______ ____
ROOT
ATOM      1  C   UNL     1       3.800   5.413  17.696  0.00  0.00    +0.000 A 
ATOM      2  C   UNL     1       3.359   6.735  17.817  0.00  0.00    +0.000 A 
ATOM      3  C   UNL     1       2.554   7.046  18.893  0.00  0.00    +0.000 A 
ATOM      4  C   UNL     1       2.170   6.101  19.842  0.00  0.00    +0.000 A 
ATOM      5  C   UNL     1       2.552   4.771  19.728  0.00  0.00    +0.000 A 
ATOM      6  C   UNL     1       3.372   4.442  18.635  0.00  0.00    +0.000 A 
ATOM      7  C   UNL     1       1.358   6.767  20.894  0.00  0.00    +0.000 C 
ATOM      8  N   UNL     1       1.260   8.145  20.438  0.00  0.00    +0.000 N 
ATOM      9  C   UNL     1       1.964   8.343  19.251  0.00  0.00    +0.000 C 
ATOM     10  O   UNL     1       2.113   9.334  18.561  0.00  0.00    +0.000 OA
ENDROOT
BRANCH   8  11
ATOM     11  C   UNL     1       0.444   9.082  21.109  0.00  0.00    +0.000 A 
ATOM     12  C   UNL     1       0.421   9.205  22.496  0.00  0.00    +0.000 A 
ATOM     13  C   UNL     1      -0.315  10.222  23.103  0.00  0.00    +0.000 A 
ATOM     14  C   UNL     1      -1.036  11.132  22.326  0.00  0.00    +0.000 A 
ATOM     15  C   UNL     1      -1.074  11.034  20.923  0.00  0.00    +0.000 A 
ATOM     16  C   UNL     1      -0.346   9.975  20.358  0.00  0.00    +0.000 A 
BRANCH  15  17
ATOM     17  C   UNL     1      -1.806  12.115  19.989  0.00  0.00    +0.000 C 
ATOM     18  C   UNL     1      -3.154  12.694  20.482  0.00  0.00    +0.000 C 
ATOM     19  O   UNL     1      -3.767  12.474  19.187  0.00  0.00    +0.000 OA
ATOM     20  C   UNL     1      -2.682  11.592  18.820  0.00  0.00    +0.000 C 
BRANCH  17  21
ATOM     21  C   UNL     1      -0.684  13.150  19.617  0.00  0.00    +0.000 C 
ATOM     22  N   UNL     1      -0.223  14.001  20.483  0.00  0.00    +0.000 NA
ATOM     23  C   UNL     1       0.919  14.624  19.789  0.00  0.00    +0.000 C 
ATOM     24  N   UNL     1       1.224  13.904  18.543  0.00  0.00    +0.000 NA
ATOM     25  C   UNL     1       2.323  12.958  18.765  0.00  0.00    +0.000 C 
ATOM     26  C   UNL     1      -0.021  13.189  18.263  0.00  0.00    +0.000 C 
ENDBRANCH  17  21
ENDBRANCH  15  17
ENDBRANCH   8  11
BRANCH   5  27
ATOM     27  C   UNL     1       2.134   3.702  20.703  0.00  0.00    +0.000 C 
ATOM     28  F   UNL     1       2.707   2.489  20.461  0.00  0.00    +0.000 F 
ATOM     29  F   UNL     1       2.459   4.015  21.987  0.00  0.00    +0.000 F 
ATOM     30  F   UNL     1       0.791   3.486  20.694  0.00  0.00    +0.000 F 
ENDBRANCH   5  27
BRANCH   1  32
ATOM     31  C   UNL     1       5.171   6.294  15.799  0.00  0.00    +0.000 C 
ATOM     32  C   UNL     1       4.761   5.044  16.583  0.00  0.00    +0.000 C 
ATOM     33  C   UNL     1       5.976   4.294  17.126  0.00  0.00    +0.000 C 
ENDBRANCH   1  32
TORSDOF 5
ENDMDL
MODEL 5
REMARK VINA RESULT:      -9.2      1.257      1.760
REMARK  Name = 
REMARK  8 active torsions:
REMARK  status: ('A' for Active; 'I' for Inactive)
REMARK    1  A    between atoms: C_1  and  C_2
REMARK    2  A    between atoms: C_2  and  C_3
REMARK    3  A    between atoms: C_2  and  C_4
REMARK    4  A    between atoms: C_8  and  C_9
REMARK    5  A    between atoms: N_15  and  C_16
REMARK    6  A    between atoms: C_20  and  C_21
REMARK    7  A    between atoms: C_21  and  C_22
REMARK    8  A    between atoms: N_25  and  C_26
REMARK                            x       y       z     vdW  Elec       q    Type
REMARK                         _______ _______ _______ _____ _____    ______ ____
ROOT
ATOM      1  C   UNL     1       3.731   5.774  17.735  0.00  0.00    +0.000 A 
ATOM      2  C   UNL     1       3.252   7.084  17.852  0.00  0.00    +0.000 A 
ATOM      3  C   UNL     1       2.436   7.375  18.925  0.00  0.00    +0.000 A 
ATOM      4  C   UNL     1       2.078   6.422  19.877  0.00  0.00    +0.000 A 
ATOM      5  C   UNL     1       2.498   5.103  19.768  0.00  0.00    +0.000 A 
ATOM      6  C   UNL     1       3.329   4.795  18.677  0.00  0.00    +0.000 A 
ATOM      7  C   UNL     1       1.246   7.068  20.925  0.00  0.00    +0.000 C 
ATOM      8  N   UNL     1       1.109   8.442  20.465  0.00  0.00    +0.000 N 
ATOM      9  C   UNL     1       1.809   8.656  19.278  0.00  0.00    +0.000 C 
ATOM     10  O   UNL     1       1.932   9.649  18.586  0.00  0.00    +0.000 OA
ENDROOT
BRANCH   8  11
ATOM     11  C   UNL     1       0.265   9.357  21.132  0.00  0.00    +0.000 A 
ATOM     12  C   UNL     1      -0.051   9.244  22.483  0.00  0.00    +0.000 A 
ATOM     13  C   UNL     1      -0.795  10.236  23.119  0.00  0.00    +0.000 A 
ATOM     14  C   UNL     1      -1.229  11.359  22.410  0.00  0.00    +0.000 A 
ATOM     15  C   UNL     1      -0.966  11.507  21.036  0.00  0.00    +0.000 A 
ATOM     16  C   UNL     1      -0.243  10.468  20.429  0.00  0.00    +0.000 A 
BRANCH  15  17
ATOM     17  C   UNL     1      -1.357  12.825  20.207  0.00  0.00    +0.000 C 
ATOM     18  C   UNL     1      -0.272  13.918  20.042  0.00  0.00    +0.000 C 
ATOM     19  O   UNL     1      -1.207  14.958  20.425  0.00  0.00    +0.000 OA
ATOM     20  C   UNL     1      -2.107  13.960  20.955  0.00  0.00    +0.000 C 
BRANCH  17  21
ATOM     21  C   UNL     1      -2.028  12.289  18.892  0.00  0.00    +0.000 C 
ATOM     22  N   UNL     1      -1.389  12.256  17.762  0.00  0.00    +0.000 NA
ATOM     23  C   UNL     1      -2.299  11.518  16.866  0.00  0.00    +0.000 C 
ATOM     24  N   UNL     1      -3.410  10.927  17.628  0.00  0.00    +0.000 NA
ATOM     25  C   UNL     1      -3.125   9.520  17.925  0.00  0.00    +0.000 C 
ATOM     26  C   UNL     1      -3.424  11.721  18.857  0.00  0.00    +0.000 C 
ENDBRANCH  17  21
ENDBRANCH  15  17
ENDBRANCH   8  11
BRANCH   5  27
ATOM     27  C   UNL     1       2.109   4.026  20.745  0.00  0.00    +0.000 C 
ATOM     28  F   UNL     1       0.767   3.790  20.792  0.00  0.00    +0.000 F 
ATOM     29  F   UNL     1       2.685   2.828  20.455  0.00  0.00    +0.000 F 
ATOM     30  F   UNL     1       2.477   4.324  22.021  0.00  0.00    +0.000 F 
ENDBRANCH   5  27
BRANCH   1  32
ATOM     31  C   UNL     1       6.015   6.199  16.811  0.00  0.00    +0.000 C 
ATOM     32  C   UNL     1       4.704   5.430  16.625  0.00  0.00    +0.000 C 
ATOM     33  C   UNL     1       4.941   3.922  16.545  0.00  0.00    +0.000 C 
ENDBRANCH   1  32
TORSDOF 5
ENDMDL
MODEL 6
REMARK VINA RESULT:      -9.2      1.606      2.703
REMARK  Name = 
REMARK  8 active torsions:
REMARK  status: ('A' for Active; 'I' for Inactive)
REMARK    1  A    between atoms: C_1  and  C_2
REMARK    2  A    between atoms: C_2  and  C_3
REMARK    3  A    between atoms: C_2  and  C_4
REMARK    4  A    between atoms: C_8  and  C_9
REMARK    5  A    between atoms: N_15  and  C_16
REMARK    6  A    between atoms: C_20  and  C_21
REMARK    7  A    between atoms: C_21  and  C_22
REMARK    8  A    between atoms: N_25  and  C_26
REMARK                            x       y       z     vdW  Elec       q    Type
REMARK                         _______ _______ _______ _____ _____    ______ ____
ROOT
ATOM      1  C   UNL     1       4.638   4.726  17.230  0.00  0.00    +0.000 A 
ATOM      2  C   UNL     1       4.183   6.049  17.262  0.00  0.00    +0.000 A 
ATOM      3  C   UNL     1       3.349   6.415  18.297  0.00  0.00    +0.000 A 
ATOM      4  C   UNL     1       2.950   5.524  19.292  0.00  0.00    +0.000 A 
ATOM      5  C   UNL     1       3.345   4.194  19.267  0.00  0.00    +0.000 A 
ATOM      6  C   UNL     1       4.195   3.808  18.216  0.00  0.00    +0.000 A 
ATOM      7  C   UNL     1       2.107   6.244  20.282  0.00  0.00    +0.000 C 
ATOM      8  N   UNL     1       2.009   7.592  19.742  0.00  0.00    +0.000 N 
ATOM      9  C   UNL     1       2.740   7.725  18.563  0.00  0.00    +0.000 C 
ATOM     10  O   UNL     1       2.898   8.675  17.819  0.00  0.00    +0.000 OA
ENDROOT
BRANCH   8  11
ATOM     11  C   UNL     1       1.168   8.559  20.336  0.00  0.00    +0.000 A 
ATOM     12  C   UNL     1       1.092   8.747  21.714  0.00  0.00    +0.000 A 
ATOM     13  C   UNL     1       0.334   9.791  22.243  0.00  0.00    +0.000 A 
ATOM     14  C   UNL     1      -0.355  10.663  21.397  0.00  0.00    +0.000 A 
ATOM     15  C   UNL     1      -0.339  10.499  20.000  0.00  0.00    +0.000 A 
ATOM     16  C   UNL     1       0.409   9.415  19.514  0.00  0.00    +0.000 A 
BRANCH  15  17
ATOM     17  C   UNL     1      -1.031  11.535  18.988  0.00  0.00    +0.000 C 
ATOM     18  C   UNL     1      -2.514  11.903  19.241  0.00  0.00    +0.000 C 
ATOM     19  O   UNL     1      -2.846  11.689  17.846  0.00  0.00    +0.000 OA
ATOM     20  C   UNL     1      -1.601  10.980  17.655  0.00  0.00    +0.000 C 
BRANCH  17  21
ATOM     21  C   UNL     1      -0.015  12.727  18.874  0.00  0.00    +0.000 C 
ATOM     22  N   UNL     1      -0.383  13.960  19.051  0.00  0.00    +0.000 NA
ATOM     23  C   UNL     1       0.887  14.709  19.049  0.00  0.00    +0.000 C 
ATOM     24  N   UNL     1       2.033  13.787  19.090  0.00  0.00    +0.000 NA
ATOM     25  C   UNL     1       2.518  13.649  20.467  0.00  0.00    +0.000 C 
ATOM     26  C   UNL     1       1.457  12.528  18.618  0.00  0.00    +0.000 C 
ENDBRANCH  17  21
ENDBRANCH  15  17
ENDBRANCH   8  11
BRANCH   5  27
ATOM     27  C   UNL     1       2.912   3.181  20.294  0.00  0.00    +0.000 C 
ATOM     28  F   UNL     1       1.787   2.496  19.944  0.00  0.00    +0.000 F 
ATOM     29  F   UNL     1       3.863   2.236  20.524  0.00  0.00    +0.000 F 
ATOM     30  F   UNL     1       2.641   3.748  21.501  0.00  0.00    +0.000 F 
ENDBRANCH   5  27
BRANCH   1  32
ATOM     31  C   UNL     1       5.374   5.069  14.865  0.00  0.00    +0.000 C 
ATOM     32  C   UNL     1       5.629   4.300  16.165  0.00  0.00    +0.000 C 
ATOM     33  C   UNL     1       7.068   4.470  16.648  0.00  0.00    +0.000 C 
ENDBRANCH   1  32
TORSDOF 5
ENDMDL
MODEL 7
REMARK VINA RESULT:      -9.2      1.245      1.545
REMARK  Name = 
REMARK  8 active torsions:
REMARK  status: ('A' for Active; 'I' for Inactive)
REMARK    1  A    between atoms: C_1  and  C_2
REMARK    2  A    between atoms: C_2  and  C_3
REMARK    3  A    between atoms: C_2  and  C_4
REMARK    4  A    between atoms: C_8  and  C_9
REMARK    5  A    between atoms: N_15  and  C_16
REMARK    6  A    between atoms: C_20  and  C_21
REMARK    7  A    between atoms: C_21  and  C_22
REMARK    8  A    between atoms: N_25  and  C_26
REMARK                            x       y       z     vdW  Elec       q    Type
REMARK                         _______ _______ _______ _____ _____    ______ ____
ROOT
ATOM      1  C   UNL     1       3.884   5.426  17.699  0.00  0.00    +0.000 A 
ATOM      2  C   UNL     1       3.440   6.753  17.733  0.00  0.00    +0.000 A 
ATOM      3  C   UNL     1       2.623   7.128  18.778  0.00  0.00    +0.000 A 
ATOM      4  C   UNL     1       2.231   6.243  19.781  0.00  0.00    +0.000 A 
ATOM      5  C   UNL     1       2.616   4.910  19.754  0.00  0.00    +0.000 A 
ATOM      6  C   UNL     1       3.447   4.515  18.693  0.00  0.00    +0.000 A 
ATOM      7  C   UNL     1       1.407   6.972  20.780  0.00  0.00    +0.000 C 
ATOM      8  N   UNL     1       1.312   8.320  20.238  0.00  0.00    +0.000 N 
ATOM      9  C   UNL     1       2.028   8.444  19.049  0.00  0.00    +0.000 C 
ATOM     10  O   UNL     1       2.183   9.391  18.300  0.00  0.00    +0.000 OA
ENDROOT
BRANCH   8  11
ATOM     11  C   UNL     1       0.487   9.295  20.841  0.00  0.00    +0.000 A 
ATOM     12  C   UNL     1       0.352   9.419  22.221  0.00  0.00    +0.000 A 
ATOM     13  C   UNL     1      -0.383  10.470  22.767  0.00  0.00    +0.000 A 
ATOM     14  C   UNL     1      -0.991  11.414  21.936  0.00  0.00    +0.000 A 
ATOM     15  C   UNL     1      -0.914  11.317  20.534  0.00  0.00    +0.000 A 
ATOM     16  C   UNL     1      -0.192  10.224  20.029  0.00  0.00    +0.000 A 
BRANCH  15  17
ATOM     17  C   UNL     1      -1.510  12.432  19.546  0.00  0.00    +0.000 C 
ATOM     18  C   UNL     1      -0.742  12.710  18.231  0.00  0.00    +0.000 C 
ATOM     19  O   UNL     1      -0.807  14.142  18.449  0.00  0.00    +0.000 OA
ATOM     20  C   UNL     1      -1.164  13.919  19.832  0.00  0.00    +0.000 C 
BRANCH  17  21
ATOM     21  C   UNL     1      -3.035  12.081  19.415  0.00  0.00    +0.000 C 
ATOM     22  N   UNL     1      -3.945  12.717  20.089  0.00  0.00    +0.000 NA
ATOM     23  C   UNL     1      -5.213  12.214  19.529  0.00  0.00    +0.000 C 
ATOM     24  N   UNL     1      -4.964  11.411  18.322  0.00  0.00    +0.000 NA
ATOM     25  C   UNL     1      -5.163  12.230  17.123  0.00  0.00    +0.000 C 
ATOM     26  C   UNL     1      -3.557  11.035  18.462  0.00  0.00    +0.000 C 
ENDBRANCH  17  21
ENDBRANCH  15  17
ENDBRANCH   8  11
BRANCH   5  27
ATOM     27  C   UNL     1       2.189   3.903  20.790  0.00  0.00    +0.000 C 
ATOM     28  F   UNL     1       2.725   2.664  20.599  0.00  0.00    +0.000 F 
ATOM     29  F   UNL     1       2.547   4.271  22.050  0.00  0.00    +0.000 F 
ATOM     30  F   UNL     1       0.840   3.723  20.816  0.00  0.00    +0.000 F 
ENDBRANCH   5  27
BRANCH   1  32
ATOM     31  C   UNL     1       5.206   6.172  15.712  0.00  0.00    +0.000 C 
ATOM     32  C   UNL     1       4.857   4.990  16.621  0.00  0.00    +0.000 C 
ATOM     33  C   UNL     1       6.107   4.356  17.228  0.00  0.00    +0.000 C 
ENDBRANCH   1  32
TORSDOF 5
ENDMDL
MODEL 8
REMARK VINA RESULT:      -9.1      1.942      3.034
REMARK  Name = 
REMARK  8 active torsions:
REMARK  status: ('A' for Active; 'I' for Inactive)
REMARK    1  A    between atoms: C_1  and  C_2
REMARK    2  A    between atoms: C_2  and  C_3
REMARK    3  A    between atoms: C_2  and  C_4
REMARK    4  A    between atoms: C_8  and  C_9
REMARK    5  A    between atoms: N_15  and  C_16
REMARK    6  A    between atoms: C_20  and  C_21
REMARK    7  A    between atoms: C_21  and  C_22
REMARK    8  A    between atoms: N_25  and  C_26
REMARK                            x       y       z     vdW  Elec       q    Type
REMARK                         _______ _______ _______ _____ _____    ______ ____
ROOT
ATOM      1  C   UNL     1       4.762   4.371  16.621  0.00  0.00    +0.000 A 
ATOM      2  C   UNL     1       4.475   5.718  16.872  0.00  0.00    +0.000 A 
ATOM      3  C   UNL     1       3.614   6.006  17.909  0.00  0.00    +0.000 A 
ATOM      4  C   UNL     1       3.030   5.018  18.699  0.00  0.00    +0.000 A 
ATOM      5  C   UNL     1       3.257   3.671  18.450  0.00  0.00    +0.000 A 
ATOM      6  C   UNL     1       4.132   3.364  17.394  0.00  0.00    +0.000 A 
ATOM      7  C   UNL     1       2.208   5.660  19.757  0.00  0.00    +0.000 C 
ATOM      8  N   UNL     1       2.321   7.083  19.471  0.00  0.00    +0.000 N 
ATOM      9  C   UNL     1       3.154   7.321  18.379  0.00  0.00    +0.000 C 
ATOM     10  O   UNL     1       3.487   8.356  17.833  0.00  0.00    +0.000 OA
ENDROOT
BRANCH   8  11
ATOM     11  C   UNL     1       1.564   8.036  20.187  0.00  0.00    +0.000 A 
ATOM     12  C   UNL     1       1.350   7.953  21.560  0.00  0.00    +0.000 A 
ATOM     13  C   UNL     1       0.693   8.979  22.237  0.00  0.00    +0.000 A 
ATOM     14  C   UNL     1       0.243  10.107  21.545  0.00  0.00    +0.000 A 
ATOM     15  C   UNL     1       0.402  10.227  20.152  0.00  0.00    +0.000 A 
ATOM     16  C   UNL     1       1.039   9.154  19.508  0.00  0.00    +0.000 A 
BRANCH  15  17
ATOM     17  C   UNL     1      -0.008  11.546  19.335  0.00  0.00    +0.000 C 
ATOM     18  C   UNL     1      -1.262  12.322  19.807  0.00  0.00    +0.000 C 
ATOM     19  O   UNL     1      -1.772  12.400  18.452  0.00  0.00    +0.000 OA
ATOM     20  C   UNL     1      -0.847  11.368  18.041  0.00  0.00    +0.000 C 
BRANCH  17  21
ATOM     21  C   UNL     1       1.325  12.367  19.200  0.00  0.00    +0.000 C 
ATOM     22  N   UNL     1       1.959  12.459  18.071  0.00  0.00    +0.000 NA
ATOM     23  C   UNL     1       3.013  13.454  18.342  0.00  0.00    +0.000 C 
ATOM     24  N   UNL     1       2.795  14.099  19.646  0.00  0.00    +0.000 NA
ATOM     25  C   UNL     1       2.114  15.385  19.463  0.00  0.00    +0.000 C 
ATOM     26  C   UNL     1       1.925  13.150  20.339  0.00  0.00    +0.000 C 
ENDBRANCH  17  21
ENDBRANCH  15  17
ENDBRANCH   8  11
BRANCH   5  27
ATOM     27  C   UNL     1       2.622   2.562  19.247  0.00  0.00    +0.000 C 
ATOM     28  F   UNL     1       2.967   1.315  18.818  0.00  0.00    +0.000 F 
ATOM     29  F   UNL     1       2.962   2.608  20.563  0.00  0.00    +0.000 F 
ATOM     30  F   UNL     1       1.262   2.605  19.205  0.00  0.00    +0.000 F 
ENDBRANCH   5  27
BRANCH   1  32
ATOM     31  C   UNL     1       5.240   4.386  14.166  0.00  0.00    +0.000 C 
ATOM     32  C   UNL     1       5.773   4.008  15.551  0.00  0.00    +0.000 C 
ATOM     33  C   UNL     1       7.129   4.655  15.830  0.00  0.00    +0.000 C 
ENDBRANCH   1  32
TORSDOF 5
ENDMDL
MODEL 9
REMARK VINA RESULT:      -9.0      1.528      2.176
REMARK  Name = 
REMARK  8 active torsions:
REMARK  status: ('A' for Active; 'I' for Inactive)
REMARK    1  A    between atoms: C_1  and  C_2
REMARK    2  A    between atoms: C_2  and  C_3
REMARK    3  A    between atoms: C_2  and  C_4
REMARK    4  A    between atoms: C_8  and  C_9
REMARK    5  A    between atoms: N_15  and  C_16
REMARK    6  A    between atoms: C_20  and  C_21
REMARK    7  A    between atoms: C_21  and  C_22
REMARK    8  A    between atoms: N_25  and  C_26
REMARK                            x       y       z     vdW  Elec       q    Type
REMARK                         _______ _______ _______ _____ _____    ______ ____
ROOT
ATOM      1  C   UNL     1       4.775   4.288  16.622  0.00  0.00    +0.000 A 
ATOM      2  C   UNL     1       4.485   5.636  16.860  0.00  0.00    +0.000 A 
ATOM      3  C   UNL     1       3.612   5.933  17.884  0.00  0.00    +0.000 A 
ATOM      4  C   UNL     1       3.018   4.951  18.674  0.00  0.00    +0.000 A 
ATOM      5  C   UNL     1       3.247   3.602  18.438  0.00  0.00    +0.000 A 
ATOM      6  C   UNL     1       4.135   3.287  17.395  0.00  0.00    +0.000 A 
ATOM      7  C   UNL     1       2.183   5.602  19.717  0.00  0.00    +0.000 C 
ATOM      8  N   UNL     1       2.300   7.022  19.422  0.00  0.00    +0.000 N 
ATOM      9  C   UNL     1       3.147   7.251  18.338  0.00  0.00    +0.000 C 
ATOM     10  O   UNL     1       3.487   8.282  17.789  0.00  0.00    +0.000 OA
ENDROOT
BRANCH   8  11
ATOM     11  C   UNL     1       1.535   7.981  20.121  0.00  0.00    +0.000 A 
ATOM     12  C   UNL     1       0.957   7.725  21.362  0.00  0.00    +0.000 A 
ATOM     13  C   UNL     1       0.308   8.741  22.062  0.00  0.00    +0.000 A 
ATOM     14  C   UNL     1       0.233  10.031  21.528  0.00  0.00    +0.000 A 
ATOM     15  C   UNL     1       0.771  10.336  20.264  0.00  0.00    +0.000 A 
ATOM     16  C   UNL     1       1.384   9.274  19.581  0.00  0.00    +0.000 A 
BRANCH  15  17
ATOM     17  C   UNL     1       0.796  11.822  19.659  0.00  0.00    +0.000 C 
ATOM     18  C   UNL     1       1.682  12.075  18.415  0.00  0.00    +0.000 C 
ATOM     19  O   UNL     1       2.254  13.265  19.015  0.00  0.00    +0.000 OA
ATOM     20  C   UNL     1       1.756  12.856  20.309  0.00  0.00    +0.000 C 
BRANCH  17  21
ATOM     21  C   UNL     1      -0.715  12.239  19.551  0.00  0.00    +0.000 C 
ATOM     22  N   UNL     1      -1.587  11.496  18.939  0.00  0.00    +0.000 NA
ATOM     23  C   UNL     1      -2.875  12.147  19.241  0.00  0.00    +0.000 C 
ATOM     24  N   UNL     1      -2.702  13.188  20.266  0.00  0.00    +0.000 NA
ATOM     25  C   UNL     1      -3.056  12.659  21.586  0.00  0.00    +0.000 C 
ATOM     26  C   UNL     1      -1.270  13.483  20.196  0.00  0.00    +0.000 C 
ENDBRANCH  17  21
ENDBRANCH  15  17
ENDBRANCH   8  11
BRANCH   5  27
ATOM     27  C   UNL     1       2.601   2.500  19.235  0.00  0.00    +0.000 C 
ATOM     28  F   UNL     1       1.239   2.522  19.192  0.00  0.00    +0.000 F 
ATOM     29  F   UNL     1       2.965   1.263  18.800  0.00  0.00    +0.000 F 
ATOM     30  F   UNL     1       2.932   2.550  20.554  0.00  0.00    +0.000 F 
ENDBRANCH   5  27
BRANCH   1  32
ATOM     31  C   UNL     1       5.299   4.320  14.177  0.00  0.00    +0.000 C 
ATOM     32  C   UNL     1       5.799   3.917  15.568  0.00  0.00    +0.000 C 
ATOM     33  C   UNL     1       7.162   4.533  15.879  0.00  0.00    +0.000 C 
ENDBRANCH   1  32
TORSDOF 5
ENDMDL
