MODEL 1
REMARK VINA RESULT:      -8.4      0.000      0.000
REMARK  Name = 
REMARK  7 active torsions:
REMARK  status: ('A' for Active; 'I' for Inactive)
REMARK    1  A    between atoms: C_1  and  C_2
REMARK    2  A    between atoms: C_2  and  N_3
REMARK    3  A    between atoms: C_2  and  C_21
REMARK    4  A    between atoms: C_4  and  C_6
REMARK    5  A    between atoms: C_6  and  N_7
REMARK    6  A    between atoms: C_11  and  C_12
REMARK    7  A    between atoms: C_11  and  C_13
REMARK                            x       y       z     vdW  Elec       q    Type
REMARK                         _______ _______ _______ _____ _____    ______ ____
ROOT
ATOM      1  N   UNL     1       0.490   9.893  18.641  0.00  0.00    +0.000 N 
ATOM      2  C   UNL     1       1.640   9.627  17.964  0.00  0.00    +0.000 C 
ATOM      3  O   UNL     1       2.508  10.481  17.737  0.00  0.00    +0.000 OA
ATOM      4  H   UNL     1      -0.276   9.224  18.666  0.00  0.00    +0.000 HD
ENDROOT
BRANCH   1   6
ATOM      5  C   UNL     1       0.911  11.385  20.588  0.00  0.00    +0.000 C 
ATOM      6  C   UNL     1       0.257  11.223  19.217  0.00  0.00    +0.000 C 
BRANCH   6   7
ATOM      7  C   UNL     1      -1.209  11.600  19.139  0.00  0.00    +0.000 A 
ATOM      8  C   UNL     1      -1.683  12.426  20.170  0.00  0.00    +0.000 A 
ATOM      9  C   UNL     1      -3.038  12.669  20.314  0.00  0.00    +0.000 A 
ATOM     10  C   UNL     1      -3.931  12.223  19.342  0.00  0.00    +0.000 A 
ATOM     11  C   UNL     1      -5.296  12.463  19.499  0.00  0.00    +0.000 A 
ATOM     12  C   UNL     1      -6.100  12.596  18.379  0.00  0.00    +0.000 A 
ATOM     13  C   UNL     1      -5.633  12.112  17.164  0.00  0.00    +0.000 A 
ATOM     14  C   UNL     1      -4.373  11.500  17.096  0.00  0.00    +0.000 A 
ATOM     15  C   UNL     1      -3.462  11.622  18.166  0.00  0.00    +0.000 A 
ATOM     16  C   UNL     1      -2.107  11.208  18.127  0.00  0.00    +0.000 A 
ENDBRANCH   6   7
ENDBRANCH   1   6
BRANCH   2  17
ATOM     17  C   UNL     1       1.802   8.198  17.495  0.00  0.00    +0.000 C 
BRANCH  17  18
ATOM     18  N   UNL     1       2.580   7.406  18.420  0.00  0.00    +0.000 N 
ATOM     19  C   UNL     1       2.333   7.299  19.755  0.00  0.00    +0.000 C 
ATOM     20  O   UNL     1       1.510   7.894  20.430  0.00  0.00    +0.000 OA
ATOM     21  N   UNL     1       3.182   6.335  20.264  0.00  0.00    +0.000 N 
ATOM     22  C   UNL     1       3.722   5.514  19.193  0.00  0.00    +0.000 C 
ATOM     23  C   UNL     1       5.169   5.127  19.426  0.00  0.00    +0.000 C 
ATOM     24  C   UNL     1       3.540   6.523  18.029  0.00  0.00    +0.000 C 
ATOM     25  O   UNL     1       4.017   6.482  16.912  0.00  0.00    +0.000 OA
ATOM     26  H   UNL     1       3.035   6.031  21.218  0.00  0.00    +0.000 HD
BRANCH  22  27
ATOM     27  C   UNL     1       2.843   4.275  18.948  0.00  0.00    +0.000 A 
ATOM     28  C   UNL     1       1.700   4.050  19.724  0.00  0.00    +0.000 A 
ATOM     29  C   UNL     1       0.899   2.924  19.526  0.00  0.00    +0.000 A 
ATOM     30  C   UNL     1       1.220   2.008  18.530  0.00  0.00    +0.000 A 
ATOM     31  C   UNL     1       2.342   2.215  17.735  0.00  0.00    +0.000 A 
ATOM     32  C   UNL     1       3.147   3.340  17.936  0.00  0.00    +0.000 A 
ENDBRANCH  22  27
ENDBRANCH  17  18
ENDBRANCH   2  17
TORSDOF 5
ENDMDL
MODEL 2
REMARK VINA RESULT:      -8.3      2.471      9.083
REMARK  Name = 
REMARK  7 active torsions:
REMARK  status: ('A' for Active; 'I' for Inactive)
REMARK    1  A    between atoms: C_1  and  C_2
REMARK    2  A    between atoms: C_2  and  N_3
REMARK    3  A    between atoms: C_2  and  C_21
REMARK    4  A    between atoms: C_4  and  C_6
REMARK    5  A    between atoms: C_6  and  N_7
REMARK    6  A    between atoms: C_11  and  C_12
REMARK    7  A    between atoms: C_11  and  C_13
REMARK                            x       y       z     vdW  Elec       q    Type
REMARK                         _______ _______ _______ _____ _____    ______ ____
ROOT
ATOM      1  N   UNL     1       2.196   7.101  20.283  0.00  0.00    +0.000 N 
ATOM      2  C   UNL     1       1.229   7.788  20.951  0.00  0.00    +0.000 C 
ATOM      3  O   UNL     1       0.150   7.284  21.290  0.00  0.00    +0.000 OA
ATOM      4  H   UNL     1       2.994   7.578  19.871  0.00  0.00    +0.000 HD
ENDROOT
BRANCH   1   6
ATOM      5  C   UNL     1       2.157   4.808  21.251  0.00  0.00    +0.000 C 
ATOM      6  C   UNL     1       2.029   5.671  19.997  0.00  0.00    +0.000 C 
BRANCH   6   7
ATOM      7  C   UNL     1       2.884   5.249  18.819  0.00  0.00    +0.000 A 
ATOM      8  C   UNL     1       2.802   3.895  18.459  0.00  0.00    +0.000 A 
ATOM      9  C   UNL     1       3.681   3.356  17.536  0.00  0.00    +0.000 A 
ATOM     10  C   UNL     1       4.554   4.187  16.838  0.00  0.00    +0.000 A 
ATOM     11  C   UNL     1       5.443   3.636  15.917  0.00  0.00    +0.000 A 
ATOM     12  C   UNL     1       5.860   4.390  14.832  0.00  0.00    +0.000 A 
ATOM     13  C   UNL     1       5.707   5.769  14.883  0.00  0.00    +0.000 A 
ATOM     14  C   UNL     1       5.147   6.366  16.021  0.00  0.00    +0.000 A 
ATOM     15  C   UNL     1       4.480   5.580  16.984  0.00  0.00    +0.000 A 
ATOM     16  C   UNL     1       3.721   6.094  18.065  0.00  0.00    +0.000 A 
ENDBRANCH   6   7
ENDBRANCH   1   6
BRANCH   2  17
ATOM     17  C   UNL     1       1.556   9.232  21.263  0.00  0.00    +0.000 C 
BRANCH  17  18
ATOM     18  N   UNL     1       0.558  10.140  20.748  0.00  0.00    +0.000 N 
ATOM     19  C   UNL     1      -0.139  11.040  21.497  0.00  0.00    +0.000 C 
ATOM     20  O   UNL     1      -0.138  11.191  22.707  0.00  0.00    +0.000 OA
ATOM     21  N   UNL     1      -0.870  11.830  20.631  0.00  0.00    +0.000 N 
ATOM     22  C   UNL     1      -0.355  11.716  19.276  0.00  0.00    +0.000 C 
ATOM     23  C   UNL     1      -1.453  11.731  18.231  0.00  0.00    +0.000 C 
ATOM     24  C   UNL     1       0.332  10.333  19.419  0.00  0.00    +0.000 C 
ATOM     25  O   UNL     1       0.752   9.603  18.542  0.00  0.00    +0.000 OA
ATOM     26  H   UNL     1      -1.340  12.641  21.013  0.00  0.00    +0.000 HD
BRANCH  22  27
ATOM     27  C   UNL     1       0.703  12.796  18.993  0.00  0.00    +0.000 A 
ATOM     28  C   UNL     1       0.408  14.150  19.189  0.00  0.00    +0.000 A 
ATOM     29  C   UNL     1       1.351  15.144  18.923  0.00  0.00    +0.000 A 
ATOM     30  C   UNL     1       2.618  14.797  18.472  0.00  0.00    +0.000 A 
ATOM     31  C   UNL     1       2.944  13.458  18.282  0.00  0.00    +0.000 A 
ATOM     32  C   UNL     1       1.998  12.462  18.544  0.00  0.00    +0.000 A 
ENDBRANCH  22  27
ENDBRANCH  17  18
ENDBRANCH   2  17
TORSDOF 5
ENDMDL
MODEL 3
REMARK VINA RESULT:      -8.3      0.528      1.612
REMARK  Name = 
REMARK  7 active torsions:
REMARK  status: ('A' for Active; 'I' for Inactive)
REMARK    1  A    between atoms: C_1  and  C_2
REMARK    2  A    between atoms: C_2  and  N_3
REMARK    3  A    between atoms: C_2  and  C_21
REMARK    4  A    between atoms: C_4  and  C_6
REMARK    5  A    between atoms: C_6  and  N_7
REMARK    6  A    between atoms: C_11  and  C_12
REMARK    7  A    between atoms: C_11  and  C_13
REMARK                            x       y       z     vdW  Elec       q    Type
REMARK                         _______ _______ _______ _____ _____    ______ ____
ROOT
ATOM      1  N   UNL     1       0.188   9.694  18.442  0.00  0.00    +0.000 N 
ATOM      2  C   UNL     1       1.472   9.596  18.002  0.00  0.00    +0.000 C 
ATOM      3  O   UNL     1       2.279  10.534  18.048  0.00  0.00    +0.000 OA
ATOM      4  H   UNL     1      -0.498   8.971  18.240  0.00  0.00    +0.000 HD
ENDROOT
BRANCH   1   6
ATOM      5  C   UNL     1       0.121  11.015  20.551  0.00  0.00    +0.000 C 
ATOM      6  C   UNL     1      -0.286  10.928  19.081  0.00  0.00    +0.000 C 
BRANCH   6   7
ATOM      7  C   UNL     1      -1.756  11.160  18.792  0.00  0.00    +0.000 A 
ATOM      8  C   UNL     1      -2.294  10.414  17.732  0.00  0.00    +0.000 A 
ATOM      9  C   UNL     1      -3.562  10.687  17.250  0.00  0.00    +0.000 A 
ATOM     10  C   UNL     1      -4.378  11.600  17.914  0.00  0.00    +0.000 A 
ATOM     11  C   UNL     1      -5.651  11.877  17.417  0.00  0.00    +0.000 A 
ATOM     12  C   UNL     1      -6.659  12.256  18.288  0.00  0.00    +0.000 A 
ATOM     13  C   UNL     1      -6.307  12.725  19.547  0.00  0.00    +0.000 A 
ATOM     14  C   UNL     1      -4.955  12.811  19.906  0.00  0.00    +0.000 A 
ATOM     15  C   UNL     1      -3.968  12.168  19.128  0.00  0.00    +0.000 A 
ATOM     16  C   UNL     1      -2.606  12.033  19.498  0.00  0.00    +0.000 A 
ENDBRANCH   6   7
ENDBRANCH   1   6
BRANCH   2  17
ATOM     17  C   UNL     1       1.865   8.246  17.443  0.00  0.00    +0.000 C 
BRANCH  17  18
ATOM     18  N   UNL     1       2.613   7.459  18.395  0.00  0.00    +0.000 N 
ATOM     19  C   UNL     1       2.337   7.376  19.727  0.00  0.00    +0.000 C 
ATOM     20  O   UNL     1       1.508   7.992  20.375  0.00  0.00    +0.000 OA
ATOM     21  N   UNL     1       3.162   6.409  20.268  0.00  0.00    +0.000 N 
ATOM     22  C   UNL     1       3.713   5.564  19.221  0.00  0.00    +0.000 C 
ATOM     23  C   UNL     1       5.150   5.162  19.490  0.00  0.00    +0.000 C 
ATOM     24  C   UNL     1       3.569   6.558  18.039  0.00  0.00    +0.000 C 
ATOM     25  O   UNL     1       4.069   6.493  16.932  0.00  0.00    +0.000 OA
ATOM     26  H   UNL     1       2.992   6.122  21.223  0.00  0.00    +0.000 HD
BRANCH  22  27
ATOM     27  C   UNL     1       2.823   4.333  18.976  0.00  0.00    +0.000 A 
ATOM     28  C   UNL     1       3.144   3.411  17.974  0.00  0.00    +0.000 A 
ATOM     29  C   UNL     1       2.340   2.298  17.728  0.00  0.00    +0.000 A 
ATOM     30  C   UNL     1       1.204   2.076  18.497  0.00  0.00    +0.000 A 
ATOM     31  C   UNL     1       0.869   2.969  19.510  0.00  0.00    +0.000 A 
ATOM     32  C   UNL     1       1.672   4.087  19.754  0.00  0.00    +0.000 A 
ENDBRANCH  22  27
ENDBRANCH  17  18
ENDBRANCH   2  17
TORSDOF 5
ENDMDL
MODEL 4
REMARK VINA RESULT:      -8.3      1.944      8.606
REMARK  Name = 
REMARK  7 active torsions:
REMARK  status: ('A' for Active; 'I' for Inactive)
REMARK    1  A    between atoms: C_1  and  C_2
REMARK    2  A    between atoms: C_2  and  N_3
REMARK    3  A    between atoms: C_2  and  C_21
REMARK    4  A    between atoms: C_4  and  C_6
REMARK    5  A    between atoms: C_6  and  N_7
REMARK    6  A    between atoms: C_11  and  C_12
REMARK    7  A    between atoms: C_11  and  C_13
REMARK                            x       y       z     vdW  Elec       q    Type
REMARK                         _______ _______ _______ _____ _____    ______ ____
ROOT
ATOM      1  N   UNL     1       1.995   7.198  20.537  0.00  0.00    +0.000 N 
ATOM      2  C   UNL     1       0.920   7.960  20.879  0.00  0.00    +0.000 C 
ATOM      3  O   UNL     1      -0.243   7.536  20.871  0.00  0.00    +0.000 OA
ATOM      4  H   UNL     1       2.912   7.612  20.389  0.00  0.00    +0.000 HD
ENDROOT
BRANCH   1   6
ATOM      5  C   UNL     1       1.991   4.875  21.431  0.00  0.00    +0.000 C 
ATOM      6  C   UNL     1       1.824   5.777  20.209  0.00  0.00    +0.000 C 
BRANCH   6   7
ATOM      7  C   UNL     1       2.647   5.397  18.995  0.00  0.00    +0.000 A 
ATOM      8  C   UNL     1       2.408   4.117  18.472  0.00  0.00    +0.000 A 
ATOM      9  C   UNL     1       3.235   3.587  17.497  0.00  0.00    +0.000 A 
ATOM     10  C   UNL     1       4.217   4.382  16.910  0.00  0.00    +0.000 A 
ATOM     11  C   UNL     1       5.052   3.839  15.935  0.00  0.00    +0.000 A 
ATOM     12  C   UNL     1       5.581   4.660  14.952  0.00  0.00    +0.000 A 
ATOM     13  C   UNL     1       5.596   6.032  15.169  0.00  0.00    +0.000 A 
ATOM     14  C   UNL     1       5.088   6.553  16.367  0.00  0.00    +0.000 A 
ATOM     15  C   UNL     1       4.310   5.745  17.224  0.00  0.00    +0.000 A 
ATOM     16  C   UNL     1       3.597   6.217  18.354  0.00  0.00    +0.000 A 
ENDBRANCH   6   7
ENDBRANCH   1   6
BRANCH   2  17
ATOM     17  C   UNL     1       1.236   9.385  21.280  0.00  0.00    +0.000 C 
BRANCH  17  18
ATOM     18  N   UNL     1       1.090  10.307  20.178  0.00  0.00    +0.000 N 
ATOM     19  C   UNL     1       1.452  10.047  18.890  0.00  0.00    +0.000 C 
ATOM     20  O   UNL     1       2.034   9.074  18.442  0.00  0.00    +0.000 OA
ATOM     21  N   UNL     1       1.008  11.097  18.109  0.00  0.00    +0.000 N 
ATOM     22  C   UNL     1       0.000  11.869  18.816  0.00  0.00    +0.000 C 
ATOM     23  C   UNL     1       0.112  13.357  18.551  0.00  0.00    +0.000 C 
ATOM     24  C   UNL     1       0.397  11.476  20.263  0.00  0.00    +0.000 C 
ATOM     25  O   UNL     1       0.047  11.988  21.309  0.00  0.00    +0.000 OA
ATOM     26  H   UNL     1       1.073  10.999  17.104  0.00  0.00    +0.000 HD
BRANCH  22  27
ATOM     27  C   UNL     1      -1.414  11.349  18.506  0.00  0.00    +0.000 A 
ATOM     28  C   UNL     1      -1.595  10.206  17.719  0.00  0.00    +0.000 A 
ATOM     29  C   UNL     1      -2.871   9.729  17.414  0.00  0.00    +0.000 A 
ATOM     30  C   UNL     1      -3.993  10.380  17.911  0.00  0.00    +0.000 A 
ATOM     31  C   UNL     1      -3.843  11.510  18.708  0.00  0.00    +0.000 A 
ATOM     32  C   UNL     1      -2.565  11.991  19.009  0.00  0.00    +0.000 A 
ENDBRANCH  22  27
ENDBRANCH  17  18
ENDBRANCH   2  17
TORSDOF 5
ENDMDL
MODEL 5
REMARK VINA RESULT:      -8.1      2.584      9.514
REMARK  Name = 
REMARK  7 active torsions:
REMARK  status: ('A' for Active; 'I' for Inactive)
REMARK    1  A    between atoms: C_1  and  C_2
REMARK    2  A    between atoms: C_2  and  N_3
REMARK    3  A    between atoms: C_2  and  C_21
REMARK    4  A    between atoms: C_4  and  C_6
REMARK    5  A    between atoms: C_6  and  N_7
REMARK    6  A    between atoms: C_11  and  C_12
REMARK    7  A    between atoms: C_11  and  C_13
REMARK                            x       y       z     vdW  Elec       q    Type
REMARK                         _______ _______ _______ _____ _____    ______ ____
ROOT
ATOM      1  N   UNL     1       0.561   9.276  20.165  0.00  0.00    +0.000 N 
ATOM      2  C   UNL     1       0.561  10.321  21.038  0.00  0.00    +0.000 C 
ATOM      3  O   UNL     1       1.567  10.997  21.289  0.00  0.00    +0.000 OA
ATOM      4  H   UNL     1      -0.227   8.637  20.104  0.00  0.00    +0.000 HD
ENDROOT
BRANCH   1   6
ATOM      5  C   UNL     1       1.809   9.638  18.042  0.00  0.00    +0.000 C 
ATOM      6  C   UNL     1       1.772   8.946  19.403  0.00  0.00    +0.000 C 
BRANCH   6   7
ATOM      7  C   UNL     1       2.011   7.449  19.386  0.00  0.00    +0.000 A 
ATOM      8  C   UNL     1       2.558   6.932  18.201  0.00  0.00    +0.000 A 
ATOM      9  C   UNL     1       2.632   5.565  17.996  0.00  0.00    +0.000 A 
ATOM     10  C   UNL     1       2.310   4.688  19.029  0.00  0.00    +0.000 A 
ATOM     11  C   UNL     1       2.378   3.312  18.812  0.00  0.00    +0.000 A 
ATOM     12  C   UNL     1       2.658   2.465  19.872  0.00  0.00    +0.000 A 
ATOM     13  C   UNL     1       2.481   2.939  21.166  0.00  0.00    +0.000 A 
ATOM     14  C   UNL     1       2.023   4.247  21.372  0.00  0.00    +0.000 A 
ATOM     15  C   UNL     1       2.011   5.176  20.309  0.00  0.00    +0.000 A 
ATOM     16  C   UNL     1       1.749   6.561  20.447  0.00  0.00    +0.000 A 
ENDBRANCH   6   7
ENDBRANCH   1   6
BRANCH   2  17
ATOM     17  C   UNL     1      -0.770  10.616  21.695  0.00  0.00    +0.000 C 
BRANCH  17  18
ATOM     18  N   UNL     1      -1.386  11.811  21.166  0.00  0.00    +0.000 N 
ATOM     19  C   UNL     1      -1.926  11.924  19.921  0.00  0.00    +0.000 C 
ATOM     20  O   UNL     1      -1.915  11.117  19.007  0.00  0.00    +0.000 OA
ATOM     21  N   UNL     1      -2.557  13.151  19.847  0.00  0.00    +0.000 N 
ATOM     22  C   UNL     1      -2.779  13.692  21.177  0.00  0.00    +0.000 C 
ATOM     23  C   UNL     1      -2.590  15.195  21.236  0.00  0.00    +0.000 C 
ATOM     24  C   UNL     1      -1.668  12.908  21.922  0.00  0.00    +0.000 C 
ATOM     25  O   UNL     1      -1.220  13.105  23.035  0.00  0.00    +0.000 OA
ATOM     26  H   UNL     1      -3.129  13.340  19.034  0.00  0.00    +0.000 HD
BRANCH  22  27
ATOM     27  C   UNL     1      -4.159  13.280  21.719  0.00  0.00    +0.000 A 
ATOM     28  C   UNL     1      -5.137  12.769  20.859  0.00  0.00    +0.000 A 
ATOM     29  C   UNL     1      -6.399  12.404  21.330  0.00  0.00    +0.000 A 
ATOM     30  C   UNL     1      -6.699  12.527  22.682  0.00  0.00    +0.000 A 
ATOM     31  C   UNL     1      -5.740  13.018  23.563  0.00  0.00    +0.000 A 
ATOM     32  C   UNL     1      -4.478  13.388  23.089  0.00  0.00    +0.000 A 
ENDBRANCH  22  27
ENDBRANCH  17  18
ENDBRANCH   2  17
TORSDOF 5
ENDMDL
MODEL 6
REMARK VINA RESULT:      -8.0      2.878      9.598
REMARK  Name = 
REMARK  7 active torsions:
REMARK  status: ('A' for Active; 'I' for Inactive)
REMARK    1  A    between atoms: C_1  and  C_2
REMARK    2  A    between atoms: C_2  and  N_3
REMARK    3  A    between atoms: C_2  and  C_21
REMARK    4  A    between atoms: C_4  and  C_6
REMARK    5  A    between atoms: C_6  and  N_7
REMARK    6  A    between atoms: C_11  and  C_12
REMARK    7  A    between atoms: C_11  and  C_13
REMARK                            x       y       z     vdW  Elec       q    Type
REMARK                         _______ _______ _______ _____ _____    ______ ____
ROOT
ATOM      1  N   UNL     1       0.669   9.241  20.222  0.00  0.00    +0.000 N 
ATOM      2  C   UNL     1       0.677  10.347  21.016  0.00  0.00    +0.000 C 
ATOM      3  O   UNL     1       1.642  11.118  21.097  0.00  0.00    +0.000 OA
ATOM      4  H   UNL     1      -0.061   8.538  20.300  0.00  0.00    +0.000 HD
ENDROOT
BRANCH   1   6
ATOM      5  C   UNL     1       1.667   9.610  17.972  0.00  0.00    +0.000 C 
ATOM      6  C   UNL     1       1.808   8.951  19.342  0.00  0.00    +0.000 C 
BRANCH   6   7
ATOM      7  C   UNL     1       2.120   7.468  19.329  0.00  0.00    +0.000 A 
ATOM      8  C   UNL     1       2.816   7.000  18.204  0.00  0.00    +0.000 A 
ATOM      9  C   UNL     1       2.978   5.643  17.988  0.00  0.00    +0.000 A 
ATOM     10  C   UNL     1       2.588   4.731  18.966  0.00  0.00    +0.000 A 
ATOM     11  C   UNL     1       2.745   3.365  18.738  0.00  0.00    +0.000 A 
ATOM     12  C   UNL     1       2.949   2.510  19.809  0.00  0.00    +0.000 A 
ATOM     13  C   UNL     1       2.611   2.949  21.082  0.00  0.00    +0.000 A 
ATOM     14  C   UNL     1       2.070   4.230  21.257  0.00  0.00    +0.000 A 
ATOM     15  C   UNL     1       2.129   5.178  20.213  0.00  0.00    +0.000 A 
ATOM     16  C   UNL     1       1.787   6.548  20.342  0.00  0.00    +0.000 A 
ENDBRANCH   6   7
ENDBRANCH   1   6
BRANCH   2  17
ATOM     17  C   UNL     1      -0.590  10.584  21.810  0.00  0.00    +0.000 C 
BRANCH  17  18
ATOM     18  N   UNL     1      -1.186  11.866  21.513  0.00  0.00    +0.000 N 
ATOM     19  C   UNL     1      -1.929  12.144  20.405  0.00  0.00    +0.000 C 
ATOM     20  O   UNL     1      -2.151  11.436  19.438  0.00  0.00    +0.000 OA
ATOM     21  N   UNL     1      -2.455  13.412  20.559  0.00  0.00    +0.000 N 
ATOM     22  C   UNL     1      -2.388  13.828  21.950  0.00  0.00    +0.000 C 
ATOM     23  C   UNL     1      -2.062  15.300  22.105  0.00  0.00    +0.000 C 
ATOM     24  C   UNL     1      -1.232  12.897  22.402  0.00  0.00    +0.000 C 
ATOM     25  O   UNL     1      -0.576  12.947  23.425  0.00  0.00    +0.000 OA
ATOM     26  H   UNL     1      -3.146  13.722  19.888  0.00  0.00    +0.000 HD
BRANCH  22  27
ATOM     27  C   UNL     1      -3.677  13.456  22.702  0.00  0.00    +0.000 A 
ATOM     28  C   UNL     1      -3.617  12.809  23.942  0.00  0.00    +0.000 A 
ATOM     29  C   UNL     1      -4.776  12.451  24.631  0.00  0.00    +0.000 A 
ATOM     30  C   UNL     1      -6.023  12.753  24.097  0.00  0.00    +0.000 A 
ATOM     31  C   UNL     1      -6.114  13.409  22.873  0.00  0.00    +0.000 A 
ATOM     32  C   UNL     1      -4.952  13.763  22.180  0.00  0.00    +0.000 A 
ENDBRANCH  22  27
ENDBRANCH  17  18
ENDBRANCH   2  17
TORSDOF 5
ENDMDL
MODEL 7
REMARK VINA RESULT:      -8.0      2.586      9.295
REMARK  Name = 
REMARK  7 active torsions:
REMARK  status: ('A' for Active; 'I' for Inactive)
REMARK    1  A    between atoms: C_1  and  C_2
REMARK    2  A    between atoms: C_2  and  N_3
REMARK    3  A    between atoms: C_2  and  C_21
REMARK    4  A    between atoms: C_4  and  C_6
REMARK    5  A    between atoms: C_6  and  N_7
REMARK    6  A    between atoms: C_11  and  C_12
REMARK    7  A    between atoms: C_11  and  C_13
REMARK                            x       y       z     vdW  Elec       q    Type
REMARK                         _______ _______ _______ _____ _____    ______ ____
ROOT
ATOM      1  N   UNL     1       2.218   6.786  20.561  0.00  0.00    +0.000 N 
ATOM      2  C   UNL     1       1.215   7.572  21.041  0.00  0.00    +0.000 C 
ATOM      3  O   UNL     1       0.026   7.228  21.047  0.00  0.00    +0.000 OA
ATOM      4  H   UNL     1       3.154   7.153  20.412  0.00  0.00    +0.000 HD
ENDROOT
BRANCH   1   6
ATOM      5  C   UNL     1       1.945   4.401  21.220  0.00  0.00    +0.000 C 
ATOM      6  C   UNL     1       1.933   5.425  20.087  0.00  0.00    +0.000 C 
BRANCH   6   7
ATOM      7  C   UNL     1       2.782   5.081  18.881  0.00  0.00    +0.000 A 
ATOM      8  C   UNL     1       2.679   3.760  18.418  0.00  0.00    +0.000 A 
ATOM      9  C   UNL     1       3.550   3.279  17.456  0.00  0.00    +0.000 A 
ATOM     10  C   UNL     1       4.438   4.147  16.824  0.00  0.00    +0.000 A 
ATOM     11  C   UNL     1       5.319   3.653  15.864  0.00  0.00    +0.000 A 
ATOM     12  C   UNL     1       5.750   4.481  14.840  0.00  0.00    +0.000 A 
ATOM     13  C   UNL     1       5.620   5.855  14.997  0.00  0.00    +0.000 A 
ATOM     14  C   UNL     1       5.068   6.372  16.177  0.00  0.00    +0.000 A 
ATOM     15  C   UNL     1       4.386   5.525  17.077  0.00  0.00    +0.000 A 
ATOM     16  C   UNL     1       3.635   5.968  18.194  0.00  0.00    +0.000 A 
ENDBRANCH   6   7
ENDBRANCH   1   6
BRANCH   2  17
ATOM     17  C   UNL     1       1.648   8.918  21.580  0.00  0.00    +0.000 C 
BRANCH  17  18
ATOM     18  N   UNL     1       0.587   9.896  21.520  0.00  0.00    +0.000 N 
ATOM     19  C   UNL     1      -0.142  10.322  22.589  0.00  0.00    +0.000 C 
ATOM     20  O   UNL     1      -0.120   9.919  23.739  0.00  0.00    +0.000 OA
ATOM     21  N   UNL     1      -0.940  11.368  22.163  0.00  0.00    +0.000 N 
ATOM     22  C   UNL     1      -0.452  11.901  20.902  0.00  0.00    +0.000 C 
ATOM     23  C   UNL     1      -1.574  12.311  19.968  0.00  0.00    +0.000 C 
ATOM     24  C   UNL     1       0.318  10.645  20.416  0.00  0.00    +0.000 C 
ATOM     25  O   UNL     1       0.758  10.411  19.307  0.00  0.00    +0.000 OA
ATOM     26  H   UNL     1      -1.446  11.893  22.864  0.00  0.00    +0.000 HD
BRANCH  22  27
ATOM     27  C   UNL     1       0.535  13.058  21.134  0.00  0.00    +0.000 A 
ATOM     28  C   UNL     1       0.166  14.161  21.913  0.00  0.00    +0.000 A 
ATOM     29  C   UNL     1       1.043  15.227  22.121  0.00  0.00    +0.000 A 
ATOM     30  C   UNL     1       2.317  15.198  21.567  0.00  0.00    +0.000 A 
ATOM     31  C   UNL     1       2.715  14.108  20.801  0.00  0.00    +0.000 A 
ATOM     32  C   UNL     1       1.835  13.042  20.587  0.00  0.00    +0.000 A 
ENDBRANCH  22  27
ENDBRANCH  17  18
ENDBRANCH   2  17
TORSDOF 5
ENDMDL
MODEL 8
REMARK VINA RESULT:      -8.0      2.570      9.121
REMARK  Name = 
REMARK  7 active torsions:
REMARK  status: ('A' for Active; 'I' for Inactive)
REMARK    1  A    between atoms: C_1  and  C_2
REMARK    2  A    between atoms: C_2  and  N_3
REMARK    3  A    between atoms: C_2  and  C_21
REMARK    4  A    between atoms: C_4  and  C_6
REMARK    5  A    between atoms: C_6  and  N_7
REMARK    6  A    between atoms: C_11  and  C_12
REMARK    7  A    between atoms: C_11  and  C_13
REMARK                            x       y       z     vdW  Elec       q    Type
REMARK                         _______ _______ _______ _____ _____    ______ ____
ROOT
ATOM      1  N   UNL     1       2.163   7.546  20.364  0.00  0.00    +0.000 N 
ATOM      2  C   UNL     1       1.096   8.039  21.052  0.00  0.00    +0.000 C 
ATOM      3  O   UNL     1       0.056   7.395  21.246  0.00  0.00    +0.000 OA
ATOM      4  H   UNL     1       2.930   8.147  20.075  0.00  0.00    +0.000 HD
ENDROOT
BRANCH   1   6
ATOM      5  C   UNL     1       2.303   5.146  21.008  0.00  0.00    +0.000 C 
ATOM      6  C   UNL     1       2.156   6.161  19.876  0.00  0.00    +0.000 C 
BRANCH   6   7
ATOM      7  C   UNL     1       3.111   5.991  18.712  0.00  0.00    +0.000 A 
ATOM      8  C   UNL     1       3.651   7.175  18.188  0.00  0.00    +0.000 A 
ATOM      9  C   UNL     1       4.371   7.160  17.006  0.00  0.00    +0.000 A 
ATOM     10  C   UNL     1       4.701   5.946  16.407  0.00  0.00    +0.000 A 
ATOM     11  C   UNL     1       5.418   5.938  15.212  0.00  0.00    +0.000 A 
ATOM     12  C   UNL     1       6.249   4.869  14.918  0.00  0.00    +0.000 A 
ATOM     13  C   UNL     1       6.062   3.675  15.604  0.00  0.00    +0.000 A 
ATOM     14  C   UNL     1       5.045   3.575  16.563  0.00  0.00    +0.000 A 
ATOM     15  C   UNL     1       4.401   4.734  17.046  0.00  0.00    +0.000 A 
ATOM     16  C   UNL     1       3.502   4.765  18.140  0.00  0.00    +0.000 A 
ENDBRANCH   6   7
ENDBRANCH   1   6
BRANCH   2  17
ATOM     17  C   UNL     1       1.259   9.448  21.579  0.00  0.00    +0.000 C 
BRANCH  17  18
ATOM     18  N   UNL     1       0.274  10.352  21.030  0.00  0.00    +0.000 N 
ATOM     19  C   UNL     1      -0.429  11.270  21.751  0.00  0.00    +0.000 C 
ATOM     20  O   UNL     1      -0.446  11.444  22.957  0.00  0.00    +0.000 OA
ATOM     21  N   UNL     1      -1.143  12.046  20.858  0.00  0.00    +0.000 N 
ATOM     22  C   UNL     1      -0.607  11.903  19.515  0.00  0.00    +0.000 C 
ATOM     23  C   UNL     1      -1.689  11.904  18.452  0.00  0.00    +0.000 C 
ATOM     24  C   UNL     1       0.070  10.520  19.695  0.00  0.00    +0.000 C 
ATOM     25  O   UNL     1       0.500   9.771  18.838  0.00  0.00    +0.000 OA
ATOM     26  H   UNL     1      -1.614  12.867  21.217  0.00  0.00    +0.000 HD
BRANCH  22  27
ATOM     27  C   UNL     1       0.461  12.972  19.227  0.00  0.00    +0.000 A 
ATOM     28  C   UNL     1       1.785  12.601  18.964  0.00  0.00    +0.000 A 
ATOM     29  C   UNL     1       2.771  13.557  18.717  0.00  0.00    +0.000 A 
ATOM     30  C   UNL     1       2.444  14.908  18.710  0.00  0.00    +0.000 A 
ATOM     31  C   UNL     1       1.133  15.305  18.955  0.00  0.00    +0.000 A 
ATOM     32  C   UNL     1       0.146  14.347  19.208  0.00  0.00    +0.000 A 
ENDBRANCH  22  27
ENDBRANCH  17  18
ENDBRANCH   2  17
TORSDOF 5
ENDMDL
MODEL 9
REMARK VINA RESULT:      -8.0      2.825      9.204
REMARK  Name = 
REMARK  7 active torsions:
REMARK  status: ('A' for Active; 'I' for Inactive)
REMARK    1  A    between atoms: C_1  and  C_2
REMARK    2  A    between atoms: C_2  and  N_3
REMARK    3  A    between atoms: C_2  and  C_21
REMARK    4  A    between atoms: C_4  and  C_6
REMARK    5  A    between atoms: C_6  and  N_7
REMARK    6  A    between atoms: C_11  and  C_12
REMARK    7  A    between atoms: C_11  and  C_13
REMARK                            x       y       z     vdW  Elec       q    Type
REMARK                         _______ _______ _______ _____ _____    ______ ____
ROOT
ATOM      1  N   UNL     1       2.107   7.382  20.588  0.00  0.00    +0.000 N 
ATOM      2  C   UNL     1       1.036   7.943  21.214  0.00  0.00    +0.000 C 
ATOM      3  O   UNL     1      -0.096   7.439  21.207  0.00  0.00    +0.000 OA
ATOM      4  H   UNL     1       2.976   7.894  20.466  0.00  0.00    +0.000 HD
ENDROOT
BRANCH   1   6
ATOM      5  C   UNL     1       1.973   4.918  20.917  0.00  0.00    +0.000 C 
ATOM      6  C   UNL     1       1.980   6.079  19.923  0.00  0.00    +0.000 C 
BRANCH   6   7
ATOM      7  C   UNL     1       2.963   5.957  18.776  0.00  0.00    +0.000 A 
ATOM      8  C   UNL     1       3.504   7.162  18.305  0.00  0.00    +0.000 A 
ATOM      9  C   UNL     1       4.250   7.193  17.140  0.00  0.00    +0.000 A 
ATOM     10  C   UNL     1       4.605   6.003  16.509  0.00  0.00    +0.000 A 
ATOM     11  C   UNL     1       5.349   6.042  15.331  0.00  0.00    +0.000 A 
ATOM     12  C   UNL     1       6.196   4.990  15.020  0.00  0.00    +0.000 A 
ATOM     13  C   UNL     1       6.005   3.773  15.661  0.00  0.00    +0.000 A 
ATOM     14  C   UNL     1       4.968   3.631  16.592  0.00  0.00    +0.000 A 
ATOM     15  C   UNL     1       4.302   4.768  17.099  0.00  0.00    +0.000 A 
ATOM     16  C   UNL     1       3.378   4.753  18.173  0.00  0.00    +0.000 A 
ENDBRANCH   6   7
ENDBRANCH   1   6
BRANCH   2  17
ATOM     17  C   UNL     1       1.314   9.243  21.937  0.00  0.00    +0.000 C 
BRANCH  17  18
ATOM     18  N   UNL     1       0.494  10.326  21.446  0.00  0.00    +0.000 N 
ATOM     19  C   UNL     1      -0.416  11.014  22.190  0.00  0.00    +0.000 C 
ATOM     20  O   UNL     1      -0.780  10.808  23.335  0.00  0.00    +0.000 OA
ATOM     21  N   UNL     1      -0.875  12.068  21.422  0.00  0.00    +0.000 N 
ATOM     22  C   UNL     1       0.024  12.317  20.307  0.00  0.00    +0.000 C 
ATOM     23  C   UNL     1      -0.712  12.707  19.040  0.00  0.00    +0.000 C 
ATOM     24  C   UNL     1       0.671  10.909  20.228  0.00  0.00    +0.000 C 
ATOM     25  O   UNL     1       1.351  10.439  19.337  0.00  0.00    +0.000 OA
ATOM     26  H   UNL     1      -1.457  12.763  21.872  0.00  0.00    +0.000 HD
BRANCH  22  27
ATOM     27  C   UNL     1       1.092  13.360  20.679  0.00  0.00    +0.000 A 
ATOM     28  C   UNL     1       0.829  14.331  21.652  0.00  0.00    +0.000 A 
ATOM     29  C   UNL     1       1.781  15.294  21.990  0.00  0.00    +0.000 A 
ATOM     30  C   UNL     1       3.025  15.290  21.372  0.00  0.00    +0.000 A 
ATOM     31  C   UNL     1       3.319  14.328  20.411  0.00  0.00    +0.000 A 
ATOM     32  C   UNL     1       2.364  13.365  20.068  0.00  0.00    +0.000 A 
ENDBRANCH  22  27
ENDBRANCH  17  18
ENDBRANCH   2  17
TORSDOF 5
ENDMDL
