MODEL 1
REMARK VINA RESULT:      -9.3      0.000      0.000
REMARK  Name = 
REMARK  5 active torsions:
REMARK  status: ('A' for Active; 'I' for Inactive)
REMARK    1  A    between atoms: C_1  and  C_2
REMARK    2  A    between atoms: C_2  and  N_3
REMARK    3  A    between atoms: C_2  and  C_17
REMARK    4  A    between atoms: N_3  and  C_4
REMARK    5  A    between atoms: C_6  and  C_7
REMARK                            x       y       z     vdW  Elec       q    Type
REMARK                         _______ _______ _______ _____ _____    ______ ____
ROOT
ATOM      1  N   UNL     1       5.945   4.217  18.631  0.00  0.00    +0.000 N 
ATOM      2  H   UNL     1       6.135   4.350  19.632  0.00  0.00    +0.000 HD
ENDROOT
BRANCH   1   3
ATOM      3  C   UNL     1       4.634   4.663  18.376  0.00  0.00    +0.000 A 
ATOM      4  C   UNL     1       4.271   5.956  18.308  0.00  0.00    +0.000 A 
ATOM      5  C   UNL     1       2.813   6.275  18.164  0.00  0.00    +0.000 A 
ATOM      6  N   UNL     1       1.887   5.371  17.973  0.00  0.00    +0.000 NA
ATOM      7  C   UNL     1       2.290   4.068  17.948  0.00  0.00    +0.000 A 
ATOM      8  N   UNL     1       1.569   2.981  17.766  0.00  0.00    +0.000 NA
ATOM      9  C   UNL     1       2.476   1.973  17.891  0.00  0.00    +0.000 A 
ATOM     10  N   UNL     1       3.731   2.340  18.153  0.00  0.00    +0.000 NA
ATOM     11  N   UNL     1       3.622   3.698  18.169  0.00  0.00    +0.000 N 
BRANCH   5  12
ATOM     12  C   UNL     1       2.434   7.752  18.288  0.00  0.00    +0.000 C 
ATOM     13  F   UNL     1       3.438   8.597  17.917  0.00  0.00    +0.000 F 
ATOM     14  F   UNL     1       1.364   8.075  17.511  0.00  0.00    +0.000 F 
ATOM     15  F   UNL     1       2.106   8.093  19.564  0.00  0.00    +0.000 F 
ENDBRANCH   5  12
ENDBRANCH   1   3
BRANCH   1  17
ATOM     16  C   UNL     1       7.476   6.116  18.245  0.00  0.00    +0.000 C 
ATOM     17  C   UNL     1       7.114   4.678  17.845  0.00  0.00    +0.000 C 
BRANCH  17  18
ATOM     18  C   UNL     1       6.994   4.588  16.345  0.00  0.00    +0.000 A 
ATOM     19  N   UNL     1       7.629   5.336  15.460  0.00  0.00    +0.000 NA
ATOM     20  C   UNL     1       7.252   4.865  14.231  0.00  0.00    +0.000 A 
ATOM     21  C   UNL     1       7.657   5.282  12.956  0.00  0.00    +0.000 A 
ATOM     22  C   UNL     1       7.143   4.613  11.839  0.00  0.00    +0.000 A 
ATOM     23  C   UNL     1       6.234   3.563  11.993  0.00  0.00    +0.000 A 
ATOM     24  C   UNL     1       5.805   3.146  13.260  0.00  0.00    +0.000 A 
ATOM     25  C   UNL     1       6.341   3.822  14.358  0.00  0.00    +0.000 A 
ATOM     26  N   UNL     1       6.169   3.685  15.713  0.00  0.00    +0.000 N 
ATOM     27  H   UNL     1       5.558   3.023  16.169  0.00  0.00    +0.000 HD
ENDBRANCH  17  18
ENDBRANCH   1  17
TORSDOF 4
ENDMDL
MODEL 2
REMARK VINA RESULT:      -9.1      3.135      6.671
REMARK  Name = 
REMARK  5 active torsions:
REMARK  status: ('A' for Active; 'I' for Inactive)
REMARK    1  A    between atoms: C_1  and  C_2
REMARK    2  A    between atoms: C_2  and  N_3
REMARK    3  A    between atoms: C_2  and  C_17
REMARK    4  A    between atoms: N_3  and  C_4
REMARK    5  A    between atoms: C_6  and  C_7
REMARK                            x       y       z     vdW  Elec       q    Type
REMARK                         _______ _______ _______ _____ _____    ______ ____
ROOT
ATOM      1  N   UNL     1       4.653   7.360  17.360  0.00  0.00    +0.000 N 
ATOM      2  H   UNL     1       5.011   7.632  18.284  0.00  0.00    +0.000 HD
ENDROOT
BRANCH   1   3
ATOM      3  C   UNL     1       5.517   6.381  16.832  0.00  0.00    +0.000 A 
ATOM      4  C   UNL     1       5.472   5.931  15.566  0.00  0.00    +0.000 A 
ATOM      5  C   UNL     1       6.368   4.790  15.188  0.00  0.00    +0.000 A 
ATOM      6  N   UNL     1       7.281   4.290  15.981  0.00  0.00    +0.000 NA
ATOM      7  C   UNL     1       7.376   4.827  17.231  0.00  0.00    +0.000 A 
ATOM      8  N   UNL     1       8.205   4.514  18.207  0.00  0.00    +0.000 NA
ATOM      9  C   UNL     1       7.815   5.327  19.227  0.00  0.00    +0.000 A 
ATOM     10  N   UNL     1       6.783   6.133  18.976  0.00  0.00    +0.000 NA
ATOM     11  N   UNL     1       6.507   5.830  17.677  0.00  0.00    +0.000 N 
BRANCH   5  12
ATOM     12  C   UNL     1       6.141   4.189  13.800  0.00  0.00    +0.000 C 
ATOM     13  F   UNL     1       4.864   4.350  13.348  0.00  0.00    +0.000 F 
ATOM     14  F   UNL     1       6.946   4.752  12.858  0.00  0.00    +0.000 F 
ATOM     15  F   UNL     1       6.385   2.851  13.773  0.00  0.00    +0.000 F 
ENDBRANCH   5  12
ENDBRANCH   1   3
BRANCH   1  17
ATOM     16  C   UNL     1       2.514   8.489  17.855  0.00  0.00    +0.000 C 
ATOM     17  C   UNL     1       3.185   7.172  17.438  0.00  0.00    +0.000 C 
BRANCH  17  18
ATOM     18  C   UNL     1       2.695   6.054  18.323  0.00  0.00    +0.000 A 
ATOM     19  N   UNL     1       1.993   5.003  17.941  0.00  0.00    +0.000 NA
ATOM     20  C   UNL     1       1.824   4.237  19.064  0.00  0.00    +0.000 A 
ATOM     21  C   UNL     1       1.180   3.001  19.210  0.00  0.00    +0.000 A 
ATOM     22  C   UNL     1       1.166   2.399  20.473  0.00  0.00    +0.000 A 
ATOM     23  C   UNL     1       1.767   3.025  21.568  0.00  0.00    +0.000 A 
ATOM     24  C   UNL     1       2.400   4.269  21.443  0.00  0.00    +0.000 A 
ATOM     25  C   UNL     1       2.409   4.843  20.170  0.00  0.00    +0.000 A 
ATOM     26  N   UNL     1       2.931   6.015  19.678  0.00  0.00    +0.000 N 
ATOM     27  H   UNL     1       3.420   6.716  20.213  0.00  0.00    +0.000 HD
ENDBRANCH  17  18
ENDBRANCH   1  17
TORSDOF 4
ENDMDL
MODEL 3
REMARK VINA RESULT:      -9.1      3.147      6.603
REMARK  Name = 
REMARK  5 active torsions:
REMARK  status: ('A' for Active; 'I' for Inactive)
REMARK    1  A    between atoms: C_1  and  C_2
REMARK    2  A    between atoms: C_2  and  N_3
REMARK    3  A    between atoms: C_2  and  C_17
REMARK    4  A    between atoms: N_3  and  C_4
REMARK    5  A    between atoms: C_6  and  C_7
REMARK                            x       y       z     vdW  Elec       q    Type
REMARK                         _______ _______ _______ _____ _____    ______ ____
ROOT
ATOM      1  N   UNL     1       4.675   7.374  17.230  0.00  0.00    +0.000 N 
ATOM      2  H   UNL     1       5.074   7.711  18.115  0.00  0.00    +0.000 HD
ENDROOT
BRANCH   1   3
ATOM      3  C   UNL     1       5.531   6.380  16.719  0.00  0.00    +0.000 A 
ATOM      4  C   UNL     1       5.490   5.916  15.458  0.00  0.00    +0.000 A 
ATOM      5  C   UNL     1       6.375   4.761  15.099  0.00  0.00    +0.000 A 
ATOM      6  N   UNL     1       7.277   4.260  15.904  0.00  0.00    +0.000 NA
ATOM      7  C   UNL     1       7.370   4.810  17.149  0.00  0.00    +0.000 A 
ATOM      8  N   UNL     1       8.189   4.499  18.133  0.00  0.00    +0.000 NA
ATOM      9  C   UNL     1       7.802   5.328  19.142  0.00  0.00    +0.000 A 
ATOM     10  N   UNL     1       6.780   6.142  18.875  0.00  0.00    +0.000 NA
ATOM     11  N   UNL     1       6.509   5.828  17.577  0.00  0.00    +0.000 N 
BRANCH   5  12
ATOM     12  C   UNL     1       6.150   4.147  13.716  0.00  0.00    +0.000 C 
ATOM     13  F   UNL     1       4.879   4.318  13.254  0.00  0.00    +0.000 F 
ATOM     14  F   UNL     1       6.969   4.689  12.774  0.00  0.00    +0.000 F 
ATOM     15  F   UNL     1       6.378   2.805  13.706  0.00  0.00    +0.000 F 
ENDBRANCH   5  12
ENDBRANCH   1   3
BRANCH   1  17
ATOM     16  C   UNL     1       2.554   8.472  17.856  0.00  0.00    +0.000 C 
ATOM     17  C   UNL     1       3.217   7.165  17.398  0.00  0.00    +0.000 C 
BRANCH  17  18
ATOM     18  C   UNL     1       2.799   6.040  18.310  0.00  0.00    +0.000 A 
ATOM     19  N   UNL     1       3.008   5.968  19.613  0.00  0.00    +0.000 NA
ATOM     20  C   UNL     1       2.414   4.804  20.023  0.00  0.00    +0.000 A 
ATOM     21  C   UNL     1       2.312   4.264  21.312  0.00  0.00    +0.000 A 
ATOM     22  C   UNL     1       1.622   3.058  21.479  0.00  0.00    +0.000 A 
ATOM     23  C   UNL     1       1.060   2.401  20.382  0.00  0.00    +0.000 A 
ATOM     24  C   UNL     1       1.167   2.918  19.084  0.00  0.00    +0.000 A 
ATOM     25  C   UNL     1       1.852   4.128  18.947  0.00  0.00    +0.000 A 
ATOM     26  N   UNL     1       2.137   4.920  17.862  0.00  0.00    +0.000 N 
ATOM     27  H   UNL     1       1.889   4.725  16.903  0.00  0.00    +0.000 HD
ENDBRANCH  17  18
ENDBRANCH   1  17
TORSDOF 4
ENDMDL
MODEL 4
REMARK VINA RESULT:      -9.0      0.120      1.387
REMARK  Name = 
REMARK  5 active torsions:
REMARK  status: ('A' for Active; 'I' for Inactive)
REMARK    1  A    between atoms: C_1  and  C_2
REMARK    2  A    between atoms: C_2  and  N_3
REMARK    3  A    between atoms: C_2  and  C_17
REMARK    4  A    between atoms: N_3  and  C_4
REMARK    5  A    between atoms: C_6  and  C_7
REMARK                            x       y       z     vdW  Elec       q    Type
REMARK                         _______ _______ _______ _____ _____    ______ ____
ROOT
ATOM      1  N   UNL     1       5.981   4.352  18.634  0.00  0.00    +0.000 N 
ATOM      2  H   UNL     1       6.190   4.554  19.619  0.00  0.00    +0.000 HD
ENDROOT
BRANCH   1   3
ATOM      3  C   UNL     1       4.658   4.758  18.380  0.00  0.00    +0.000 A 
ATOM      4  C   UNL     1       4.255   6.040  18.318  0.00  0.00    +0.000 A 
ATOM      5  C   UNL     1       2.788   6.315  18.173  0.00  0.00    +0.000 A 
ATOM      6  N   UNL     1       1.891   5.383  17.976  0.00  0.00    +0.000 NA
ATOM      7  C   UNL     1       2.334   4.093  17.945  0.00  0.00    +0.000 A 
ATOM      8  N   UNL     1       1.647   2.985  17.756  0.00  0.00    +0.000 NA
ATOM      9  C   UNL     1       2.584   2.005  17.876  0.00  0.00    +0.000 A 
ATOM     10  N   UNL     1       3.827   2.410  18.142  0.00  0.00    +0.000 NA
ATOM     11  N   UNL     1       3.677   3.764  18.166  0.00  0.00    +0.000 N 
BRANCH   5  12
ATOM     12  C   UNL     1       2.363   7.778  18.305  0.00  0.00    +0.000 C 
ATOM     13  F   UNL     1       2.023   8.125  19.579  0.00  0.00    +0.000 F 
ATOM     14  F   UNL     1       3.352   8.636  17.934  0.00  0.00    +0.000 F 
ATOM     15  F   UNL     1       1.282   8.071  17.533  0.00  0.00    +0.000 F 
ENDBRANCH   5  12
ENDBRANCH   1   3
BRANCH   1  17
ATOM     16  C   UNL     1       7.444   6.257  18.060  0.00  0.00    +0.000 C 
ATOM     17  C   UNL     1       7.125   4.779  17.793  0.00  0.00    +0.000 C 
BRANCH  17  18
ATOM     18  C   UNL     1       6.990   4.552  16.309  0.00  0.00    +0.000 A 
ATOM     19  N   UNL     1       6.152   3.722  15.715  0.00  0.00    +0.000 NA
ATOM     20  C   UNL     1       6.348   3.889  14.370  0.00  0.00    +0.000 A 
ATOM     21  C   UNL     1       5.695   3.276  13.293  0.00  0.00    +0.000 A 
ATOM     22  C   UNL     1       6.062   3.641  11.992  0.00  0.00    +0.000 A 
ATOM     23  C   UNL     1       7.068   4.586  11.775  0.00  0.00    +0.000 A 
ATOM     24  C   UNL     1       7.743   5.196  12.840  0.00  0.00    +0.000 A 
ATOM     25  C   UNL     1       7.350   4.821  14.127  0.00  0.00    +0.000 A 
ATOM     26  N   UNL     1       7.765   5.207  15.379  0.00  0.00    +0.000 N 
ATOM     27  H   UNL     1       8.499   5.870  15.582  0.00  0.00    +0.000 HD
ENDBRANCH  17  18
ENDBRANCH   1  17
TORSDOF 4
ENDMDL
MODEL 5
REMARK VINA RESULT:      -8.9      2.977      6.621
REMARK  Name = 
REMARK  5 active torsions:
REMARK  status: ('A' for Active; 'I' for Inactive)
REMARK    1  A    between atoms: C_1  and  C_2
REMARK    2  A    between atoms: C_2  and  N_3
REMARK    3  A    between atoms: C_2  and  C_17
REMARK    4  A    between atoms: N_3  and  C_4
REMARK    5  A    between atoms: C_6  and  C_7
REMARK                            x       y       z     vdW  Elec       q    Type
REMARK                         _______ _______ _______ _____ _____    ______ ____
ROOT
ATOM      1  N   UNL     1       5.155   3.539  18.368  0.00  0.00    +0.000 N 
ATOM      2  H   UNL     1       5.395   2.542  18.298  0.00  0.00    +0.000 HD
ENDROOT
BRANCH   1   3
ATOM      3  C   UNL     1       5.707   4.197  17.252  0.00  0.00    +0.000 A 
ATOM      4  C   UNL     1       5.497   3.834  15.975  0.00  0.00    +0.000 A 
ATOM      5  C   UNL     1       6.261   4.548  14.901  0.00  0.00    +0.000 A 
ATOM      6  N   UNL     1       7.025   5.588  15.122  0.00  0.00    +0.000 NA
ATOM      7  C   UNL     1       7.148   6.001  16.416  0.00  0.00    +0.000 A 
ATOM      8  N   UNL     1       7.839   7.012  16.901  0.00  0.00    +0.000 NA
ATOM      9  C   UNL     1       7.640   6.919  18.244  0.00  0.00    +0.000 A 
ATOM     10  N   UNL     1       6.876   5.906  18.657  0.00  0.00    +0.000 NA
ATOM     11  N   UNL     1       6.535   5.320  17.475  0.00  0.00    +0.000 N 
BRANCH   5  12
ATOM     12  C   UNL     1       6.136   3.970  13.490  0.00  0.00    +0.000 C 
ATOM     13  F   UNL     1       6.414   2.637  13.430  0.00  0.00    +0.000 F 
ATOM     14  F   UNL     1       4.881   4.116  12.985  0.00  0.00    +0.000 F 
ATOM     15  F   UNL     1       6.983   4.572  12.612  0.00  0.00    +0.000 F 
ENDBRANCH   5  12
ENDBRANCH   1   3
BRANCH   1  17
ATOM     16  C   UNL     1       2.853   2.855  17.792  0.00  0.00    +0.000 C 
ATOM     17  C   UNL     1       3.729   3.673  18.751  0.00  0.00    +0.000 C 
BRANCH  17  18
ATOM     18  C   UNL     1       3.190   5.077  18.854  0.00  0.00    +0.000 A 
ATOM     19  N   UNL     1       3.058   5.942  17.864  0.00  0.00    +0.000 NA
ATOM     20  C   UNL     1       2.483   7.056  18.413  0.00  0.00    +0.000 A 
ATOM     21  C   UNL     1       2.098   8.254  17.797  0.00  0.00    +0.000 A 
ATOM     22  C   UNL     1       1.498   9.247  18.580  0.00  0.00    +0.000 A 
ATOM     23  C   UNL     1       1.301   9.052  19.950  0.00  0.00    +0.000 A 
ATOM     24  C   UNL     1       1.696   7.867  20.585  0.00  0.00    +0.000 A 
ATOM     25  C   UNL     1       2.283   6.889  19.778  0.00  0.00    +0.000 A 
ATOM     26  N   UNL     1       2.769   5.632  20.041  0.00  0.00    +0.000 N 
ATOM     27  H   UNL     1       2.796   5.184  20.945  0.00  0.00    +0.000 HD
ENDBRANCH  17  18
ENDBRANCH   1  17
TORSDOF 4
ENDMDL
MODEL 6
REMARK VINA RESULT:      -8.8      2.943      6.569
REMARK  Name = 
REMARK  5 active torsions:
REMARK  status: ('A' for Active; 'I' for Inactive)
REMARK    1  A    between atoms: C_1  and  C_2
REMARK    2  A    between atoms: C_2  and  N_3
REMARK    3  A    between atoms: C_2  and  C_17
REMARK    4  A    between atoms: N_3  and  C_4
REMARK    5  A    between atoms: C_6  and  C_7
REMARK                            x       y       z     vdW  Elec       q    Type
REMARK                         _______ _______ _______ _____ _____    ______ ____
ROOT
ATOM      1  N   UNL     1       5.368   3.439  18.434  0.00  0.00    +0.000 N 
ATOM      2  H   UNL     1       5.690   2.466  18.359  0.00  0.00    +0.000 HD
ENDROOT
BRANCH   1   3
ATOM      3  C   UNL     1       5.848   4.141  17.312  0.00  0.00    +0.000 A 
ATOM      4  C   UNL     1       5.610   3.789  16.036  0.00  0.00    +0.000 A 
ATOM      5  C   UNL     1       6.300   4.557  14.949  0.00  0.00    +0.000 A 
ATOM      6  N   UNL     1       7.019   5.630  15.162  0.00  0.00    +0.000 NA
ATOM      7  C   UNL     1       7.169   6.028  16.458  0.00  0.00    +0.000 A 
ATOM      8  N   UNL     1       7.827   7.064  16.937  0.00  0.00    +0.000 NA
ATOM      9  C   UNL     1       7.680   6.939  18.284  0.00  0.00    +0.000 A 
ATOM     10  N   UNL     1       6.981   5.884  18.705  0.00  0.00    +0.000 NA
ATOM     11  N   UNL     1       6.627   5.301  17.525  0.00  0.00    +0.000 N 
BRANCH   5  12
ATOM     12  C   UNL     1       6.153   3.997  13.533  0.00  0.00    +0.000 C 
ATOM     13  F   UNL     1       6.987   4.592  12.632  0.00  0.00    +0.000 F 
ATOM     14  F   UNL     1       6.427   2.665  13.477  0.00  0.00    +0.000 F 
ATOM     15  F   UNL     1       4.893   4.158  13.045  0.00  0.00    +0.000 F 
ENDBRANCH   5  12
ENDBRANCH   1   3
BRANCH   1  17
ATOM     16  C   UNL     1       3.122   2.574  17.879  0.00  0.00    +0.000 C 
ATOM     17  C   UNL     1       3.941   3.453  18.836  0.00  0.00    +0.000 C 
BRANCH  17  18
ATOM     18  C   UNL     1       3.290   4.807  18.960  0.00  0.00    +0.000 A 
ATOM     19  N   UNL     1       2.796   5.341  20.062  0.00  0.00    +0.000 NA
ATOM     20  C   UNL     1       2.359   6.590  19.710  0.00  0.00    +0.000 A 
ATOM     21  C   UNL     1       1.782   7.588  20.506  0.00  0.00    +0.000 A 
ATOM     22  C   UNL     1       1.442   8.807  19.909  0.00  0.00    +0.000 A 
ATOM     23  C   UNL     1       1.662   9.019  18.546  0.00  0.00    +0.000 A 
ATOM     24  C   UNL     1       2.222   8.025  17.732  0.00  0.00    +0.000 A 
ATOM     25  C   UNL     1       2.561   6.822  18.355  0.00  0.00    +0.000 A 
ATOM     26  N   UNL     1       3.127   5.659  17.892  0.00  0.00    +0.000 N 
ATOM     27  H   UNL     1       3.395   5.469  16.938  0.00  0.00    +0.000 HD
ENDBRANCH  17  18
ENDBRANCH   1  17
TORSDOF 4
ENDMDL
MODEL 7
REMARK VINA RESULT:      -8.7      2.361      6.043
REMARK  Name = 
REMARK  5 active torsions:
REMARK  status: ('A' for Active; 'I' for Inactive)
REMARK    1  A    between atoms: C_1  and  C_2
REMARK    2  A    between atoms: C_2  and  N_3
REMARK    3  A    between atoms: C_2  and  C_17
REMARK    4  A    between atoms: N_3  and  C_4
REMARK    5  A    between atoms: C_6  and  C_7
REMARK                            x       y       z     vdW  Elec       q    Type
REMARK                         _______ _______ _______ _____ _____    ______ ____
ROOT
ATOM      1  N   UNL     1       5.518   3.791  18.819  0.00  0.00    +0.000 N 
ATOM      2  H   UNL     1       5.786   2.835  18.551  0.00  0.00    +0.000 HD
ENDROOT
BRANCH   1   3
ATOM      3  C   UNL     1       6.205   4.686  17.977  0.00  0.00    +0.000 A 
ATOM      4  C   UNL     1       6.845   5.790  18.401  0.00  0.00    +0.000 A 
ATOM      5  C   UNL     1       7.416   6.717  17.370  0.00  0.00    +0.000 A 
ATOM      6  N   UNL     1       7.441   6.452  16.089  0.00  0.00    +0.000 NA
ATOM      7  C   UNL     1       6.872   5.279  15.689  0.00  0.00    +0.000 A 
ATOM      8  N   UNL     1       6.774   4.777  14.474  0.00  0.00    +0.000 NA
ATOM      9  C   UNL     1       6.074   3.624  14.662  0.00  0.00    +0.000 A 
ATOM     10  N   UNL     1       5.706   3.357  15.916  0.00  0.00    +0.000 NA
ATOM     11  N   UNL     1       6.240   4.414  16.590  0.00  0.00    +0.000 N 
BRANCH   5  12
ATOM     12  C   UNL     1       7.958   8.049  17.892  0.00  0.00    +0.000 C 
ATOM     13  F   UNL     1       6.976   8.950  18.182  0.00  0.00    +0.000 F 
ATOM     14  F   UNL     1       8.679   7.898  19.037  0.00  0.00    +0.000 F 
ATOM     15  F   UNL     1       8.776   8.659  16.993  0.00  0.00    +0.000 F 
ENDBRANCH   5  12
ENDBRANCH   1   3
BRANCH   1  17
ATOM     16  C   UNL     1       3.348   2.936  18.009  0.00  0.00    +0.000 C 
ATOM     17  C   UNL     1       4.051   3.850  19.023  0.00  0.00    +0.000 C 
BRANCH  17  18
ATOM     18  C   UNL     1       3.422   5.220  18.989  0.00  0.00    +0.000 A 
ATOM     19  N   UNL     1       3.277   5.991  17.926  0.00  0.00    +0.000 NA
ATOM     20  C   UNL     1       2.613   7.107  18.360  0.00  0.00    +0.000 A 
ATOM     21  C   UNL     1       2.180   8.223  17.633  0.00  0.00    +0.000 A 
ATOM     22  C   UNL     1       1.488   9.234  18.309  0.00  0.00    +0.000 A 
ATOM     23  C   UNL     1       1.248   9.139  19.682  0.00  0.00    +0.000 A 
ATOM     24  C   UNL     1       1.689   8.038  20.427  0.00  0.00    +0.000 A 
ATOM     25  C   UNL     1       2.368   7.038  19.726  0.00  0.00    +0.000 A 
ATOM     26  N   UNL     1       2.920   5.840  20.110  0.00  0.00    +0.000 N 
ATOM     27  H   UNL     1       2.938   5.469  21.049  0.00  0.00    +0.000 HD
ENDBRANCH  17  18
ENDBRANCH   1  17
TORSDOF 4
ENDMDL
MODEL 8
REMARK VINA RESULT:      -8.6      2.762      6.485
REMARK  Name = 
REMARK  5 active torsions:
REMARK  status: ('A' for Active; 'I' for Inactive)
REMARK    1  A    between atoms: C_1  and  C_2
REMARK    2  A    between atoms: C_2  and  N_3
REMARK    3  A    between atoms: C_2  and  C_17
REMARK    4  A    between atoms: N_3  and  C_4
REMARK    5  A    between atoms: C_6  and  C_7
REMARK                            x       y       z     vdW  Elec       q    Type
REMARK                         _______ _______ _______ _____ _____    ______ ____
ROOT
ATOM      1  N   UNL     1       4.758   3.059  18.599  0.00  0.00    +0.000 N 
ATOM      2  H   UNL     1       4.926   2.079  18.337  0.00  0.00    +0.000 HD
ENDROOT
BRANCH   1   3
ATOM      3  C   UNL     1       5.495   3.875  17.719  0.00  0.00    +0.000 A 
ATOM      4  C   UNL     1       5.392   3.834  16.379  0.00  0.00    +0.000 A 
ATOM      5  C   UNL     1       6.339   4.668  15.571  0.00  0.00    +0.000 A 
ATOM      6  N   UNL     1       7.174   5.530  16.092  0.00  0.00    +0.000 NA
ATOM      7  C   UNL     1       7.194   5.628  17.453  0.00  0.00    +0.000 A 
ATOM      8  N   UNL     1       7.925   6.413  18.217  0.00  0.00    +0.000 NA
ATOM      9  C   UNL     1       7.570   6.048  19.480  0.00  0.00    +0.000 A 
ATOM     10  N   UNL     1       6.666   5.072  19.578  0.00  0.00    +0.000 NA
ATOM     11  N   UNL     1       6.401   4.810  18.268  0.00  0.00    +0.000 N 
BRANCH   5  12
ATOM     12  C   UNL     1       6.314   4.438  14.059  0.00  0.00    +0.000 C 
ATOM     13  F   UNL     1       5.116   4.755  13.488  0.00  0.00    +0.000 F 
ATOM     14  F   UNL     1       7.248   5.186  13.410  0.00  0.00    +0.000 F 
ATOM     15  F   UNL     1       6.556   3.140  13.732  0.00  0.00    +0.000 F 
ENDBRANCH   5  12
ENDBRANCH   1   3
BRANCH   1  17
ATOM     16  C   UNL     1       2.490   2.544  17.768  0.00  0.00    +0.000 C 
ATOM     17  C   UNL     1       3.311   3.257  18.852  0.00  0.00    +0.000 C 
BRANCH  17  18
ATOM     18  C   UNL     1       2.840   4.683  18.985  0.00  0.00    +0.000 A 
ATOM     19  N   UNL     1       2.409   5.268  20.088  0.00  0.00    +0.000 NA
ATOM     20  C   UNL     1       2.143   6.566  19.745  0.00  0.00    +0.000 A 
ATOM     21  C   UNL     1       1.692   7.623  20.546  0.00  0.00    +0.000 A 
ATOM     22  C   UNL     1       1.520   8.882  19.958  0.00  0.00    +0.000 A 
ATOM     23  C   UNL     1       1.779   9.075  18.599  0.00  0.00    +0.000 A 
ATOM     24  C   UNL     1       2.213   8.025  17.780  0.00  0.00    +0.000 A 
ATOM     25  C   UNL     1       2.387   6.782  18.393  0.00  0.00    +0.000 A 
ATOM     26  N   UNL     1       2.801   5.559  17.924  0.00  0.00    +0.000 N 
ATOM     27  H   UNL     1       3.051   5.345  16.970  0.00  0.00    +0.000 HD
ENDBRANCH  17  18
ENDBRANCH   1  17
TORSDOF 4
ENDMDL
MODEL 9
REMARK VINA RESULT:      -8.6      2.935      6.688
REMARK  Name = 
REMARK  5 active torsions:
REMARK  status: ('A' for Active; 'I' for Inactive)
REMARK    1  A    between atoms: C_1  and  C_2
REMARK    2  A    between atoms: C_2  and  N_3
REMARK    3  A    between atoms: C_2  and  C_17
REMARK    4  A    between atoms: N_3  and  C_4
REMARK    5  A    between atoms: C_6  and  C_7
REMARK                            x       y       z     vdW  Elec       q    Type
REMARK                         _______ _______ _______ _____ _____    ______ ____
ROOT
ATOM      1  N   UNL     1       3.866   3.881  18.517  0.00  0.00    +0.000 N 
ATOM      2  H   UNL     1       3.037   3.731  17.928  0.00  0.00    +0.000 HD
ENDROOT
BRANCH   1   3
ATOM      3  C   UNL     1       4.922   4.289  17.681  0.00  0.00    +0.000 A 
ATOM      4  C   UNL     1       4.906   4.204  16.339  0.00  0.00    +0.000 A 
ATOM      5  C   UNL     1       6.159   4.553  15.592  0.00  0.00    +0.000 A 
ATOM      6  N   UNL     1       7.225   5.057  16.159  0.00  0.00    +0.000 NA
ATOM      7  C   UNL     1       7.186   5.226  17.512  0.00  0.00    +0.000 A 
ATOM      8  N   UNL     1       8.111   5.715  18.313  0.00  0.00    +0.000 NA
ATOM      9  C   UNL     1       7.553   5.599  19.550  0.00  0.00    +0.000 A 
ATOM     10  N   UNL     1       6.336   5.057  19.598  0.00  0.00    +0.000 NA
ATOM     11  N   UNL     1       6.082   4.834  18.278  0.00  0.00    +0.000 N 
BRANCH   5  12
ATOM     12  C   UNL     1       6.152   4.254  14.092  0.00  0.00    +0.000 C 
ATOM     13  F   UNL     1       7.058   4.996  13.393  0.00  0.00    +0.000 F 
ATOM     14  F   UNL     1       6.447   2.953  13.826  0.00  0.00    +0.000 F 
ATOM     15  F   UNL     1       4.941   4.504  13.524  0.00  0.00    +0.000 F 
ENDBRANCH   5  12
ENDBRANCH   1   3
BRANCH   1  17
ATOM     16  C   UNL     1       2.503   3.787  20.574  0.00  0.00    +0.000 C 
ATOM     17  C   UNL     1       3.474   4.630  19.734  0.00  0.00    +0.000 C 
BRANCH  17  18
ATOM     18  C   UNL     1       2.893   6.004  19.521  0.00  0.00    +0.000 A 
ATOM     19  N   UNL     1       2.929   6.706  18.403  0.00  0.00    +0.000 NA
ATOM     20  C   UNL     1       2.237   7.859  18.661  0.00  0.00    +0.000 A 
ATOM     21  C   UNL     1       1.947   8.933  17.809  0.00  0.00    +0.000 A 
ATOM     22  C   UNL     1       1.189   9.998  18.309  0.00  0.00    +0.000 A 
ATOM     23  C   UNL     1       0.745   9.996  19.634  0.00  0.00    +0.000 A 
ATOM     24  C   UNL     1       1.041   8.939  20.504  0.00  0.00    +0.000 A 
ATOM     25  C   UNL     1       1.790   7.884  19.977  0.00  0.00    +0.000 A 
ATOM     26  N   UNL     1       2.247   6.705  20.513  0.00  0.00    +0.000 N 
ATOM     27  H   UNL     1       2.115   6.397  21.465  0.00  0.00    +0.000 HD
ENDBRANCH  17  18
ENDBRANCH   1  17
TORSDOF 4
ENDMDL
