MODEL 1
REMARK VINA RESULT:      -8.1      0.000      0.000
REMARK  Name = 
REMARK  8 active torsions:
REMARK  status: ('A' for Active; 'I' for Inactive)
REMARK    1  A    between atoms: C_1  and  N_2
REMARK    2  A    between atoms: C_6  and  C_7
REMARK    3  A    between atoms: C_7  and  C_8
REMARK    4  A    between atoms: C_8  and  C_9
REMARK    5  A    between atoms: C_13  and  N_14
REMARK    6  A    between atoms: N_17  and  C_18
REMARK    7  A    between atoms: C_23  and  O_24
REMARK    8  A    between atoms: O_24  and  C_25
REMARK                            x       y       z     vdW  Elec       q    Type
REMARK                         _______ _______ _______ _____ _____    ______ ____
ROOT
ATOM      1  C   UNL     1       5.269   5.953  18.009  0.00  0.00    +0.000 A 
ATOM      2  C   UNL     1       4.538   4.817  18.412  0.00  0.00    +0.000 A 
ATOM      3  C   UNL     1       3.150   4.833  18.508  0.00  0.00    +0.000 A 
ATOM      4  C   UNL     1       2.447   5.997  18.211  0.00  0.00    +0.000 A 
ATOM      5  C   UNL     1       3.124   7.155  17.827  0.00  0.00    +0.000 A 
ATOM      6  C   UNL     1       4.518   7.113  17.706  0.00  0.00    +0.000 A 
ENDROOT
BRANCH   5   7
ATOM      7  N   UNL     1       2.476   8.378  17.544  0.00  0.00    +0.000 N 
ATOM      8  C   UNL     1       1.770   9.149  18.453  0.00  0.00    +0.000 C 
ATOM      9  O   UNL     1       1.685   8.921  19.655  0.00  0.00    +0.000 OA
ATOM     10  N   UNL     1       1.156  10.230  17.815  0.00  0.00    +0.000 N 
ATOM     11  H   UNL     1       2.735   8.851  16.690  0.00  0.00    +0.000 HD
ATOM     12  H   UNL     1       0.658   9.853  17.021  0.00  0.00    +0.000 HD
BRANCH  10  13
ATOM     13  C   UNL     1       0.261  10.941  18.643  0.00  0.00    +0.000 A 
ATOM     14  N   UNL     1       0.824  11.885  19.430  0.00  0.00    +0.000 NA
ATOM     15  C   UNL     1      -0.017  12.763  20.010  0.00  0.00    +0.000 A 
ATOM     16  C   UNL     1      -1.397  12.681  19.919  0.00  0.00    +0.000 A 
ATOM     17  C   UNL     1      -1.955  11.622  19.204  0.00  0.00    +0.000 A 
ATOM     18  C   UNL     1      -1.118  10.717  18.552  0.00  0.00    +0.000 A 
BRANCH  18  19
ATOM     19  O   UNL     1      -1.572   9.662  17.806  0.00  0.00    +0.000 OA
BRANCH  19  20
ATOM     20  C   UNL     1      -2.737   9.946  17.042  0.00  0.00    +0.000 C 
ATOM     21  F   UNL     1      -3.765   9.268  17.622  0.00  0.00    +0.000 F 
ENDBRANCH  19  20
ENDBRANCH  18  19
ENDBRANCH  10  13
ENDBRANCH   5   7
BRANCH   1  22
ATOM     22  C   UNL     1       6.870   5.916  17.907  0.00  0.00    +0.000 C 
ATOM     23  C   UNL     1       7.616   7.233  17.553  0.00  0.00    +0.000 C 
ATOM     24  O   UNL     1       8.348   7.226  18.798  0.00  0.00    +0.000 OA
ATOM     25  C   UNL     1       7.629   6.067  19.259  0.00  0.00    +0.000 C 
BRANCH  22  26
ATOM     26  C   UNL     1       7.328   4.661  17.143  0.00  0.00    +0.000 C 
BRANCH  26  32
ATOM     27  C   UNL     1       5.090   3.056  15.536  0.00  0.00    +0.000 C 
ATOM     28  N   UNL     1       6.092   3.940  15.006  0.00  0.00    +0.000 N 
ATOM     29  C   UNL     1       6.283   4.200  13.682  0.00  0.00    +0.000 A 
ATOM     30  N   UNL     1       7.245   5.077  13.539  0.00  0.00    +0.000 NA
ATOM     31  N   UNL     1       7.716   5.385  14.790  0.00  0.00    +0.000 NA
ATOM     32  C   UNL     1       7.035   4.685  15.678  0.00  0.00    +0.000 A 
ENDBRANCH  26  32
ENDBRANCH  22  26
ENDBRANCH   1  22
TORSDOF 7
ENDMDL
MODEL 2
REMARK VINA RESULT:      -7.7      3.267      4.594
REMARK  Name = 
REMARK  8 active torsions:
REMARK  status: ('A' for Active; 'I' for Inactive)
REMARK    1  A    between atoms: C_1  and  N_2
REMARK    2  A    between atoms: C_6  and  C_7
REMARK    3  A    between atoms: C_7  and  C_8
REMARK    4  A    between atoms: C_8  and  C_9
REMARK    5  A    between atoms: C_13  and  N_14
REMARK    6  A    between atoms: N_17  and  C_18
REMARK    7  A    between atoms: C_23  and  O_24
REMARK    8  A    between atoms: O_24  and  C_25
REMARK                            x       y       z     vdW  Elec       q    Type
REMARK                         _______ _______ _______ _____ _____    ______ ____
ROOT
ATOM      1  C   UNL     1       2.333   5.430  19.268  0.00  0.00    +0.000 A 
ATOM      2  C   UNL     1       2.539   6.002  17.996  0.00  0.00    +0.000 A 
ATOM      3  C   UNL     1       2.439   7.374  17.784  0.00  0.00    +0.000 A 
ATOM      4  C   UNL     1       2.119   8.219  18.843  0.00  0.00    +0.000 A 
ATOM      5  C   UNL     1       1.885   7.700  20.117  0.00  0.00    +0.000 A 
ATOM      6  C   UNL     1       2.020   6.321  20.319  0.00  0.00    +0.000 A 
ENDROOT
BRANCH   5   7
ATOM      7  N   UNL     1       1.524   8.496  21.227  0.00  0.00    +0.000 N 
ATOM      8  C   UNL     1       0.450   9.369  21.281  0.00  0.00    +0.000 C 
ATOM      9  O   UNL     1      -0.393   9.506  20.401  0.00  0.00    +0.000 OA
ATOM     10  N   UNL     1       0.452  10.085  22.481  0.00  0.00    +0.000 N 
ATOM     11  H   UNL     1       1.920   8.248  22.122  0.00  0.00    +0.000 HD
ATOM     12  H   UNL     1       1.382  10.466  22.589  0.00  0.00    +0.000 HD
BRANCH  10  13
ATOM     13  C   UNL     1      -0.495  11.130  22.518  0.00  0.00    +0.000 A 
ATOM     14  N   UNL     1      -1.663  10.833  23.132  0.00  0.00    +0.000 NA
ATOM     15  C   UNL     1      -2.464  11.874  23.434  0.00  0.00    +0.000 A 
ATOM     16  C   UNL     1      -2.197  13.182  23.065  0.00  0.00    +0.000 A 
ATOM     17  C   UNL     1      -1.047  13.443  22.322  0.00  0.00    +0.000 A 
ATOM     18  C   UNL     1      -0.170  12.400  22.025  0.00  0.00    +0.000 A 
BRANCH  18  19
ATOM     19  O   UNL     1       0.996  12.562  21.324  0.00  0.00    +0.000 OA
BRANCH  19  20
ATOM     20  C   UNL     1       0.812  12.838  19.942  0.00  0.00    +0.000 C 
ATOM     21  F   UNL     1       1.659  13.856  19.627  0.00  0.00    +0.000 F 
ENDBRANCH  19  20
ENDBRANCH  18  19
ENDBRANCH  10  13
ENDBRANCH   5   7
BRANCH   1  22
ATOM     22  C   UNL     1       2.450   3.845  19.492  0.00  0.00    +0.000 C 
ATOM     23  C   UNL     1       2.530   3.311  20.950  0.00  0.00    +0.000 C 
ATOM     24  O   UNL     1       1.318   2.541  20.801  0.00  0.00    +0.000 OA
ATOM     25  C   UNL     1       1.100   3.067  19.479  0.00  0.00    +0.000 C 
BRANCH  22  26
ATOM     26  C   UNL     1       3.458   3.237  18.500  0.00  0.00    +0.000 C 
BRANCH  26  32
ATOM     27  C   UNL     1       5.125   4.270  15.986  0.00  0.00    +0.000 C 
ATOM     28  N   UNL     1       5.509   4.302  17.371  0.00  0.00    +0.000 N 
ATOM     29  C   UNL     1       6.710   4.745  17.838  0.00  0.00    +0.000 A 
ATOM     30  N   UNL     1       6.725   4.680  19.147  0.00  0.00    +0.000 NA
ATOM     31  N   UNL     1       5.521   4.161  19.550  0.00  0.00    +0.000 NA
ATOM     32  C   UNL     1       4.791   3.911  18.479  0.00  0.00    +0.000 A 
ENDBRANCH  26  32
ENDBRANCH  22  26
ENDBRANCH   1  22
TORSDOF 7
ENDMDL
MODEL 3
REMARK VINA RESULT:      -7.6      3.312      9.151
REMARK  Name = 
REMARK  8 active torsions:
REMARK  status: ('A' for Active; 'I' for Inactive)
REMARK    1  A    between atoms: C_1  and  N_2
REMARK    2  A    between atoms: C_6  and  C_7
REMARK    3  A    between atoms: C_7  and  C_8
REMARK    4  A    between atoms: C_8  and  C_9
REMARK    5  A    between atoms: C_13  and  N_14
REMARK    6  A    between atoms: N_17  and  C_18
REMARK    7  A    between atoms: C_23  and  O_24
REMARK    8  A    between atoms: O_24  and  C_25
REMARK                            x       y       z     vdW  Elec       q    Type
REMARK                         _______ _______ _______ _____ _____    ______ ____
ROOT
ATOM      1  C   UNL     1      -0.473  10.503  20.406  0.00  0.00    +0.000 A 
ATOM      2  C   UNL     1      -0.790  10.929  21.712  0.00  0.00    +0.000 A 
ATOM      3  C   UNL     1      -0.298  10.275  22.837  0.00  0.00    +0.000 A 
ATOM      4  C   UNL     1       0.525   9.162  22.688  0.00  0.00    +0.000 A 
ATOM      5  C   UNL     1       0.852   8.687  21.418  0.00  0.00    +0.000 A 
ATOM      6  C   UNL     1       0.372   9.375  20.296  0.00  0.00    +0.000 A 
ENDROOT
BRANCH   5   7
ATOM      7  N   UNL     1       1.652   7.545  21.196  0.00  0.00    +0.000 N 
ATOM      8  C   UNL     1       2.270   7.208  20.002  0.00  0.00    +0.000 C 
ATOM      9  O   UNL     1       2.280   7.905  18.993  0.00  0.00    +0.000 OA
ATOM     10  N   UNL     1       2.882   5.956  20.095  0.00  0.00    +0.000 N 
ATOM     11  H   UNL     1       2.001   7.059  22.010  0.00  0.00    +0.000 HD
ATOM     12  H   UNL     1       2.190   5.322  20.469  0.00  0.00    +0.000 HD
BRANCH  10  13
ATOM     13  C   UNL     1       3.356   5.465  18.860  0.00  0.00    +0.000 A 
ATOM     14  N   UNL     1       4.576   5.913  18.488  0.00  0.00    +0.000 NA
ATOM     15  C   UNL     1       5.174   5.255  17.475  0.00  0.00    +0.000 A 
ATOM     16  C   UNL     1       4.569   4.238  16.755  0.00  0.00    +0.000 A 
ATOM     17  C   UNL     1       3.261   3.881  17.079  0.00  0.00    +0.000 A 
ATOM     18  C   UNL     1       2.623   4.507  18.149  0.00  0.00    +0.000 A 
BRANCH  18  19
ATOM     19  O   UNL     1       1.350   4.207  18.559  0.00  0.00    +0.000 OA
BRANCH  19  20
ATOM     20  C   UNL     1       1.098   2.816  18.709  0.00  0.00    +0.000 C 
ATOM     21  F   UNL     1       0.234   2.682  19.752  0.00  0.00    +0.000 F 
ENDBRANCH  19  20
ENDBRANCH  18  19
ENDBRANCH  10  13
ENDBRANCH   5   7
BRANCH   1  22
ATOM     22  C   UNL     1      -1.054  11.269  19.121  0.00  0.00    +0.000 C 
ATOM     23  C   UNL     1      -1.604  12.711  19.308  0.00  0.00    +0.000 C 
ATOM     24  O   UNL     1      -0.638  13.266  18.390  0.00  0.00    +0.000 OA
ATOM     25  C   UNL     1       0.007  11.988  18.236  0.00  0.00    +0.000 C 
BRANCH  22  26
ATOM     26  C   UNL     1      -1.932  10.321  18.285  0.00  0.00    +0.000 C 
BRANCH  26  32
ATOM     27  C   UNL     1      -3.022  10.847  15.335  0.00  0.00    +0.000 C 
ATOM     28  N   UNL     1      -3.667  11.160  16.581  0.00  0.00    +0.000 N 
ATOM     29  C   UNL     1      -4.863  11.800  16.702  0.00  0.00    +0.000 A 
ATOM     30  N   UNL     1      -5.188  11.892  17.968  0.00  0.00    +0.000 NA
ATOM     31  N   UNL     1      -4.175  11.324  18.699  0.00  0.00    +0.000 NA
ATOM     32  C   UNL     1      -3.244  10.898  17.865  0.00  0.00    +0.000 A 
ENDBRANCH  26  32
ENDBRANCH  22  26
ENDBRANCH   1  22
TORSDOF 7
ENDMDL
MODEL 4
REMARK VINA RESULT:      -7.6      1.955      2.354
REMARK  Name = 
REMARK  8 active torsions:
REMARK  status: ('A' for Active; 'I' for Inactive)
REMARK    1  A    between atoms: C_1  and  N_2
REMARK    2  A    between atoms: C_6  and  C_7
REMARK    3  A    between atoms: C_7  and  C_8
REMARK    4  A    between atoms: C_8  and  C_9
REMARK    5  A    between atoms: C_13  and  N_14
REMARK    6  A    between atoms: N_17  and  C_18
REMARK    7  A    between atoms: C_23  and  O_24
REMARK    8  A    between atoms: O_24  and  C_25
REMARK                            x       y       z     vdW  Elec       q    Type
REMARK                         _______ _______ _______ _____ _____    ______ ____
ROOT
ATOM      1  C   UNL     1       5.330   5.776  18.309  0.00  0.00    +0.000 A 
ATOM      2  C   UNL     1       4.702   4.704  18.978  0.00  0.00    +0.000 A 
ATOM      3  C   UNL     1       3.327   4.677  19.190  0.00  0.00    +0.000 A 
ATOM      4  C   UNL     1       2.535   5.731  18.745  0.00  0.00    +0.000 A 
ATOM      5  C   UNL     1       3.109   6.824  18.096  0.00  0.00    +0.000 A 
ATOM      6  C   UNL     1       4.490   6.822  17.864  0.00  0.00    +0.000 A 
ENDROOT
BRANCH   5   7
ATOM      7  N   UNL     1       2.368   7.941  17.649  0.00  0.00    +0.000 N 
ATOM      8  C   UNL     1       1.812   8.919  18.456  0.00  0.00    +0.000 C 
ATOM      9  O   UNL     1       1.962   8.999  19.671  0.00  0.00    +0.000 OA
ATOM     10  N   UNL     1       1.045   9.810  17.702  0.00  0.00    +0.000 N 
ATOM     11  H   UNL     1       2.444   8.184  16.671  0.00  0.00    +0.000 HD
ATOM     12  H   UNL     1       0.424   9.249  17.135  0.00  0.00    +0.000 HD
BRANCH  10  13
ATOM     13  C   UNL     1       0.290  10.710  18.483  0.00  0.00    +0.000 A 
ATOM     14  N   UNL     1      -0.915  10.254  18.892  0.00  0.00    +0.000 NA
ATOM     15  C   UNL     1      -1.528  10.962  19.861  0.00  0.00    +0.000 A 
ATOM     16  C   UNL     1      -1.039  12.155  20.368  0.00  0.00    +0.000 A 
ATOM     17  C   UNL     1       0.144  12.668  19.838  0.00  0.00    +0.000 A 
ATOM     18  C   UNL     1       0.832  11.944  18.865  0.00  0.00    +0.000 A 
BRANCH  18  19
ATOM     19  O   UNL     1       2.013  12.353  18.303  0.00  0.00    +0.000 OA
BRANCH  19  20
ATOM     20  C   UNL     1       2.547  13.543  18.869  0.00  0.00    +0.000 C 
ATOM     21  F   UNL     1       3.510  13.987  18.016  0.00  0.00    +0.000 F 
ENDBRANCH  19  20
ENDBRANCH  18  19
ENDBRANCH  10  13
ENDBRANCH   5   7
BRANCH   1  22
ATOM     22  C   UNL     1       6.917   5.791  18.077  0.00  0.00    +0.000 C 
ATOM     23  C   UNL     1       7.594   7.140  17.701  0.00  0.00    +0.000 C 
ATOM     24  O   UNL     1       8.425   7.124  18.881  0.00  0.00    +0.000 OA
ATOM     25  C   UNL     1       7.780   5.932  19.366  0.00  0.00    +0.000 C 
BRANCH  22  26
ATOM     26  C   UNL     1       7.348   4.571  17.244  0.00  0.00    +0.000 C 
BRANCH  26  32
ATOM     27  C   UNL     1       4.826   3.313  15.752  0.00  0.00    +0.000 C 
ATOM     28  N   UNL     1       5.915   4.052  15.172  0.00  0.00    +0.000 N 
ATOM     29  C   UNL     1       6.073   4.293  13.841  0.00  0.00    +0.000 A 
ATOM     30  N   UNL     1       7.141   5.027  13.649  0.00  0.00    +0.000 NA
ATOM     31  N   UNL     1       7.714   5.254  14.875  0.00  0.00    +0.000 NA
ATOM     32  C   UNL     1       6.987   4.649  15.796  0.00  0.00    +0.000 A 
ENDBRANCH  26  32
ENDBRANCH  22  26
ENDBRANCH   1  22
TORSDOF 7
ENDMDL
MODEL 5
REMARK VINA RESULT:      -7.5      3.885      5.453
REMARK  Name = 
REMARK  8 active torsions:
REMARK  status: ('A' for Active; 'I' for Inactive)
REMARK    1  A    between atoms: C_1  and  N_2
REMARK    2  A    between atoms: C_6  and  C_7
REMARK    3  A    between atoms: C_7  and  C_8
REMARK    4  A    between atoms: C_8  and  C_9
REMARK    5  A    between atoms: C_13  and  N_14
REMARK    6  A    between atoms: N_17  and  C_18
REMARK    7  A    between atoms: C_23  and  O_24
REMARK    8  A    between atoms: O_24  and  C_25
REMARK                            x       y       z     vdW  Elec       q    Type
REMARK                         _______ _______ _______ _____ _____    ______ ____
ROOT
ATOM      1  C   UNL     1       2.299   7.477  19.087  0.00  0.00    +0.000 A 
ATOM      2  C   UNL     1       2.213   8.241  17.905  0.00  0.00    +0.000 A 
ATOM      3  C   UNL     1       1.628   9.504  17.889  0.00  0.00    +0.000 A 
ATOM      4  C   UNL     1       1.100  10.039  19.061  0.00  0.00    +0.000 A 
ATOM      5  C   UNL     1       1.142   9.315  20.253  0.00  0.00    +0.000 A 
ATOM      6  C   UNL     1       1.761   8.059  20.257  0.00  0.00    +0.000 A 
ENDROOT
BRANCH   5   7
ATOM      7  N   UNL     1       0.596   9.784  21.468  0.00  0.00    +0.000 N 
ATOM      8  C   UNL     1      -0.465  10.666  21.592  0.00  0.00    +0.000 C 
ATOM      9  O   UNL     1      -1.138  11.093  20.660  0.00  0.00    +0.000 OA
ATOM     10  N   UNL     1      -0.669  11.013  22.929  0.00  0.00    +0.000 N 
ATOM     11  H   UNL     1       0.827   9.271  22.307  0.00  0.00    +0.000 HD
ATOM     12  H   UNL     1       0.230  11.294  23.296  0.00  0.00    +0.000 HD
BRANCH  10  13
ATOM     13  C   UNL     1      -1.601  12.057  23.108  0.00  0.00    +0.000 A 
ATOM     14  N   UNL     1      -2.872  11.665  23.351  0.00  0.00    +0.000 NA
ATOM     15  C   UNL     1      -3.717  12.612  23.803  0.00  0.00    +0.000 A 
ATOM     16  C   UNL     1      -3.377  13.949  23.928  0.00  0.00    +0.000 A 
ATOM     17  C   UNL     1      -2.095  14.348  23.550  0.00  0.00    +0.000 A 
ATOM     18  C   UNL     1      -1.177  13.391  23.118  0.00  0.00    +0.000 A 
BRANCH  18  19
ATOM     19  O   UNL     1       0.110  13.682  22.750  0.00  0.00    +0.000 OA
BRANCH  19  20
ATOM     20  C   UNL     1       0.219  14.396  21.525  0.00  0.00    +0.000 C 
ATOM     21  F   UNL     1       0.879  13.585  20.654  0.00  0.00    +0.000 F 
ENDBRANCH  19  20
ENDBRANCH  18  19
ENDBRANCH  10  13
ENDBRANCH   5   7
BRANCH   1  22
ATOM     22  C   UNL     1       2.975   6.021  19.085  0.00  0.00    +0.000 C 
ATOM     23  C   UNL     1       3.207   5.319  17.717  0.00  0.00    +0.000 C 
ATOM     24  O   UNL     1       4.636   5.263  17.918  0.00  0.00    +0.000 OA
ATOM     25  C   UNL     1       4.531   6.007  19.146  0.00  0.00    +0.000 C 
BRANCH  22  26
ATOM     26  C   UNL     1       2.361   5.145  20.192  0.00  0.00    +0.000 C 
BRANCH  26  32
ATOM     27  C   UNL     1       4.049   2.444  20.052  0.00  0.00    +0.000 C 
ATOM     28  N   UNL     1       2.687   2.654  19.643  0.00  0.00    +0.000 N 
ATOM     29  C   UNL     1       1.892   1.711  19.062  0.00  0.00    +0.000 A 
ATOM     30  N   UNL     1       0.699   2.210  18.852  0.00  0.00    +0.000 NA
ATOM     31  N   UNL     1       0.713   3.514  19.279  0.00  0.00    +0.000 NA
ATOM     32  C   UNL     1       1.919   3.792  19.739  0.00  0.00    +0.000 A 
ENDBRANCH  26  32
ENDBRANCH  22  26
ENDBRANCH   1  22
TORSDOF 7
ENDMDL
MODEL 6
REMARK VINA RESULT:      -7.5      3.189      8.863
REMARK  Name = 
REMARK  8 active torsions:
REMARK  status: ('A' for Active; 'I' for Inactive)
REMARK    1  A    between atoms: C_1  and  N_2
REMARK    2  A    between atoms: C_6  and  C_7
REMARK    3  A    between atoms: C_7  and  C_8
REMARK    4  A    between atoms: C_8  and  C_9
REMARK    5  A    between atoms: C_13  and  N_14
REMARK    6  A    between atoms: N_17  and  C_18
REMARK    7  A    between atoms: C_23  and  O_24
REMARK    8  A    between atoms: O_24  and  C_25
REMARK                            x       y       z     vdW  Elec       q    Type
REMARK                         _______ _______ _______ _____ _____    ______ ____
ROOT
ATOM      1  C   UNL     1      -0.578  10.338  20.434  0.00  0.00    +0.000 A 
ATOM      2  C   UNL     1      -0.791  10.814  21.744  0.00  0.00    +0.000 A 
ATOM      3  C   UNL     1      -0.157  10.245  22.844  0.00  0.00    +0.000 A 
ATOM      4  C   UNL     1       0.708   9.169  22.667  0.00  0.00    +0.000 A 
ATOM      5  C   UNL     1       0.937   8.646  21.394  0.00  0.00    +0.000 A 
ATOM      6  C   UNL     1       0.315   9.250  20.295  0.00  0.00    +0.000 A 
ENDROOT
BRANCH   5   7
ATOM      7  N   UNL     1       1.775   7.536  21.148  0.00  0.00    +0.000 N 
ATOM      8  C   UNL     1       2.339   7.202  19.927  0.00  0.00    +0.000 C 
ATOM      9  O   UNL     1       2.261   7.878  18.907  0.00  0.00    +0.000 OA
ATOM     10  N   UNL     1       3.012   5.980  20.008  0.00  0.00    +0.000 N 
ATOM     11  H   UNL     1       2.191   7.083  21.950  0.00  0.00    +0.000 HD
ATOM     12  H   UNL     1       2.371   5.325  20.433  0.00  0.00    +0.000 HD
BRANCH  10  13
ATOM     13  C   UNL     1       3.438   5.485  18.758  0.00  0.00    +0.000 A 
ATOM     14  N   UNL     1       4.612   5.981  18.307  0.00  0.00    +0.000 NA
ATOM     15  C   UNL     1       5.182   5.330  17.274  0.00  0.00    +0.000 A 
ATOM     16  C   UNL     1       4.586   4.271  16.610  0.00  0.00    +0.000 A 
ATOM     17  C   UNL     1       3.317   3.860  17.015  0.00  0.00    +0.000 A 
ATOM     18  C   UNL     1       2.712   4.479  18.108  0.00  0.00    +0.000 A 
BRANCH  18  19
ATOM     19  O   UNL     1       1.480   4.129  18.596  0.00  0.00    +0.000 OA
BRANCH  19  20
ATOM     20  C   UNL     1       1.379   2.773  19.009  0.00  0.00    +0.000 C 
ATOM     21  F   UNL     1       0.087   2.568  19.382  0.00  0.00    +0.000 F 
ENDBRANCH  19  20
ENDBRANCH  18  19
ENDBRANCH  10  13
ENDBRANCH   5   7
BRANCH   1  22
ATOM     22  C   UNL     1      -1.320  11.005  19.178  0.00  0.00    +0.000 C 
ATOM     23  C   UNL     1      -1.807  12.476  19.307  0.00  0.00    +0.000 C 
ATOM     24  O   UNL     1      -0.972  12.914  18.214  0.00  0.00    +0.000 OA
ATOM     25  C   UNL     1      -0.382  11.607  18.090  0.00  0.00    +0.000 C 
BRANCH  22  26
ATOM     26  C   UNL     1      -2.329  10.017  18.566  0.00  0.00    +0.000 C 
BRANCH  26  32
ATOM     27  C   UNL     1      -4.818  11.728  17.545  0.00  0.00    +0.000 C 
ATOM     28  N   UNL     1      -3.841  11.032  16.751  0.00  0.00    +0.000 N 
ATOM     29  C   UNL     1      -3.858  10.948  15.391  0.00  0.00    +0.000 A 
ATOM     30  N   UNL     1      -2.808  10.281  14.978  0.00  0.00    +0.000 NA
ATOM     31  N   UNL     1      -2.099   9.896  16.087  0.00  0.00    +0.000 NA
ATOM     32  C   UNL     1      -2.731  10.330  17.162  0.00  0.00    +0.000 A 
ENDBRANCH  26  32
ENDBRANCH  22  26
ENDBRANCH   1  22
TORSDOF 7
ENDMDL
MODEL 7
REMARK VINA RESULT:      -7.5      3.339      4.507
REMARK  Name = 
REMARK  8 active torsions:
REMARK  status: ('A' for Active; 'I' for Inactive)
REMARK    1  A    between atoms: C_1  and  N_2
REMARK    2  A    between atoms: C_6  and  C_7
REMARK    3  A    between atoms: C_7  and  C_8
REMARK    4  A    between atoms: C_8  and  C_9
REMARK    5  A    between atoms: C_13  and  N_14
REMARK    6  A    between atoms: N_17  and  C_18
REMARK    7  A    between atoms: C_23  and  O_24
REMARK    8  A    between atoms: O_24  and  C_25
REMARK                            x       y       z     vdW  Elec       q    Type
REMARK                         _______ _______ _______ _____ _____    ______ ____
ROOT
ATOM      1  C   UNL     1       2.449   7.314  19.036  0.00  0.00    +0.000 A 
ATOM      2  C   UNL     1       1.954   7.061  20.332  0.00  0.00    +0.000 A 
ATOM      3  C   UNL     1       1.141   7.973  20.998  0.00  0.00    +0.000 A 
ATOM      4  C   UNL     1       0.805   9.178  20.388  0.00  0.00    +0.000 A 
ATOM      5  C   UNL     1       1.286   9.486  19.115  0.00  0.00    +0.000 A 
ATOM      6  C   UNL     1       2.078   8.544  18.447  0.00  0.00    +0.000 A 
ENDROOT
BRANCH   5   7
ATOM      7  N   UNL     1       1.011  10.703  18.452  0.00  0.00    +0.000 N 
ATOM      8  C   UNL     1       1.213  11.971  18.972  0.00  0.00    +0.000 C 
ATOM      9  O   UNL     1       1.744  12.214  20.050  0.00  0.00    +0.000 OA
ATOM     10  N   UNL     1       0.724  12.948  18.102  0.00  0.00    +0.000 N 
ATOM     11  H   UNL     1       0.884  10.666  17.451  0.00  0.00    +0.000 HD
ATOM     12  H   UNL     1      -0.219  12.676  17.862  0.00  0.00    +0.000 HD
BRANCH  10  13
ATOM     13  C   UNL     1       0.716  14.246  18.655  0.00  0.00    +0.000 A 
ATOM     14  N   UNL     1      -0.407  14.583  19.330  0.00  0.00    +0.000 NA
ATOM     15  C   UNL     1      -0.336  15.685  20.101  0.00  0.00    +0.000 A 
ATOM     16  C   UNL     1       0.769  16.518  20.153  0.00  0.00    +0.000 A 
ATOM     17  C   UNL     1       1.869  16.216  19.350  0.00  0.00    +0.000 A 
ATOM     18  C   UNL     1       1.852  15.060  18.570  0.00  0.00    +0.000 A 
BRANCH  18  19
ATOM     19  O   UNL     1       2.892  14.666  17.770  0.00  0.00    +0.000 OA
BRANCH  19  20
ATOM     20  C   UNL     1       3.985  15.576  17.744  0.00  0.00    +0.000 C 
ATOM     21  F   UNL     1       5.095  14.850  17.435  0.00  0.00    +0.000 F 
ENDBRANCH  19  20
ENDBRANCH  18  19
ENDBRANCH  10  13
ENDBRANCH   5   7
BRANCH   1  22
ATOM     22  C   UNL     1       3.388   6.251  18.286  0.00  0.00    +0.000 C 
ATOM     23  C   UNL     1       4.389   5.421  19.138  0.00  0.00    +0.000 C 
ATOM     24  O   UNL     1       3.778   4.171  18.752  0.00  0.00    +0.000 OA
ATOM     25  C   UNL     1       2.743   4.857  18.024  0.00  0.00    +0.000 C 
BRANCH  22  26
ATOM     26  C   UNL     1       3.955   6.859  16.990  0.00  0.00    +0.000 C 
BRANCH  26  32
ATOM     27  C   UNL     1       5.194   4.319  15.514  0.00  0.00    +0.000 C 
ATOM     28  N   UNL     1       5.899   5.409  16.134  0.00  0.00    +0.000 N 
ATOM     29  C   UNL     1       7.254   5.504  16.238  0.00  0.00    +0.000 A 
ATOM     30  N   UNL     1       7.573   6.635  16.818  0.00  0.00    +0.000 NA
ATOM     31  N   UNL     1       6.406   7.287  17.125  0.00  0.00    +0.000 NA
ATOM     32  C   UNL     1       5.391   6.540  16.732  0.00  0.00    +0.000 A 
ENDBRANCH  26  32
ENDBRANCH  22  26
ENDBRANCH   1  22
TORSDOF 7
ENDMDL
MODEL 8
REMARK VINA RESULT:      -7.4      2.300      3.232
REMARK  Name = 
REMARK  8 active torsions:
REMARK  status: ('A' for Active; 'I' for Inactive)
REMARK    1  A    between atoms: C_1  and  N_2
REMARK    2  A    between atoms: C_6  and  C_7
REMARK    3  A    between atoms: C_7  and  C_8
REMARK    4  A    between atoms: C_8  and  C_9
REMARK    5  A    between atoms: C_13  and  N_14
REMARK    6  A    between atoms: N_17  and  C_18
REMARK    7  A    between atoms: C_23  and  O_24
REMARK    8  A    between atoms: O_24  and  C_25
REMARK                            x       y       z     vdW  Elec       q    Type
REMARK                         _______ _______ _______ _____ _____    ______ ____
ROOT
ATOM      1  C   UNL     1       2.743   4.661  18.992  0.00  0.00    +0.000 A 
ATOM      2  C   UNL     1       2.337   4.504  20.334  0.00  0.00    +0.000 A 
ATOM      3  C   UNL     1       1.782   5.553  21.060  0.00  0.00    +0.000 A 
ATOM      4  C   UNL     1       1.625   6.802  20.467  0.00  0.00    +0.000 A 
ATOM      5  C   UNL     1       2.030   7.016  19.149  0.00  0.00    +0.000 A 
ATOM      6  C   UNL     1       2.558   5.942  18.422  0.00  0.00    +0.000 A 
ENDROOT
BRANCH   5   7
ATOM      7  N   UNL     1       1.930   8.266  18.497  0.00  0.00    +0.000 N 
ATOM      8  C   UNL     1       1.505   9.449  19.077  0.00  0.00    +0.000 C 
ATOM      9  O   UNL     1       1.239   9.597  20.265  0.00  0.00    +0.000 OA
ATOM     10  N   UNL     1       1.411  10.465  18.122  0.00  0.00    +0.000 N 
ATOM     11  H   UNL     1       2.422   8.370  17.620  0.00  0.00    +0.000 HD
ATOM     12  H   UNL     1       0.873  10.090  17.353  0.00  0.00    +0.000 HD
BRANCH  10  13
ATOM     13  C   UNL     1       0.795  11.639  18.603  0.00  0.00    +0.000 A 
ATOM     14  N   UNL     1       1.635  12.658  18.894  0.00  0.00    +0.000 NA
ATOM     15  C   UNL     1       1.072  13.868  19.078  0.00  0.00    +0.000 A 
ATOM     16  C   UNL     1      -0.297  14.086  19.084  0.00  0.00    +0.000 A 
ATOM     17  C   UNL     1      -1.145  12.994  18.907  0.00  0.00    +0.000 A 
ATOM     18  C   UNL     1      -0.601  11.732  18.669  0.00  0.00    +0.000 A 
BRANCH  18  19
ATOM     19  O   UNL     1      -1.352  10.606  18.459  0.00  0.00    +0.000 OA
BRANCH  19  20
ATOM     20  C   UNL     1      -2.123  10.633  17.265  0.00  0.00    +0.000 C 
ATOM     21  F   UNL     1      -1.794   9.519  16.556  0.00  0.00    +0.000 F 
ENDBRANCH  19  20
ENDBRANCH  18  19
ENDBRANCH  10  13
ENDBRANCH   5   7
BRANCH   1  22
ATOM     22  C   UNL     1       3.383   3.440  18.171  0.00  0.00    +0.000 C 
ATOM     23  C   UNL     1       3.983   2.249  18.970  0.00  0.00    +0.000 C 
ATOM     24  O   UNL     1       3.061   1.308  18.379  0.00  0.00    +0.000 OA
ATOM     25  C   UNL     1       2.372   2.361  17.682  0.00  0.00    +0.000 C 
BRANCH  22  26
ATOM     26  C   UNL     1       4.245   3.970  17.011  0.00  0.00    +0.000 C 
BRANCH  26  32
ATOM     27  C   UNL     1       6.768   4.368  15.103  0.00  0.00    +0.000 C 
ATOM     28  N   UNL     1       6.733   4.420  16.540  0.00  0.00    +0.000 N 
ATOM     29  C   UNL     1       7.819   4.601  17.341  0.00  0.00    +0.000 A 
ATOM     30  N   UNL     1       7.441   4.641  18.595  0.00  0.00    +0.000 NA
ATOM     31  N   UNL     1       6.081   4.458  18.624  0.00  0.00    +0.000 NA
ATOM     32  C   UNL     1       5.652   4.303  17.385  0.00  0.00    +0.000 A 
ENDBRANCH  26  32
ENDBRANCH  22  26
ENDBRANCH   1  22
TORSDOF 7
ENDMDL
MODEL 9
REMARK VINA RESULT:      -7.4      3.198      9.148
REMARK  Name = 
REMARK  8 active torsions:
REMARK  status: ('A' for Active; 'I' for Inactive)
REMARK    1  A    between atoms: C_1  and  N_2
REMARK    2  A    between atoms: C_6  and  C_7
REMARK    3  A    between atoms: C_7  and  C_8
REMARK    4  A    between atoms: C_8  and  C_9
REMARK    5  A    between atoms: C_13  and  N_14
REMARK    6  A    between atoms: N_17  and  C_18
REMARK    7  A    between atoms: C_23  and  O_24
REMARK    8  A    between atoms: O_24  and  C_25
REMARK                            x       y       z     vdW  Elec       q    Type
REMARK                         _______ _______ _______ _____ _____    ______ ____
ROOT
ATOM      1  C   UNL     1      -0.438  10.640  20.438  0.00  0.00    +0.000 A 
ATOM      2  C   UNL     1      -0.848  11.031  21.729  0.00  0.00    +0.000 A 
ATOM      3  C   UNL     1      -0.427  10.353  22.869  0.00  0.00    +0.000 A 
ATOM      4  C   UNL     1       0.415   9.251  22.751  0.00  0.00    +0.000 A 
ATOM      5  C   UNL     1       0.833   8.810  21.495  0.00  0.00    +0.000 A 
ATOM      6  C   UNL     1       0.424   9.522  20.360  0.00  0.00    +0.000 A 
ENDROOT
BRANCH   5   7
ATOM      7  N   UNL     1       1.657   7.680  21.301  0.00  0.00    +0.000 N 
ATOM      8  C   UNL     1       2.175   7.254  20.089  0.00  0.00    +0.000 C 
ATOM      9  O   UNL     1       2.060   7.852  19.024  0.00  0.00    +0.000 OA
ATOM     10  N   UNL     1       2.846   6.038  20.235  0.00  0.00    +0.000 N 
ATOM     11  H   UNL     1       2.102   7.286  22.118  0.00  0.00    +0.000 HD
ATOM     12  H   UNL     1       2.220   5.419  20.731  0.00  0.00    +0.000 HD
BRANCH  10  13
ATOM     13  C   UNL     1       3.224   5.449  19.010  0.00  0.00    +0.000 A 
ATOM     14  N   UNL     1       4.427   5.835  18.527  0.00  0.00    +0.000 NA
ATOM     15  C   UNL     1       4.939   5.092  17.526  0.00  0.00    +0.000 A 
ATOM     16  C   UNL     1       4.262   4.044  16.923  0.00  0.00    +0.000 A 
ATOM     17  C   UNL     1       2.971   3.747  17.357  0.00  0.00    +0.000 A 
ATOM     18  C   UNL     1       2.422   4.464  18.420  0.00  0.00    +0.000 A 
BRANCH  18  19
ATOM     19  O   UNL     1       1.174   4.229  18.933  0.00  0.00    +0.000 OA
BRANCH  19  20
ATOM     20  C   UNL     1       1.033   2.966  19.570  0.00  0.00    +0.000 C 
ATOM     21  F   UNL     1       0.880   3.211  20.900  0.00  0.00    +0.000 F 
ENDBRANCH  19  20
ENDBRANCH  18  19
ENDBRANCH  10  13
ENDBRANCH   5   7
BRANCH   1  22
ATOM     22  C   UNL     1      -0.937  11.432  19.135  0.00  0.00    +0.000 C 
ATOM     23  C   UNL     1      -1.513  10.609  17.948  0.00  0.00    +0.000 C 
ATOM     24  O   UNL     1      -2.797  11.264  18.035  0.00  0.00    +0.000 OA
ATOM     25  C   UNL     1      -2.389  11.992  19.208  0.00  0.00    +0.000 C 
BRANCH  22  26
ATOM     26  C   UNL     1       0.071  12.533  18.760  0.00  0.00    +0.000 C 
BRANCH  26  32
ATOM     27  C   UNL     1      -0.971  14.926  20.592  0.00  0.00    +0.000 C 
ATOM     28  N   UNL     1       0.293  14.244  20.667  0.00  0.00    +0.000 N 
ATOM     29  C   UNL     1       1.300  14.559  21.529  0.00  0.00    +0.000 A 
ATOM     30  N   UNL     1       2.295  13.722  21.370  0.00  0.00    +0.000 NA
ATOM     31  N   UNL     1       1.949  12.852  20.367  0.00  0.00    +0.000 NA
ATOM     32  C   UNL     1       0.748  13.177  19.925  0.00  0.00    +0.000 A 
ENDBRANCH  26  32
ENDBRANCH  22  26
ENDBRANCH   1  22
TORSDOF 7
ENDMDL
