MODEL 1
REMARK VINA RESULT:      -9.5      0.000      0.000
REMARK  Name = 
REMARK  2 active torsions:
REMARK  status: ('A' for Active; 'I' for Inactive)
REMARK    1  A    between atoms: C_1  and  C_2
REMARK    2  A    between atoms: C_16  and  C_17
REMARK                            x       y       z     vdW  Elec       q    Type
REMARK                         _______ _______ _______ _____ _____    ______ ____
ROOT
ATOM      1  C   UNL     1       7.145   3.131  11.170  0.00  0.00    +0.000 C 
ATOM      2  C   UNL     1       6.872   3.840  12.430  0.00  0.00    +0.000 A 
ATOM      3  C   UNL     1       5.973   3.673  13.454  0.00  0.00    +0.000 A 
ATOM      4  C   UNL     1       6.266   4.722  14.354  0.00  0.00    +0.000 A 
ATOM      5  N   UNL     1       5.664   5.004  15.564  0.00  0.00    +0.000 N 
ATOM      6  C   UNL     1       5.352   4.003  16.452  0.00  0.00    +0.000 C 
ATOM      7  O   UNL     1       5.635   2.823  16.261  0.00  0.00    +0.000 OA
ATOM      8  N   UNL     1       4.727   4.434  17.619  0.00  0.00    +0.000 N 
ATOM      9  C   UNL     1       4.561   3.455  18.691  0.00  0.00    +0.000 C 
ATOM     10  C   UNL     1       3.272   3.577  19.458  0.00  0.00    +0.000 A 
ATOM     11  C   UNL     1       2.675   2.428  19.997  0.00  0.00    +0.000 A 
ATOM     12  C   UNL     1       1.543   2.533  20.802  0.00  0.00    +0.000 A 
ATOM     13  C   UNL     1       1.021   3.788  21.102  0.00  0.00    +0.000 A 
ATOM     14  C   UNL     1       1.614   4.938  20.577  0.00  0.00    +0.000 A 
ATOM     15  C   UNL     1       2.723   4.846  19.724  0.00  0.00    +0.000 A 
ATOM     16  C   UNL     1       3.414   6.054  19.106  0.00  0.00    +0.000 C 
ATOM     17  C   UNL     1       3.960   5.686  17.697  0.00  0.00    +0.000 C 
ATOM     18  N   UNL     1       7.237   5.509  13.880  0.00  0.00    +0.000 NA
ATOM     19  O   UNL     1       7.652   4.921  12.696  0.00  0.00    +0.000 OA
ATOM     20  H   UNL     1       6.009   5.858  15.973  0.00  0.00    +0.000 HD
ENDROOT
BRANCH  16  21
ATOM     21  C   UNL     1       2.563   7.316  18.994  0.00  0.00    +0.000 A 
ATOM     22  C   UNL     1       1.901   7.827  20.121  0.00  0.00    +0.000 A 
ATOM     23  C   UNL     1       1.157   9.006  20.031  0.00  0.00    +0.000 A 
ATOM     24  C   UNL     1       1.063   9.688  18.820  0.00  0.00    +0.000 A 
ATOM     25  C   UNL     1       1.699   9.185  17.690  0.00  0.00    +0.000 A 
ATOM     26  C   UNL     1       2.440   8.007  17.774  0.00  0.00    +0.000 A 
ENDBRANCH  16  21
TORSDOF 1
ENDMDL
MODEL 2
REMARK VINA RESULT:      -8.3      3.865      7.745
REMARK  Name = 
REMARK  2 active torsions:
REMARK  status: ('A' for Active; 'I' for Inactive)
REMARK    1  A    between atoms: C_1  and  C_2
REMARK    2  A    between atoms: C_16  and  C_17
REMARK                            x       y       z     vdW  Elec       q    Type
REMARK                         _______ _______ _______ _____ _____    ______ ____
ROOT
ATOM      1  C   UNL     1      -2.586  12.152  18.336  0.00  0.00    +0.000 C 
ATOM      2  C   UNL     1      -1.510  11.283  18.840  0.00  0.00    +0.000 A 
ATOM      3  C   UNL     1      -0.717  10.311  18.283  0.00  0.00    +0.000 A 
ATOM      4  C   UNL     1       0.109   9.879  19.345  0.00  0.00    +0.000 A 
ATOM      5  N   UNL     1       1.104   8.922  19.320  0.00  0.00    +0.000 N 
ATOM      6  C   UNL     1       1.995   8.853  18.276  0.00  0.00    +0.000 C 
ATOM      7  O   UNL     1       2.005   9.654  17.346  0.00  0.00    +0.000 OA
ATOM      8  N   UNL     1       2.927   7.823  18.375  0.00  0.00    +0.000 N 
ATOM      9  C   UNL     1       4.029   7.822  17.415  0.00  0.00    +0.000 C 
ATOM     10  C   UNL     1       4.451   6.456  16.946  0.00  0.00    +0.000 A 
ATOM     11  C   UNL     1       4.954   6.294  15.647  0.00  0.00    +0.000 A 
ATOM     12  C   UNL     1       5.451   5.061  15.232  0.00  0.00    +0.000 A 
ATOM     13  C   UNL     1       5.482   3.992  16.122  0.00  0.00    +0.000 A 
ATOM     14  C   UNL     1       4.992   4.145  17.420  0.00  0.00    +0.000 A 
ATOM     15  C   UNL     1       4.440   5.366  17.837  0.00  0.00    +0.000 A 
ATOM     16  C   UNL     1       3.877   5.604  19.232  0.00  0.00    +0.000 C 
ATOM     17  C   UNL     1       2.686   6.601  19.156  0.00  0.00    +0.000 C 
ATOM     18  N   UNL     1      -0.204  10.503  20.485  0.00  0.00    +0.000 NA
ATOM     19  O   UNL     1      -1.185  11.423  20.153  0.00  0.00    +0.000 OA
ATOM     20  H   UNL     1       1.488   8.746  20.235  0.00  0.00    +0.000 HD
ENDROOT
BRANCH  16  21
ATOM     21  C   UNL     1       3.431   4.354  19.986  0.00  0.00    +0.000 A 
ATOM     22  C   UNL     1       4.271   3.232  20.057  0.00  0.00    +0.000 A 
ATOM     23  C   UNL     1       3.884   2.103  20.784  0.00  0.00    +0.000 A 
ATOM     24  C   UNL     1       2.658   2.079  21.445  0.00  0.00    +0.000 A 
ATOM     25  C   UNL     1       1.807   3.177  21.370  0.00  0.00    +0.000 A 
ATOM     26  C   UNL     1       2.187   4.304  20.644  0.00  0.00    +0.000 A 
ENDBRANCH  16  21
TORSDOF 1
ENDMDL
MODEL 3
REMARK VINA RESULT:      -8.2      3.843      7.771
REMARK  Name = 
REMARK  2 active torsions:
REMARK  status: ('A' for Active; 'I' for Inactive)
REMARK    1  A    between atoms: C_1  and  C_2
REMARK    2  A    between atoms: C_16  and  C_17
REMARK                            x       y       z     vdW  Elec       q    Type
REMARK                         _______ _______ _______ _____ _____    ______ ____
ROOT
ATOM      1  C   UNL     1      -2.005  12.674  18.579  0.00  0.00    +0.000 C 
ATOM      2  C   UNL     1      -1.112  11.576  18.983  0.00  0.00    +0.000 A 
ATOM      3  C   UNL     1      -0.353  10.653  18.306  0.00  0.00    +0.000 A 
ATOM      4  C   UNL     1       0.258   9.887  19.323  0.00  0.00    +0.000 A 
ATOM      5  N   UNL     1       1.140   8.832  19.187  0.00  0.00    +0.000 N 
ATOM      6  C   UNL     1       2.161   8.876  18.269  0.00  0.00    +0.000 C 
ATOM      7  O   UNL     1       2.392   9.856  17.565  0.00  0.00    +0.000 OA
ATOM      8  N   UNL     1       2.955   7.732  18.227  0.00  0.00    +0.000 N 
ATOM      9  C   UNL     1       4.178   7.795  17.430  0.00  0.00    +0.000 C 
ATOM     10  C   UNL     1       4.518   6.523  16.701  0.00  0.00    +0.000 A 
ATOM     11  C   UNL     1       5.184   6.588  15.468  0.00  0.00    +0.000 A 
ATOM     12  C   UNL     1       5.604   5.422  14.832  0.00  0.00    +0.000 A 
ATOM     13  C   UNL     1       5.391   4.188  15.437  0.00  0.00    +0.000 A 
ATOM     14  C   UNL     1       4.736   4.113  16.668  0.00  0.00    +0.000 A 
ATOM     15  C   UNL     1       4.262   5.274  17.298  0.00  0.00    +0.000 A 
ATOM     16  C   UNL     1       3.529   5.270  18.633  0.00  0.00    +0.000 C 
ATOM     17  C   UNL     1       2.474   6.412  18.659  0.00  0.00    +0.000 C 
ATOM     18  N   UNL     1      -0.149  10.278  20.535  0.00  0.00    +0.000 NA
ATOM     19  O   UNL     1      -0.969  11.373  20.319  0.00  0.00    +0.000 OA
ATOM     20  H   UNL     1       1.365   8.406  20.072  0.00  0.00    +0.000 HD
ENDROOT
BRANCH  16  21
ATOM     21  C   UNL     1       2.848   3.956  19.009  0.00  0.00    +0.000 A 
ATOM     22  C   UNL     1       3.365   3.161  20.043  0.00  0.00    +0.000 A 
ATOM     23  C   UNL     1       2.719   1.980  20.419  0.00  0.00    +0.000 A 
ATOM     24  C   UNL     1       1.554   1.579  19.769  0.00  0.00    +0.000 A 
ATOM     25  C   UNL     1       1.039   2.348  18.730  0.00  0.00    +0.000 A 
ATOM     26  C   UNL     1       1.682   3.525  18.350  0.00  0.00    +0.000 A 
ENDBRANCH  16  21
TORSDOF 1
ENDMDL
MODEL 4
REMARK VINA RESULT:      -8.0      3.953      7.371
REMARK  Name = 
REMARK  2 active torsions:
REMARK  status: ('A' for Active; 'I' for Inactive)
REMARK    1  A    between atoms: C_1  and  C_2
REMARK    2  A    between atoms: C_16  and  C_17
REMARK                            x       y       z     vdW  Elec       q    Type
REMARK                         _______ _______ _______ _____ _____    ______ ____
ROOT
ATOM      1  C   UNL     1       0.299  13.304  21.619  0.00  0.00    +0.000 C 
ATOM      2  C   UNL     1       0.572  12.152  20.745  0.00  0.00    +0.000 A 
ATOM      3  C   UNL     1       1.099  10.899  20.941  0.00  0.00    +0.000 A 
ATOM      4  C   UNL     1       1.078  10.305  19.660  0.00  0.00    +0.000 A 
ATOM      5  N   UNL     1       1.484   9.035  19.299  0.00  0.00    +0.000 N 
ATOM      6  C   UNL     1       1.177   7.945  20.077  0.00  0.00    +0.000 C 
ATOM      7  O   UNL     1       0.487   8.014  21.090  0.00  0.00    +0.000 OA
ATOM      8  N   UNL     1       1.672   6.733  19.602  0.00  0.00    +0.000 N 
ATOM      9  C   UNL     1       1.206   5.514  20.260  0.00  0.00    +0.000 C 
ATOM     10  C   UNL     1       2.249   4.438  20.399  0.00  0.00    +0.000 A 
ATOM     11  C   UNL     1       2.208   3.571  21.500  0.00  0.00    +0.000 A 
ATOM     12  C   UNL     1       3.096   2.502  21.590  0.00  0.00    +0.000 A 
ATOM     13  C   UNL     1       4.008   2.272  20.564  0.00  0.00    +0.000 A 
ATOM     14  C   UNL     1       4.051   3.125  19.459  0.00  0.00    +0.000 A 
ATOM     15  C   UNL     1       3.198   4.235  19.378  0.00  0.00    +0.000 A 
ATOM     16  C   UNL     1       3.196   5.214  18.212  0.00  0.00    +0.000 C 
ATOM     17  C   UNL     1       2.845   6.641  18.722  0.00  0.00    +0.000 C 
ATOM     18  N   UNL     1       0.627  11.160  18.737  0.00  0.00    +0.000 NA
ATOM     19  O   UNL     1       0.260  12.301  19.431  0.00  0.00    +0.000 OA
ATOM     20  H   UNL     1       1.439   8.887  18.303  0.00  0.00    +0.000 HD
ENDROOT
BRANCH  16  21
ATOM     21  C   UNL     1       4.488   5.279  17.402  0.00  0.00    +0.000 A 
ATOM     22  C   UNL     1       5.502   6.182  17.757  0.00  0.00    +0.000 A 
ATOM     23  C   UNL     1       6.703   6.214  17.045  0.00  0.00    +0.000 A 
ATOM     24  C   UNL     1       6.907   5.349  15.972  0.00  0.00    +0.000 A 
ATOM     25  C   UNL     1       5.904   4.460  15.596  0.00  0.00    +0.000 A 
ATOM     26  C   UNL     1       4.703   4.428  16.302  0.00  0.00    +0.000 A 
ENDBRANCH  16  21
TORSDOF 1
ENDMDL
MODEL 5
REMARK VINA RESULT:      -7.7      3.975      7.953
REMARK  Name = 
REMARK  2 active torsions:
REMARK  status: ('A' for Active; 'I' for Inactive)
REMARK    1  A    between atoms: C_1  and  C_2
REMARK    2  A    between atoms: C_16  and  C_17
REMARK                            x       y       z     vdW  Elec       q    Type
REMARK                         _______ _______ _______ _____ _____    ______ ____
ROOT
ATOM      1  C   UNL     1      -2.219  12.770  18.996  0.00  0.00    +0.000 C 
ATOM      2  C   UNL     1      -1.302  11.678  19.360  0.00  0.00    +0.000 A 
ATOM      3  C   UNL     1      -0.549  10.776  18.649  0.00  0.00    +0.000 A 
ATOM      4  C   UNL     1       0.098  10.002  19.638  0.00  0.00    +0.000 A 
ATOM      5  N   UNL     1       0.989   8.961  19.463  0.00  0.00    +0.000 N 
ATOM      6  C   UNL     1       1.986   9.034  18.520  0.00  0.00    +0.000 C 
ATOM      7  O   UNL     1       2.187  10.027  17.827  0.00  0.00    +0.000 OA
ATOM      8  N   UNL     1       2.794   7.901  18.440  0.00  0.00    +0.000 N 
ATOM      9  C   UNL     1       3.995   7.993  17.614  0.00  0.00    +0.000 C 
ATOM     10  C   UNL     1       4.333   6.738  16.856  0.00  0.00    +0.000 A 
ATOM     11  C   UNL     1       4.968   6.831  15.609  0.00  0.00    +0.000 A 
ATOM     12  C   UNL     1       5.386   5.681  14.943  0.00  0.00    +0.000 A 
ATOM     13  C   UNL     1       5.204   4.434  15.533  0.00  0.00    +0.000 A 
ATOM     14  C   UNL     1       4.581   4.331  16.779  0.00  0.00    +0.000 A 
ATOM     15  C   UNL     1       4.108   5.475  17.439  0.00  0.00    +0.000 A 
ATOM     16  C   UNL     1       3.410   5.440  18.791  0.00  0.00    +0.000 C 
ATOM     17  C   UNL     1       2.341   6.568  18.862  0.00  0.00    +0.000 C 
ATOM     18  N   UNL     1      -0.284  10.368  20.865  0.00  0.00    +0.000 NA
ATOM     19  O   UNL     1      -1.123  11.456  20.689  0.00  0.00    +0.000 OA
ATOM     20  H   UNL     1       1.242   8.524  20.334  0.00  0.00    +0.000 HD
ENDROOT
BRANCH  16  21
ATOM     21  C   UNL     1       2.755   4.112  19.163  0.00  0.00    +0.000 A 
ATOM     22  C   UNL     1       1.854   3.496  18.281  0.00  0.00    +0.000 A 
ATOM     23  C   UNL     1       1.287   2.259  18.599  0.00  0.00    +0.000 A 
ATOM     24  C   UNL     1       1.610   1.624  19.796  0.00  0.00    +0.000 A 
ATOM     25  C   UNL     1       2.489   2.230  20.687  0.00  0.00    +0.000 A 
ATOM     26  C   UNL     1       3.054   3.466  20.376  0.00  0.00    +0.000 A 
ENDBRANCH  16  21
TORSDOF 1
ENDMDL
MODEL 6
REMARK VINA RESULT:      -7.5      4.191      7.401
REMARK  Name = 
REMARK  2 active torsions:
REMARK  status: ('A' for Active; 'I' for Inactive)
REMARK    1  A    between atoms: C_1  and  C_2
REMARK    2  A    between atoms: C_16  and  C_17
REMARK                            x       y       z     vdW  Elec       q    Type
REMARK                         _______ _______ _______ _____ _____    ______ ____
ROOT
ATOM      1  C   UNL     1       4.824   3.084  19.668  0.00  0.00    +0.000 C 
ATOM      2  C   UNL     1       3.752   4.085  19.555  0.00  0.00    +0.000 A 
ATOM      3  C   UNL     1       3.710   5.457  19.574  0.00  0.00    +0.000 A 
ATOM      4  C   UNL     1       2.342   5.769  19.416  0.00  0.00    +0.000 A 
ATOM      5  N   UNL     1       1.750   7.016  19.351  0.00  0.00    +0.000 N 
ATOM      6  C   UNL     1       2.317   8.032  18.620  0.00  0.00    +0.000 C 
ATOM      7  O   UNL     1       3.331   7.889  17.943  0.00  0.00    +0.000 OA
ATOM      8  N   UNL     1       1.623   9.239  18.667  0.00  0.00    +0.000 N 
ATOM      9  C   UNL     1       2.049  10.292  17.749  0.00  0.00    +0.000 C 
ATOM     10  C   UNL     1       1.980  11.684  18.316  0.00  0.00    +0.000 A 
ATOM     11  C   UNL     1       2.903  12.652  17.893  0.00  0.00    +0.000 A 
ATOM     12  C   UNL     1       2.788  13.972  18.323  0.00  0.00    +0.000 A 
ATOM     13  C   UNL     1       1.731  14.341  19.148  0.00  0.00    +0.000 A 
ATOM     14  C   UNL     1       0.801  13.387  19.567  0.00  0.00    +0.000 A 
ATOM     15  C   UNL     1       0.932  12.044  19.186  0.00  0.00    +0.000 A 
ATOM     16  C   UNL     1      -0.034  10.947  19.612  0.00  0.00    +0.000 C 
ATOM     17  C   UNL     1       0.732   9.604  19.777  0.00  0.00    +0.000 C 
ATOM     18  N   UNL     1       1.595   4.661  19.366  0.00  0.00    +0.000 NA
ATOM     19  O   UNL     1       2.490   3.605  19.399  0.00  0.00    +0.000 OA
ATOM     20  H   UNL     1       0.745   6.960  19.316  0.00  0.00    +0.000 HD
ENDROOT
BRANCH  16  21
ATOM     21  C   UNL     1      -0.828  11.226  20.886  0.00  0.00    +0.000 A 
ATOM     22  C   UNL     1      -0.527  10.540  22.072  0.00  0.00    +0.000 A 
ATOM     23  C   UNL     1      -1.223  10.823  23.250  0.00  0.00    +0.000 A 
ATOM     24  C   UNL     1      -2.225  11.791  23.259  0.00  0.00    +0.000 A 
ATOM     25  C   UNL     1      -2.547  12.467  22.087  0.00  0.00    +0.000 A 
ATOM     26  C   UNL     1      -1.858  12.185  20.908  0.00  0.00    +0.000 A 
ENDBRANCH  16  21
TORSDOF 1
ENDMDL
MODEL 7
REMARK VINA RESULT:      -7.2      4.497      7.812
REMARK  Name = 
REMARK  2 active torsions:
REMARK  status: ('A' for Active; 'I' for Inactive)
REMARK    1  A    between atoms: C_1  and  C_2
REMARK    2  A    between atoms: C_16  and  C_17
REMARK                            x       y       z     vdW  Elec       q    Type
REMARK                         _______ _______ _______ _____ _____    ______ ____
ROOT
ATOM      1  C   UNL     1       3.970   3.794  19.921  0.00  0.00    +0.000 C 
ATOM      2  C   UNL     1       3.409   5.098  19.531  0.00  0.00    +0.000 A 
ATOM      3  C   UNL     1       2.430   5.916  20.039  0.00  0.00    +0.000 A 
ATOM      4  C   UNL     1       2.405   7.021  19.160  0.00  0.00    +0.000 A 
ATOM      5  N   UNL     1       1.607   8.147  19.225  0.00  0.00    +0.000 N 
ATOM      6  C   UNL     1       1.373   8.782  20.421  0.00  0.00    +0.000 C 
ATOM      7  O   UNL     1       1.891   8.436  21.479  0.00  0.00    +0.000 OA
ATOM      8  N   UNL     1       0.531   9.889  20.336  0.00  0.00    +0.000 N 
ATOM      9  C   UNL     1       0.411  10.731  21.524  0.00  0.00    +0.000 C 
ATOM     10  C   UNL     1      -0.967  11.286  21.762  0.00  0.00    +0.000 A 
ATOM     11  C   UNL     1      -1.408  11.510  23.075  0.00  0.00    +0.000 A 
ATOM     12  C   UNL     1      -2.635  12.125  23.312  0.00  0.00    +0.000 A 
ATOM     13  C   UNL     1      -3.414  12.551  22.241  0.00  0.00    +0.000 A 
ATOM     14  C   UNL     1      -2.981  12.341  20.930  0.00  0.00    +0.000 A 
ATOM     15  C   UNL     1      -1.772  11.677  20.674  0.00  0.00    +0.000 A 
ATOM     16  C   UNL     1      -1.241  11.402  19.274  0.00  0.00    +0.000 C 
ATOM     17  C   UNL     1      -0.456  10.059  19.261  0.00  0.00    +0.000 C 
ATOM     18  N   UNL     1       3.267   6.858  18.152  0.00  0.00    +0.000 NA
ATOM     19  O   UNL     1       3.934   5.674  18.417  0.00  0.00    +0.000 OA
ATOM     20  H   UNL     1       1.733   8.750  18.427  0.00  0.00    +0.000 HD
ENDROOT
BRANCH  16  21
ATOM     21  C   UNL     1      -2.288  11.376  18.164  0.00  0.00    +0.000 A 
ATOM     22  C   UNL     1      -1.961  10.880  16.892  0.00  0.00    +0.000 A 
ATOM     23  C   UNL     1      -2.929  10.814  15.887  0.00  0.00    +0.000 A 
ATOM     24  C   UNL     1      -4.231  11.241  16.137  0.00  0.00    +0.000 A 
ATOM     25  C   UNL     1      -4.567  11.751  17.387  0.00  0.00    +0.000 A 
ATOM     26  C   UNL     1      -3.603  11.822  18.391  0.00  0.00    +0.000 A 
ENDBRANCH  16  21
TORSDOF 1
ENDMDL
MODEL 8
REMARK VINA RESULT:      -7.1     10.296     13.254
REMARK  Name = 
REMARK  2 active torsions:
REMARK  status: ('A' for Active; 'I' for Inactive)
REMARK    1  A    between atoms: C_1  and  C_2
REMARK    2  A    between atoms: C_16  and  C_17
REMARK                            x       y       z     vdW  Elec       q    Type
REMARK                         _______ _______ _______ _____ _____    ______ ____
ROOT
ATOM      1  C   UNL     1       0.349  14.963  18.904  0.00  0.00    +0.000 C 
ATOM      2  C   UNL     1       1.736  14.836  19.378  0.00  0.00    +0.000 A 
ATOM      3  C   UNL     1       2.956  15.259  18.910  0.00  0.00    +0.000 A 
ATOM      4  C   UNL     1       3.882  14.783  19.865  0.00  0.00    +0.000 A 
ATOM      5  N   UNL     1       5.254  14.948  19.882  0.00  0.00    +0.000 N 
ATOM      6  C   UNL     1       5.826  16.158  19.569  0.00  0.00    +0.000 C 
ATOM      7  O   UNL     1       5.173  17.166  19.317  0.00  0.00    +0.000 OA
ATOM      8  N   UNL     1       7.219  16.168  19.605  0.00  0.00    +0.000 N 
ATOM      9  C   UNL     1       7.881  17.465  19.492  0.00  0.00    +0.000 C 
ATOM     10  C   UNL     1       9.162  17.449  18.701  0.00  0.00    +0.000 A 
ATOM     11  C   UNL     1       9.537  18.582  17.964  0.00  0.00    +0.000 A 
ATOM     12  C   UNL     1      10.769  18.626  17.316  0.00  0.00    +0.000 A 
ATOM     13  C   UNL     1      11.648  17.554  17.429  0.00  0.00    +0.000 A 
ATOM     14  C   UNL     1      11.289  16.425  18.167  0.00  0.00    +0.000 A 
ATOM     15  C   UNL     1      10.031  16.344  18.783  0.00  0.00    +0.000 A 
ATOM     16  C   UNL     1       9.565  15.142  19.594  0.00  0.00    +0.000 C 
ATOM     17  C   UNL     1       8.030  14.956  19.426  0.00  0.00    +0.000 C 
ATOM     18  N   UNL     1       3.273  14.068  20.816  0.00  0.00    +0.000 NA
ATOM     19  O   UNL     1       1.919  14.148  20.536  0.00  0.00    +0.000 OA
ATOM     20  H   UNL     1       5.690  14.440  20.635  0.00  0.00    +0.000 HD
ENDROOT
BRANCH  16  21
ATOM     21  C   UNL     1      10.263  13.821  19.278  0.00  0.00    +0.000 A 
ATOM     22  C   UNL     1      11.205  13.287  20.170  0.00  0.00    +0.000 A 
ATOM     23  C   UNL     1      11.813  12.057  19.906  0.00  0.00    +0.000 A 
ATOM     24  C   UNL     1      11.490  11.348  18.751  0.00  0.00    +0.000 A 
ATOM     25  C   UNL     1      10.570  11.872  17.849  0.00  0.00    +0.000 A 
ATOM     26  C   UNL     1       9.964  13.101  18.107  0.00  0.00    +0.000 A 
ENDBRANCH  16  21
TORSDOF 1
ENDMDL
MODEL 9
REMARK VINA RESULT:      -7.1     10.126     12.963
REMARK  Name = 
REMARK  2 active torsions:
REMARK  status: ('A' for Active; 'I' for Inactive)
REMARK    1  A    between atoms: C_1  and  C_2
REMARK    2  A    between atoms: C_16  and  C_17
REMARK                            x       y       z     vdW  Elec       q    Type
REMARK                         _______ _______ _______ _____ _____    ______ ____
ROOT
ATOM      1  C   UNL     1       0.688  17.713  17.443  0.00  0.00    +0.000 C 
ATOM      2  C   UNL     1       1.832  17.101  18.137  0.00  0.00    +0.000 A 
ATOM      3  C   UNL     1       3.168  16.958  17.851  0.00  0.00    +0.000 A 
ATOM      4  C   UNL     1       3.692  16.260  18.961  0.00  0.00    +0.000 A 
ATOM      5  N   UNL     1       4.999  15.872  19.189  0.00  0.00    +0.000 N 
ATOM      6  C   UNL     1       6.046  16.719  18.918  0.00  0.00    +0.000 C 
ATOM      7  O   UNL     1       5.895  17.870  18.520  0.00  0.00    +0.000 OA
ATOM      8  N   UNL     1       7.307  16.185  19.175  0.00  0.00    +0.000 N 
ATOM      9  C   UNL     1       8.446  17.096  19.111  0.00  0.00    +0.000 C 
ATOM     10  C   UNL     1       9.700  16.495  18.537  0.00  0.00    +0.000 A 
ATOM     11  C   UNL     1      10.592  17.305  17.819  0.00  0.00    +0.000 A 
ATOM     12  C   UNL     1      11.809  16.793  17.374  0.00  0.00    +0.000 A 
ATOM     13  C   UNL     1      12.157  15.479  17.673  0.00  0.00    +0.000 A 
ATOM     14  C   UNL     1      11.280  14.667  18.395  0.00  0.00    +0.000 A 
ATOM     15  C   UNL     1      10.030  15.152  18.805  0.00  0.00    +0.000 A 
ATOM     16  C   UNL     1       9.017  14.323  19.584  0.00  0.00    +0.000 C 
ATOM     17  C   UNL     1       7.574  14.739  19.182  0.00  0.00    +0.000 C 
ATOM     18  N   UNL     1       2.730  15.945  19.834  0.00  0.00    +0.000 NA
ATOM     19  O   UNL     1       1.572  16.522  19.339  0.00  0.00    +0.000 OA
ATOM     20  H   UNL     1       5.092  15.315  20.024  0.00  0.00    +0.000 HD
ENDROOT
BRANCH  16  21
ATOM     21  C   UNL     1       9.155  12.809  19.442  0.00  0.00    +0.000 A 
ATOM     22  C   UNL     1       9.476  12.020  20.557  0.00  0.00    +0.000 A 
ATOM     23  C   UNL     1       9.560  10.630  20.441  0.00  0.00    +0.000 A 
ATOM     24  C   UNL     1       9.326  10.013  19.214  0.00  0.00    +0.000 A 
ATOM     25  C   UNL     1       9.023  10.783  18.096  0.00  0.00    +0.000 A 
ATOM     26  C   UNL     1       8.942  12.170  18.207  0.00  0.00    +0.000 A 
ENDBRANCH  16  21
TORSDOF 1
ENDMDL
