MODEL 1
REMARK VINA RESULT:      -8.8      0.000      0.000
REMARK  Name = 
REMARK  4 active torsions:
REMARK  status: ('A' for Active; 'I' for Inactive)
REMARK    1  A    between atoms: C_1  and  N_2
REMARK    2  A    between atoms: C_3  and  C_5
REMARK    3  A    between atoms: C_8  and  C_10
REMARK    4  A    between atoms: C_13  and  C_14
REMARK                            x       y       z     vdW  Elec       q    Type
REMARK                         _______ _______ _______ _____ _____    ______ ____
ROOT
ATOM      1  C   UNL     1       7.110   6.502  17.110  0.00  0.00    +0.000 C 
ATOM      2  C   UNL     1       5.593   6.586  17.094  0.00  0.00    +0.000 C 
ATOM      3  N   UNL     1       5.009   5.333  16.582  0.00  0.00    +0.000 N 
ATOM      4  C   UNL     1       4.073   4.534  17.301  0.00  0.00    +0.000 C 
ATOM      5  O   UNL     1       3.744   3.416  16.902  0.00  0.00    +0.000 OA
ATOM      6  C   UNL     1       5.646   4.905  15.361  0.00  0.00    +0.000 A 
ATOM      7  C   UNL     1       5.065   3.998  14.466  0.00  0.00    +0.000 A 
ATOM      8  C   UNL     1       5.704   3.668  13.260  0.00  0.00    +0.000 A 
ATOM      9  C   UNL     1       6.928   4.238  12.925  0.00  0.00    +0.000 A 
ATOM     10  C   UNL     1       7.529   5.128  13.805  0.00  0.00    +0.000 A 
ATOM     11  C   UNL     1       6.902   5.447  15.016  0.00  0.00    +0.000 A 
ATOM     12  O   UNL     1       7.640   6.293  15.808  0.00  0.00    +0.000 OA
ENDROOT
BRANCH   1  15
ATOM     13  C   UNL     1       8.346   5.264  20.489  0.00  0.00    +0.000 C 
ATOM     14  N   UNL     1       7.863   6.086  19.409  0.00  0.00    +0.000 N 
ATOM     15  C   UNL     1       7.553   5.511  18.198  0.00  0.00    +0.000 C 
ATOM     16  O   UNL     1       7.556   4.295  18.017  0.00  0.00    +0.000 OA
ATOM     17  H   UNL     1       8.080   7.076  19.404  0.00  0.00    +0.000 HD
ENDBRANCH   1  15
BRANCH   4  18
ATOM     18  C   UNL     1       3.545   5.035  18.567  0.00  0.00    +0.000 A 
ATOM     19  C   UNL     1       3.466   4.533  19.856  0.00  0.00    +0.000 A 
ATOM     20  C   UNL     1       2.687   5.435  20.614  0.00  0.00    +0.000 A 
ATOM     21  C   UNL     1       2.431   6.520  19.805  0.00  0.00    +0.000 A 
ATOM     22  O   UNL     1       2.984   6.299  18.571  0.00  0.00    +0.000 OA
BRANCH  21  23
ATOM     23  C   UNL     1       1.735   7.795  19.993  0.00  0.00    +0.000 A 
ATOM     24  C   UNL     1       1.066   8.029  21.210  0.00  0.00    +0.000 A 
ATOM     25  C   UNL     1       0.350   9.211  21.432  0.00  0.00    +0.000 A 
ATOM     26  C   UNL     1       0.289  10.185  20.442  0.00  0.00    +0.000 A 
ATOM     27  C   UNL     1       0.943   9.978  19.230  0.00  0.00    +0.000 A 
ATOM     28  C   UNL     1       1.660   8.793  19.003  0.00  0.00    +0.000 A 
ATOM     29 CL   UNL     1       2.449   8.668  17.465  0.00  0.00    +0.000 Cl
ENDBRANCH  21  23
ENDBRANCH   4  18
TORSDOF 3
ENDMDL
MODEL 2
REMARK VINA RESULT:      -8.7      4.232      9.054
REMARK  Name = 
REMARK  4 active torsions:
REMARK  status: ('A' for Active; 'I' for Inactive)
REMARK    1  A    between atoms: C_1  and  N_2
REMARK    2  A    between atoms: C_3  and  C_5
REMARK    3  A    between atoms: C_8  and  C_10
REMARK    4  A    between atoms: C_13  and  C_14
REMARK                            x       y       z     vdW  Elec       q    Type
REMARK                         _______ _______ _______ _____ _____    ______ ____
ROOT
ATOM      1  C   UNL     1      -0.378  11.649  18.540  0.00  0.00    +0.000 C 
ATOM      2  C   UNL     1       0.885  11.068  19.152  0.00  0.00    +0.000 C 
ATOM      3  N   UNL     1       0.559  10.247  20.333  0.00  0.00    +0.000 N 
ATOM      4  C   UNL     1       0.919   8.876  20.478  0.00  0.00    +0.000 C 
ATOM      5  O   UNL     1       0.482   8.193  21.405  0.00  0.00    +0.000 OA
ATOM      6  C   UNL     1      -0.339  10.932  21.230  0.00  0.00    +0.000 A 
ATOM      7  C   UNL     1      -0.505  10.576  22.574  0.00  0.00    +0.000 A 
ATOM      8  C   UNL     1      -1.345  11.320  23.418  0.00  0.00    +0.000 A 
ATOM      9  C   UNL     1      -2.028  12.433  22.938  0.00  0.00    +0.000 A 
ATOM     10  C   UNL     1      -1.889  12.796  21.605  0.00  0.00    +0.000 A 
ATOM     11  C   UNL     1      -1.064  12.046  20.757  0.00  0.00    +0.000 A 
ATOM     12  O   UNL     1      -1.071  12.487  19.456  0.00  0.00    +0.000 OA
ENDROOT
BRANCH   1  15
ATOM     13  C   UNL     1      -3.431   9.661  17.447  0.00  0.00    +0.000 C 
ATOM     14  N   UNL     1      -2.560  10.681  17.969  0.00  0.00    +0.000 N 
ATOM     15  C   UNL     1      -1.195  10.521  17.892  0.00  0.00    +0.000 C 
ATOM     16  O   UNL     1      -0.667   9.589  17.289  0.00  0.00    +0.000 OA
ATOM     17  H   UNL     1      -2.908  11.314  18.680  0.00  0.00    +0.000 HD
ENDBRANCH   1  15
BRANCH   4  18
ATOM     18  C   UNL     1       1.777   8.262  19.469  0.00  0.00    +0.000 A 
ATOM     19  C   UNL     1       2.497   8.736  18.384  0.00  0.00    +0.000 A 
ATOM     20  C   UNL     1       3.001   7.614  17.688  0.00  0.00    +0.000 A 
ATOM     21  C   UNL     1       2.690   6.504  18.442  0.00  0.00    +0.000 A 
ATOM     22  O   UNL     1       1.980   6.897  19.546  0.00  0.00    +0.000 OA
BRANCH  21  23
ATOM     23  C   UNL     1       2.960   5.071  18.312  0.00  0.00    +0.000 A 
ATOM     24  C   UNL     1       1.955   4.236  17.787  0.00  0.00    +0.000 A 
ATOM     25  C   UNL     1       2.140   2.853  17.676  0.00  0.00    +0.000 A 
ATOM     26  C   UNL     1       3.337   2.275  18.085  0.00  0.00    +0.000 A 
ATOM     27  C   UNL     1       4.347   3.080  18.606  0.00  0.00    +0.000 A 
ATOM     28  C   UNL     1       4.164   4.467  18.721  0.00  0.00    +0.000 A 
ATOM     29 CL   UNL     1       5.506   5.357  19.360  0.00  0.00    +0.000 Cl
ENDBRANCH  21  23
ENDBRANCH   4  18
TORSDOF 3
ENDMDL
MODEL 3
REMARK VINA RESULT:      -8.7      4.066      9.366
REMARK  Name = 
REMARK  4 active torsions:
REMARK  status: ('A' for Active; 'I' for Inactive)
REMARK    1  A    between atoms: C_1  and  N_2
REMARK    2  A    between atoms: C_3  and  C_5
REMARK    3  A    between atoms: C_8  and  C_10
REMARK    4  A    between atoms: C_13  and  C_14
REMARK                            x       y       z     vdW  Elec       q    Type
REMARK                         _______ _______ _______ _____ _____    ______ ____
ROOT
ATOM      1  C   UNL     1      -0.842  12.338  18.573  0.00  0.00    +0.000 C 
ATOM      2  C   UNL     1       0.439  11.760  19.149  0.00  0.00    +0.000 C 
ATOM      3  N   UNL     1       0.138  10.829  20.252  0.00  0.00    +0.000 N 
ATOM      4  C   UNL     1       0.554   9.466  20.285  0.00  0.00    +0.000 C 
ATOM      5  O   UNL     1       0.137   8.689  21.147  0.00  0.00    +0.000 OA
ATOM      6  C   UNL     1      -0.795  11.398  21.194  0.00  0.00    +0.000 A 
ATOM      7  C   UNL     1      -0.958  10.923  22.500  0.00  0.00    +0.000 A 
ATOM      8  C   UNL     1      -1.836  11.558  23.394  0.00  0.00    +0.000 A 
ATOM      9  C   UNL     1      -2.560  12.679  23.001  0.00  0.00    +0.000 A 
ATOM     10  C   UNL     1      -2.425  13.159  21.705  0.00  0.00    +0.000 A 
ATOM     11  C   UNL     1      -1.563  12.517  20.807  0.00  0.00    +0.000 A 
ATOM     12  O   UNL     1      -1.576  13.067  19.548  0.00  0.00    +0.000 OA
ENDROOT
BRANCH   1  15
ATOM     13  C   UNL     1      -2.760  10.640  15.761  0.00  0.00    +0.000 C 
ATOM     14  N   UNL     1      -1.988  11.570  16.543  0.00  0.00    +0.000 N 
ATOM     15  C   UNL     1      -1.606  11.236  17.822  0.00  0.00    +0.000 C 
ATOM     16  O   UNL     1      -1.792  10.121  18.304  0.00  0.00    +0.000 OA
ATOM     17  H   UNL     1      -2.027  12.559  16.319  0.00  0.00    +0.000 HD
ENDBRANCH   1  15
BRANCH   4  18
ATOM     18  C   UNL     1       1.445   8.976  19.239  0.00  0.00    +0.000 A 
ATOM     19  C   UNL     1       2.082   9.554  18.153  0.00  0.00    +0.000 A 
ATOM     20  C   UNL     1       2.684   8.511  17.411  0.00  0.00    +0.000 A 
ATOM     21  C   UNL     1       2.511   7.354  18.138  0.00  0.00    +0.000 A 
ATOM     22  O   UNL     1       1.793   7.638  19.269  0.00  0.00    +0.000 OA
BRANCH  21  23
ATOM     23  C   UNL     1       2.929   5.962  17.958  0.00  0.00    +0.000 A 
ATOM     24  C   UNL     1       1.965   4.943  18.088  0.00  0.00    +0.000 A 
ATOM     25  C   UNL     1       2.312   3.593  17.967  0.00  0.00    +0.000 A 
ATOM     26  C   UNL     1       3.630   3.231  17.710  0.00  0.00    +0.000 A 
ATOM     27  C   UNL     1       4.601   4.221  17.575  0.00  0.00    +0.000 A 
ATOM     28  C   UNL     1       4.257   5.576  17.698  0.00  0.00    +0.000 A 
ATOM     29 CL   UNL     1       5.552   6.708  17.485  0.00  0.00    +0.000 Cl
ENDBRANCH  21  23
ENDBRANCH   4  18
TORSDOF 3
ENDMDL
MODEL 4
REMARK VINA RESULT:      -8.7      4.214      9.349
REMARK  Name = 
REMARK  4 active torsions:
REMARK  status: ('A' for Active; 'I' for Inactive)
REMARK    1  A    between atoms: C_1  and  N_2
REMARK    2  A    between atoms: C_3  and  C_5
REMARK    3  A    between atoms: C_8  and  C_10
REMARK    4  A    between atoms: C_13  and  C_14
REMARK                            x       y       z     vdW  Elec       q    Type
REMARK                         _______ _______ _______ _____ _____    ______ ____
ROOT
ATOM      1  C   UNL     1      -0.978  12.085  18.457  0.00  0.00    +0.000 C 
ATOM      2  C   UNL     1       0.325  11.577  19.052  0.00  0.00    +0.000 C 
ATOM      3  N   UNL     1       0.062  10.734  20.232  0.00  0.00    +0.000 N 
ATOM      4  C   UNL     1       0.505   9.386  20.367  0.00  0.00    +0.000 C 
ATOM      5  O   UNL     1       0.119   8.674  21.296  0.00  0.00    +0.000 OA
ATOM      6  C   UNL     1      -0.863  11.361  21.144  0.00  0.00    +0.000 A 
ATOM      7  C   UNL     1      -0.992  10.990  22.488  0.00  0.00    +0.000 A 
ATOM      8  C   UNL     1      -1.864  11.680  23.345  0.00  0.00    +0.000 A 
ATOM      9  C   UNL     1      -2.617  12.753  22.878  0.00  0.00    +0.000 A 
ATOM     10  C   UNL     1      -2.516  13.129  21.545  0.00  0.00    +0.000 A 
ATOM     11  C   UNL     1      -1.659  12.431  20.684  0.00  0.00    +0.000 A 
ATOM     12  O   UNL     1      -1.707  12.877  19.385  0.00  0.00    +0.000 OA
ENDROOT
BRANCH   1  15
ATOM     13  C   UNL     1      -2.726  10.045  15.764  0.00  0.00    +0.000 C 
ATOM     14  N   UNL     1      -1.975  11.053  16.466  0.00  0.00    +0.000 N 
ATOM     15  C   UNL     1      -1.735  10.913  17.814  0.00  0.00    +0.000 C 
ATOM     16  O   UNL     1      -2.033   9.899  18.442  0.00  0.00    +0.000 OA
ATOM     17  H   UNL     1      -1.932  11.993  16.088  0.00  0.00    +0.000 HD
ENDBRANCH   1  15
BRANCH   4  18
ATOM     18  C   UNL     1       1.385   8.828  19.345  0.00  0.00    +0.000 A 
ATOM     19  C   UNL     1       1.763   9.213  18.069  0.00  0.00    +0.000 A 
ATOM     20  C   UNL     1       2.522   8.157  17.516  0.00  0.00    +0.000 A 
ATOM     21  C   UNL     1       2.697   7.226  18.514  0.00  0.00    +0.000 A 
ATOM     22  O   UNL     1       2.041   7.647  19.641  0.00  0.00    +0.000 OA
BRANCH  21  23
ATOM     23  C   UNL     1       3.413   5.952  18.610  0.00  0.00    +0.000 A 
ATOM     24  C   UNL     1       4.726   5.949  19.119  0.00  0.00    +0.000 A 
ATOM     25  C   UNL     1       5.475   4.769  19.197  0.00  0.00    +0.000 A 
ATOM     26  C   UNL     1       4.926   3.565  18.771  0.00  0.00    +0.000 A 
ATOM     27  C   UNL     1       3.628   3.541  18.265  0.00  0.00    +0.000 A 
ATOM     28  C   UNL     1       2.875   4.723  18.183  0.00  0.00    +0.000 A 
ATOM     29 CL   UNL     1       1.267   4.555  17.560  0.00  0.00    +0.000 Cl
ENDBRANCH  21  23
ENDBRANCH   4  18
TORSDOF 3
ENDMDL
MODEL 5
REMARK VINA RESULT:      -8.4      2.388      3.978
REMARK  Name = 
REMARK  4 active torsions:
REMARK  status: ('A' for Active; 'I' for Inactive)
REMARK    1  A    between atoms: C_1  and  N_2
REMARK    2  A    between atoms: C_3  and  C_5
REMARK    3  A    between atoms: C_8  and  C_10
REMARK    4  A    between atoms: C_13  and  C_14
REMARK                            x       y       z     vdW  Elec       q    Type
REMARK                         _______ _______ _______ _____ _____    ______ ____
ROOT
ATOM      1  C   UNL     1       4.296   3.958  19.232  0.00  0.00    +0.000 C 
ATOM      2  C   UNL     1       4.332   5.447  19.528  0.00  0.00    +0.000 C 
ATOM      3  N   UNL     1       4.020   6.225  18.314  0.00  0.00    +0.000 N 
ATOM      4  C   UNL     1       2.957   7.169  18.221  0.00  0.00    +0.000 C 
ATOM      5  O   UNL     1       2.636   7.668  17.141  0.00  0.00    +0.000 OA
ATOM      6  C   UNL     1       4.784   5.773  17.177  0.00  0.00    +0.000 A 
ATOM      7  C   UNL     1       4.985   6.546  16.028  0.00  0.00    +0.000 A 
ATOM      8  C   UNL     1       5.792   6.080  14.978  0.00  0.00    +0.000 A 
ATOM      9  C   UNL     1       6.415   4.838  15.059  0.00  0.00    +0.000 A 
ATOM     10  C   UNL     1       6.217   4.048  16.183  0.00  0.00    +0.000 A 
ATOM     11  C   UNL     1       5.399   4.504  17.225  0.00  0.00    +0.000 A 
ATOM     12  O   UNL     1       5.250   3.593  18.243  0.00  0.00    +0.000 OA
ENDROOT
BRANCH   1  15
ATOM     13  C   UNL     1       0.689   3.019  19.994  0.00  0.00    +0.000 C 
ATOM     14  N   UNL     1       2.053   3.466  20.100  0.00  0.00    +0.000 N 
ATOM     15  C   UNL     1       2.844   3.525  18.975  0.00  0.00    +0.000 C 
ATOM     16  O   UNL     1       2.409   3.320  17.844  0.00  0.00    +0.000 OA
ATOM     17  H   UNL     1       2.530   3.397  20.993  0.00  0.00    +0.000 HD
ENDBRANCH   1  15
BRANCH   4  18
ATOM     18  C   UNL     1       2.201   7.500  19.425  0.00  0.00    +0.000 A 
ATOM     19  C   UNL     1       1.898   6.831  20.599  0.00  0.00    +0.000 A 
ATOM     20  C   UNL     1       0.980   7.631  21.317  0.00  0.00    +0.000 A 
ATOM     21  C   UNL     1       0.858   8.816  20.627  0.00  0.00    +0.000 A 
ATOM     22  O   UNL     1       1.629   8.758  19.496  0.00  0.00    +0.000 OA
BRANCH  21  23
ATOM     23  C   UNL     1       0.119  10.060  20.853  0.00  0.00    +0.000 A 
ATOM     24  C   UNL     1      -0.175  10.884  19.750  0.00  0.00    +0.000 A 
ATOM     25  C   UNL     1      -0.842  12.104  19.909  0.00  0.00    +0.000 A 
ATOM     26  C   UNL     1      -1.233  12.525  21.176  0.00  0.00    +0.000 A 
ATOM     27  C   UNL     1      -0.954  11.728  22.283  0.00  0.00    +0.000 A 
ATOM     28  C   UNL     1      -0.283  10.505  22.127  0.00  0.00    +0.000 A 
ATOM     29 CL   UNL     1      -0.020   9.595  23.578  0.00  0.00    +0.000 Cl
ENDBRANCH  21  23
ENDBRANCH   4  18
TORSDOF 3
ENDMDL
MODEL 6
REMARK VINA RESULT:      -8.4      2.200      3.889
REMARK  Name = 
REMARK  4 active torsions:
REMARK  status: ('A' for Active; 'I' for Inactive)
REMARK    1  A    between atoms: C_1  and  N_2
REMARK    2  A    between atoms: C_3  and  C_5
REMARK    3  A    between atoms: C_8  and  C_10
REMARK    4  A    between atoms: C_13  and  C_14
REMARK                            x       y       z     vdW  Elec       q    Type
REMARK                         _______ _______ _______ _____ _____    ______ ____
ROOT
ATOM      1  C   UNL     1       4.047   4.077  19.182  0.00  0.00    +0.000 C 
ATOM      2  C   UNL     1       4.167   5.562  19.477  0.00  0.00    +0.000 C 
ATOM      3  N   UNL     1       3.936   6.355  18.256  0.00  0.00    +0.000 N 
ATOM      4  C   UNL     1       2.935   7.362  18.133  0.00  0.00    +0.000 C 
ATOM      5  O   UNL     1       2.675   7.878  17.044  0.00  0.00    +0.000 OA
ATOM      6  C   UNL     1       4.700   5.854  17.140  0.00  0.00    +0.000 A 
ATOM      7  C   UNL     1       4.980   6.611  15.996  0.00  0.00    +0.000 A 
ATOM      8  C   UNL     1       5.785   6.093  14.969  0.00  0.00    +0.000 A 
ATOM      9  C   UNL     1       6.327   4.816  15.067  0.00  0.00    +0.000 A 
ATOM     10  C   UNL     1       6.051   4.042  16.186  0.00  0.00    +0.000 A 
ATOM     11  C   UNL     1       5.235   4.550  17.205  0.00  0.00    +0.000 A 
ATOM     12  O   UNL     1       5.002   3.652  18.219  0.00  0.00    +0.000 OA
ENDROOT
BRANCH   1  15
ATOM     13  C   UNL     1       0.416   3.159  19.852  0.00  0.00    +0.000 C 
ATOM     14  N   UNL     1       1.796   3.542  20.002  0.00  0.00    +0.000 N 
ATOM     15  C   UNL     1       2.578   3.733  18.886  0.00  0.00    +0.000 C 
ATOM     16  O   UNL     1       2.127   3.707  17.743  0.00  0.00    +0.000 OA
ATOM     17  H   UNL     1       2.278   3.330  20.869  0.00  0.00    +0.000 HD
ENDBRANCH   1  15
BRANCH   4  18
ATOM     18  C   UNL     1       2.169   7.742  19.316  0.00  0.00    +0.000 A 
ATOM     19  C   UNL     1       1.899   7.143  20.535  0.00  0.00    +0.000 A 
ATOM     20  C   UNL     1       0.949   7.949  21.202  0.00  0.00    +0.000 A 
ATOM     21  C   UNL     1       0.773   9.078  20.432  0.00  0.00    +0.000 A 
ATOM     22  O   UNL     1       1.543   8.975  19.304  0.00  0.00    +0.000 OA
BRANCH  21  23
ATOM     23  C   UNL     1      -0.019  10.301  20.577  0.00  0.00    +0.000 A 
ATOM     24  C   UNL     1       0.016  10.990  21.805  0.00  0.00    +0.000 A 
ATOM     25  C   UNL     1      -0.751  12.142  22.017  0.00  0.00    +0.000 A 
ATOM     26  C   UNL     1      -1.567  12.632  21.003  0.00  0.00    +0.000 A 
ATOM     27  C   UNL     1      -1.617  11.969  19.779  0.00  0.00    +0.000 A 
ATOM     28  C   UNL     1      -0.851  10.813  19.564  0.00  0.00    +0.000 A 
ATOM     29 CL   UNL     1      -0.984  10.098  17.991  0.00  0.00    +0.000 Cl
ENDBRANCH  21  23
ENDBRANCH   4  18
TORSDOF 3
ENDMDL
MODEL 7
REMARK VINA RESULT:      -8.4      2.106      3.655
REMARK  Name = 
REMARK  4 active torsions:
REMARK  status: ('A' for Active; 'I' for Inactive)
REMARK    1  A    between atoms: C_1  and  N_2
REMARK    2  A    between atoms: C_3  and  C_5
REMARK    3  A    between atoms: C_8  and  C_10
REMARK    4  A    between atoms: C_13  and  C_14
REMARK                            x       y       z     vdW  Elec       q    Type
REMARK                         _______ _______ _______ _____ _____    ______ ____
ROOT
ATOM      1  C   UNL     1       4.065   3.275  18.517  0.00  0.00    +0.000 C 
ATOM      2  C   UNL     1       4.252   4.651  19.131  0.00  0.00    +0.000 C 
ATOM      3  N   UNL     1       4.073   5.703  18.113  0.00  0.00    +0.000 N 
ATOM      4  C   UNL     1       3.124   6.760  18.213  0.00  0.00    +0.000 C 
ATOM      5  O   UNL     1       2.900   7.514  17.264  0.00  0.00    +0.000 OA
ATOM      6  C   UNL     1       4.826   5.422  16.915  0.00  0.00    +0.000 A 
ATOM      7  C   UNL     1       5.155   6.396  15.965  0.00  0.00    +0.000 A 
ATOM      8  C   UNL     1       5.945   6.077  14.850  0.00  0.00    +0.000 A 
ATOM      9  C   UNL     1       6.425   4.784  14.666  0.00  0.00    +0.000 A 
ATOM     10  C   UNL     1       6.099   3.798  15.588  0.00  0.00    +0.000 A 
ATOM     11  C   UNL     1       5.297   4.110  16.693  0.00  0.00    +0.000 A 
ATOM     12  O   UNL     1       5.010   3.025  17.485  0.00  0.00    +0.000 OA
ENDROOT
BRANCH   1  15
ATOM     13  C   UNL     1       0.368   2.511  18.990  0.00  0.00    +0.000 C 
ATOM     14  N   UNL     1       1.765   2.775  19.215  0.00  0.00    +0.000 N 
ATOM     15  C   UNL     1       2.585   3.077  18.152  0.00  0.00    +0.000 C 
ATOM     16  O   UNL     1       2.161   3.249  17.011  0.00  0.00    +0.000 OA
ATOM     17  H   UNL     1       2.212   2.406  20.048  0.00  0.00    +0.000 HD
ENDBRANCH   1  15
BRANCH   4  18
ATOM     18  C   UNL     1       2.363   6.909  19.450  0.00  0.00    +0.000 A 
ATOM     19  C   UNL     1       2.035   6.066  20.499  0.00  0.00    +0.000 A 
ATOM     20  C   UNL     1       1.126   6.759  21.331  0.00  0.00    +0.000 A 
ATOM     21  C   UNL     1       1.035   8.043  20.840  0.00  0.00    +0.000 A 
ATOM     22  O   UNL     1       1.816   8.151  19.720  0.00  0.00    +0.000 OA
BRANCH  21  23
ATOM     23  C   UNL     1       0.320   9.250  21.260  0.00  0.00    +0.000 A 
ATOM     24  C   UNL     1       0.049   9.435  22.629  0.00  0.00    +0.000 A 
ATOM     25  C   UNL     1      -0.666  10.548  23.086  0.00  0.00    +0.000 A 
ATOM     26  C   UNL     1      -1.123  11.502  22.184  0.00  0.00    +0.000 A 
ATOM     27  C   UNL     1      -0.866  11.342  20.824  0.00  0.00    +0.000 A 
ATOM     28  C   UNL     1      -0.151  10.226  20.362  0.00  0.00    +0.000 A 
ATOM     29 CL   UNL     1       0.124  10.157  18.653  0.00  0.00    +0.000 Cl
ENDBRANCH  21  23
ENDBRANCH   4  18
TORSDOF 3
ENDMDL
MODEL 8
REMARK VINA RESULT:      -8.4      6.016      9.376
REMARK  Name = 
REMARK  4 active torsions:
REMARK  status: ('A' for Active; 'I' for Inactive)
REMARK    1  A    between atoms: C_1  and  N_2
REMARK    2  A    between atoms: C_3  and  C_5
REMARK    3  A    between atoms: C_8  and  C_10
REMARK    4  A    between atoms: C_13  and  C_14
REMARK                            x       y       z     vdW  Elec       q    Type
REMARK                         _______ _______ _______ _____ _____    ______ ____
ROOT
ATOM      1  C   UNL     1       0.104  11.804  18.939  0.00  0.00    +0.000 C 
ATOM      2  C   UNL     1      -0.997  11.367  19.889  0.00  0.00    +0.000 C 
ATOM      3  N   UNL     1      -0.436  10.596  21.014  0.00  0.00    +0.000 N 
ATOM      4  C   UNL     1      -0.607  10.943  22.386  0.00  0.00    +0.000 C 
ATOM      5  O   UNL     1       0.017  10.364  23.276  0.00  0.00    +0.000 OA
ATOM      6  C   UNL     1       0.471   9.570  20.561  0.00  0.00    +0.000 A 
ATOM      7  C   UNL     1       0.837   8.467  21.341  0.00  0.00    +0.000 A 
ATOM      8  C   UNL     1       1.674   7.465  20.823  0.00  0.00    +0.000 A 
ATOM      9  C   UNL     1       2.154   7.545  19.519  0.00  0.00    +0.000 A 
ATOM     10  C   UNL     1       1.815   8.638  18.733  0.00  0.00    +0.000 A 
ATOM     11  C   UNL     1       0.994   9.647  19.253  0.00  0.00    +0.000 A 
ATOM     12  O   UNL     1       0.792  10.691  18.383  0.00  0.00    +0.000 OA
ENDROOT
BRANCH   1  15
ATOM     13  C   UNL     1       0.981  15.047  20.723  0.00  0.00    +0.000 C 
ATOM     14  N   UNL     1       0.272  13.953  20.113  0.00  0.00    +0.000 N 
ATOM     15  C   UNL     1       0.970  12.874  19.620  0.00  0.00    +0.000 C 
ATOM     16  O   UNL     1       2.182  12.737  19.777  0.00  0.00    +0.000 OA
ATOM     17  H   UNL     1      -0.654  14.113  19.730  0.00  0.00    +0.000 HD
ENDBRANCH   1  15
BRANCH   4  18
ATOM     18  C   UNL     1      -1.497  12.049  22.728  0.00  0.00    +0.000 A 
ATOM     19  C   UNL     1      -1.315  13.318  23.252  0.00  0.00    +0.000 A 
ATOM     20  C   UNL     1      -2.597  13.857  23.508  0.00  0.00    +0.000 A 
ATOM     21  C   UNL     1      -3.514  12.960  23.009  0.00  0.00    +0.000 A 
ATOM     22  O   UNL     1      -2.850  11.877  22.497  0.00  0.00    +0.000 OA
BRANCH  21  23
ATOM     23  C   UNL     1      -4.975  12.939  22.911  0.00  0.00    +0.000 A 
ATOM     24  C   UNL     1      -5.734  12.910  24.096  0.00  0.00    +0.000 A 
ATOM     25  C   UNL     1      -7.132  12.848  24.066  0.00  0.00    +0.000 A 
ATOM     26  C   UNL     1      -7.802  12.818  22.848  0.00  0.00    +0.000 A 
ATOM     27  C   UNL     1      -7.074  12.847  21.661  0.00  0.00    +0.000 A 
ATOM     28  C   UNL     1      -5.672  12.906  21.688  0.00  0.00    +0.000 A 
ATOM     29 CL   UNL     1      -4.887  12.964  20.144  0.00  0.00    +0.000 Cl
ENDBRANCH  21  23
ENDBRANCH   4  18
TORSDOF 3
ENDMDL
MODEL 9
REMARK VINA RESULT:      -8.4      1.075      1.456
REMARK  Name = 
REMARK  4 active torsions:
REMARK  status: ('A' for Active; 'I' for Inactive)
REMARK    1  A    between atoms: C_1  and  N_2
REMARK    2  A    between atoms: C_3  and  C_5
REMARK    3  A    between atoms: C_8  and  C_10
REMARK    4  A    between atoms: C_13  and  C_14
REMARK                            x       y       z     vdW  Elec       q    Type
REMARK                         _______ _______ _______ _____ _____    ______ ____
ROOT
ATOM      1  C   UNL     1       7.164   6.480  16.903  0.00  0.00    +0.000 C 
ATOM      2  C   UNL     1       5.670   6.729  16.790  0.00  0.00    +0.000 C 
ATOM      3  N   UNL     1       4.973   5.511  16.336  0.00  0.00    +0.000 N 
ATOM      4  C   UNL     1       3.917   4.880  17.053  0.00  0.00    +0.000 C 
ATOM      5  O   UNL     1       3.482   3.777  16.716  0.00  0.00    +0.000 OA
ATOM      6  C   UNL     1       5.619   4.921  15.189  0.00  0.00    +0.000 A 
ATOM      7  C   UNL     1       4.984   4.018  14.328  0.00  0.00    +0.000 A 
ATOM      8  C   UNL     1       5.642   3.525  13.189  0.00  0.00    +0.000 A 
ATOM      9  C   UNL     1       6.939   3.929  12.888  0.00  0.00    +0.000 A 
ATOM     10  C   UNL     1       7.592   4.813  13.736  0.00  0.00    +0.000 A 
ATOM     11  C   UNL     1       6.944   5.293  14.881  0.00  0.00    +0.000 A 
ATOM     12  O   UNL     1       7.733   6.112  15.653  0.00  0.00    +0.000 OA
ENDROOT
BRANCH   1  15
ATOM     13  C   UNL     1       8.279   5.355  20.362  0.00  0.00    +0.000 C 
ATOM     14  N   UNL     1       7.933   6.147  19.210  0.00  0.00    +0.000 N 
ATOM     15  C   UNL     1       7.435   5.533  18.083  0.00  0.00    +0.000 C 
ATOM     16  O   UNL     1       7.156   4.337  18.044  0.00  0.00    +0.000 OA
ATOM     17  H   UNL     1       8.365   7.055  19.084  0.00  0.00    +0.000 HD
ENDBRANCH   1  15
BRANCH   4  18
ATOM     18  C   UNL     1       3.385   5.533  18.246  0.00  0.00    +0.000 A 
ATOM     19  C   UNL     1       3.244   5.168  19.575  0.00  0.00    +0.000 A 
ATOM     20  C   UNL     1       2.498   6.184  20.216  0.00  0.00    +0.000 A 
ATOM     21  C   UNL     1       2.327   7.194  19.295  0.00  0.00    +0.000 A 
ATOM     22  O   UNL     1       2.899   6.820  18.108  0.00  0.00    +0.000 OA
BRANCH  21  23
ATOM     23  C   UNL     1       1.701   8.517  19.334  0.00  0.00    +0.000 A 
ATOM     24  C   UNL     1       1.738   9.319  18.177  0.00  0.00    +0.000 A 
ATOM     25  C   UNL     1       1.193  10.608  18.166  0.00  0.00    +0.000 A 
ATOM     26  C   UNL     1       0.594  11.122  19.311  0.00  0.00    +0.000 A 
ATOM     27  C   UNL     1       0.543  10.347  20.467  0.00  0.00    +0.000 A 
ATOM     28  C   UNL     1       1.091   9.055  20.483  0.00  0.00    +0.000 A 
ATOM     29 CL   UNL     1       0.940   8.187  21.975  0.00  0.00    +0.000 Cl
ENDBRANCH  21  23
ENDBRANCH   4  18
TORSDOF 3
ENDMDL
