MODEL 1
REMARK VINA RESULT:      -8.7      0.000      0.000
REMARK  Name = 
REMARK  7 active torsions:
REMARK  status: ('A' for Active; 'I' for Inactive)
REMARK    1  A    between atoms: C_1  and  C_2
REMARK    2  A    between atoms: C_5  and  S_6
REMARK    3  A    between atoms: S_6  and  N_9
REMARK    4  A    between atoms: N_9  and  C_10
REMARK    5  A    between atoms: C_14  and  C_15
REMARK    6  A    between atoms: N_17  and  C_18
REMARK    7  A    between atoms: C_23  and  C_24
REMARK                            x       y       z     vdW  Elec       q    Type
REMARK                         _______ _______ _______ _____ _____    ______ ____
ROOT
ATOM      1  C   UNL     1       7.363   5.650  17.124  0.00  0.00    +0.000 A 
ATOM      2  C   UNL     1       7.409   4.874  18.277  0.00  0.00    +0.000 A 
ATOM      3  C   UNL     1       7.856   5.433  19.484  0.00  0.00    +0.000 A 
ATOM      4  C   UNL     1       8.244   6.780  19.552  0.00  0.00    +0.000 A 
ATOM      5  C   UNL     1       8.185   7.557  18.397  0.00  0.00    +0.000 A 
ATOM      6  C   UNL     1       7.737   6.982  17.188  0.00  0.00    +0.000 A 
ENDROOT
BRANCH   5   7
ATOM      7  C   UNL     1       8.436   9.011  18.345  0.00  0.00    +0.000 C 
ATOM      8  O   UNL     1       7.749   9.615  17.522  0.00  0.00    +0.000 OA
ATOM      9  N   UNL     1       9.432   9.605  19.138  0.00  0.00    +0.000 N 
ATOM     10  H   UNL     1      10.142   9.015  19.546  0.00  0.00    +0.000 HD
BRANCH   9  11
ATOM     11  C   UNL     1       9.672  11.015  19.073  0.00  0.00    +0.000 A 
ATOM     12  C   UNL     1       9.154  11.841  20.090  0.00  0.00    +0.000 A 
ATOM     13  C   UNL     1       9.098  13.220  19.998  0.00  0.00    +0.000 A 
ATOM     14  C   UNL     1       9.722  13.745  18.894  0.00  0.00    +0.000 A 
ATOM     15  O   UNL     1       9.810  15.060  18.616  0.00  0.00    +0.000 OA
ATOM     16  C   UNL     1      10.616  15.112  17.521  0.00  0.00    +0.000 A 
ATOM     17  C   UNL     1      11.000  16.490  17.150  0.00  0.00    +0.000 C 
ATOM     18  N   UNL     1      10.974  13.933  17.032  0.00  0.00    +0.000 NA
ATOM     19  C   UNL     1      10.394  13.024  17.920  0.00  0.00    +0.000 A 
ATOM     20  C   UNL     1      10.374  11.606  17.994  0.00  0.00    +0.000 A 
ENDBRANCH   9  11
ENDBRANCH   5   7
BRANCH   1  21
ATOM     21  N   UNL     1       6.948   5.103  15.880  0.00  0.00    +0.000 N 
ATOM     22  H   UNL     1       7.629   5.087  15.121  0.00  0.00    +0.000 HD
BRANCH  21  23
ATOM     23  S   UNL     1       5.379   5.344  15.309  0.00  0.00    +0.000 S 
ATOM     24  O   UNL     1       5.091   4.355  14.293  0.00  0.00    +0.000 OA
ATOM     25  O   UNL     1       5.281   6.760  15.021  0.00  0.00    +0.000 OA
BRANCH  23  30
ATOM     26  C   UNL     1       1.647   4.201  19.980  0.00  0.00    +0.000 C 
ATOM     27  C   UNL     1       2.576   4.502  18.839  0.00  0.00    +0.000 A 
ATOM     28  C   UNL     1       2.893   5.823  18.488  0.00  0.00    +0.000 A 
ATOM     29  C   UNL     1       3.764   6.085  17.426  0.00  0.00    +0.000 A 
ATOM     30  C   UNL     1       4.333   5.023  16.715  0.00  0.00    +0.000 A 
ATOM     31  C   UNL     1       4.002   3.705  17.035  0.00  0.00    +0.000 A 
ATOM     32  C   UNL     1       3.132   3.449  18.099  0.00  0.00    +0.000 A 
ENDBRANCH  23  30
ENDBRANCH  21  23
ENDBRANCH   1  21
TORSDOF 5
ENDMDL
MODEL 2
REMARK VINA RESULT:      -8.5      5.936      7.924
REMARK  Name = 
REMARK  7 active torsions:
REMARK  status: ('A' for Active; 'I' for Inactive)
REMARK    1  A    between atoms: C_1  and  C_2
REMARK    2  A    between atoms: C_5  and  S_6
REMARK    3  A    between atoms: S_6  and  N_9
REMARK    4  A    between atoms: N_9  and  C_10
REMARK    5  A    between atoms: C_14  and  C_15
REMARK    6  A    between atoms: N_17  and  C_18
REMARK    7  A    between atoms: C_23  and  C_24
REMARK                            x       y       z     vdW  Elec       q    Type
REMARK                         _______ _______ _______ _____ _____    ______ ____
ROOT
ATOM      1  C   UNL     1       4.996   4.323  19.259  0.00  0.00    +0.000 A 
ATOM      2  C   UNL     1       4.640   2.979  19.274  0.00  0.00    +0.000 A 
ATOM      3  C   UNL     1       3.367   2.594  19.720  0.00  0.00    +0.000 A 
ATOM      4  C   UNL     1       2.431   3.552  20.140  0.00  0.00    +0.000 A 
ATOM      5  C   UNL     1       2.788   4.898  20.112  0.00  0.00    +0.000 A 
ATOM      6  C   UNL     1       4.073   5.274  19.664  0.00  0.00    +0.000 A 
ENDROOT
BRANCH   5   7
ATOM      7  C   UNL     1       1.871   6.019  20.398  0.00  0.00    +0.000 C 
ATOM      8  O   UNL     1       0.720   5.676  20.667  0.00  0.00    +0.000 OA
ATOM      9  N   UNL     1       2.298   7.353  20.294  0.00  0.00    +0.000 N 
ATOM     10  H   UNL     1       3.144   7.552  19.781  0.00  0.00    +0.000 HD
BRANCH   9  11
ATOM     11  C   UNL     1       1.397   8.432  20.565  0.00  0.00    +0.000 A 
ATOM     12  C   UNL     1       0.970   9.247  19.498  0.00  0.00    +0.000 A 
ATOM     13  C   UNL     1       0.320  10.455  19.674  0.00  0.00    +0.000 A 
ATOM     14  C   UNL     1      -0.013  10.742  20.975  0.00  0.00    +0.000 A 
ATOM     15  O   UNL     1      -0.668  11.850  21.372  0.00  0.00    +0.000 OA
ATOM     16  C   UNL     1      -0.893  11.641  22.698  0.00  0.00    +0.000 A 
ATOM     17  C   UNL     1      -1.772  12.663  23.303  0.00  0.00    +0.000 C 
ATOM     18  N   UNL     1      -0.359  10.532  23.189  0.00  0.00    +0.000 NA
ATOM     19  C   UNL     1       0.225   9.930  22.072  0.00  0.00    +0.000 A 
ATOM     20  C   UNL     1       0.960   8.731  21.879  0.00  0.00    +0.000 A 
ENDBRANCH   9  11
ENDBRANCH   5   7
BRANCH   1  21
ATOM     21  N   UNL     1       6.289   4.742  18.846  0.00  0.00    +0.000 N 
ATOM     22  H   UNL     1       7.023   4.776  19.553  0.00  0.00    +0.000 HD
BRANCH  21  23
ATOM     23  S   UNL     1       6.476   5.957  17.690  0.00  0.00    +0.000 S 
ATOM     24  O   UNL     1       7.810   6.510  17.800  0.00  0.00    +0.000 OA
ATOM     25  O   UNL     1       5.306   6.801  17.817  0.00  0.00    +0.000 OA
BRANCH  23  30
ATOM     26  C   UNL     1       5.982   3.264  12.254  0.00  0.00    +0.000 C 
ATOM     27  C   UNL     1       6.093   3.910  13.605  0.00  0.00    +0.000 A 
ATOM     28  C   UNL     1       5.092   3.746  14.573  0.00  0.00    +0.000 A 
ATOM     29  C   UNL     1       5.214   4.351  15.829  0.00  0.00    +0.000 A 
ATOM     30  C   UNL     1       6.347   5.115  16.125  0.00  0.00    +0.000 A 
ATOM     31  C   UNL     1       7.337   5.310  15.159  0.00  0.00    +0.000 A 
ATOM     32  C   UNL     1       7.210   4.702  13.907  0.00  0.00    +0.000 A 
ENDBRANCH  23  30
ENDBRANCH  21  23
ENDBRANCH   1  21
TORSDOF 5
ENDMDL
MODEL 3
REMARK VINA RESULT:      -8.4      3.962      9.444
REMARK  Name = 
REMARK  7 active torsions:
REMARK  status: ('A' for Active; 'I' for Inactive)
REMARK    1  A    between atoms: C_1  and  C_2
REMARK    2  A    between atoms: C_5  and  S_6
REMARK    3  A    between atoms: S_6  and  N_9
REMARK    4  A    between atoms: N_9  and  C_10
REMARK    5  A    between atoms: C_14  and  C_15
REMARK    6  A    between atoms: N_17  and  C_18
REMARK    7  A    between atoms: C_23  and  C_24
REMARK                            x       y       z     vdW  Elec       q    Type
REMARK                         _______ _______ _______ _____ _____    ______ ____
ROOT
ATOM      1  C   UNL     1       9.877  11.627  20.612  0.00  0.00    +0.000 A 
ATOM      2  C   UNL     1      10.706  12.359  19.768  0.00  0.00    +0.000 A 
ATOM      3  C   UNL     1      10.839  11.991  18.420  0.00  0.00    +0.000 A 
ATOM      4  C   UNL     1      10.130  10.897  17.900  0.00  0.00    +0.000 A 
ATOM      5  C   UNL     1       9.292  10.174  18.746  0.00  0.00    +0.000 A 
ATOM      6  C   UNL     1       9.169  10.551  20.100  0.00  0.00    +0.000 A 
ENDROOT
BRANCH   5   7
ATOM      7  C   UNL     1       8.391   9.088  18.313  0.00  0.00    +0.000 C 
ATOM      8  O   UNL     1       7.456   9.458  17.602  0.00  0.00    +0.000 OA
ATOM      9  N   UNL     1       8.580   7.767  18.752  0.00  0.00    +0.000 N 
ATOM     10  H   UNL     1       9.166   7.604  19.557  0.00  0.00    +0.000 HD
BRANCH   9  11
ATOM     11  C   UNL     1       7.695   6.724  18.332  0.00  0.00    +0.000 A 
ATOM     12  C   UNL     1       7.338   6.640  16.971  0.00  0.00    +0.000 A 
ATOM     13  C   UNL     1       6.304   5.852  16.500  0.00  0.00    +0.000 A 
ATOM     14  C   UNL     1       5.733   5.034  17.444  0.00  0.00    +0.000 A 
ATOM     15  O   UNL     1       4.729   4.169  17.202  0.00  0.00    +0.000 OA
ATOM     16  C   UNL     1       4.588   3.493  18.375  0.00  0.00    +0.000 A 
ATOM     17  C   UNL     1       3.653   2.354  18.276  0.00  0.00    +0.000 C 
ATOM     18  N   UNL     1       5.361   3.919  19.364  0.00  0.00    +0.000 NA
ATOM     19  C   UNL     1       6.118   4.933  18.771  0.00  0.00    +0.000 A 
ATOM     20  C   UNL     1       7.130   5.805  19.250  0.00  0.00    +0.000 A 
ENDBRANCH   9  11
ENDBRANCH   5   7
BRANCH   1  21
ATOM     21  N   UNL     1       9.749  11.953  21.988  0.00  0.00    +0.000 N 
ATOM     22  H   UNL     1       9.753  11.184  22.658  0.00  0.00    +0.000 HD
BRANCH  21  23
ATOM     23  S   UNL     1       8.745  13.213  22.488  0.00  0.00    +0.000 S 
ATOM     24  O   UNL     1       7.723  13.428  21.486  0.00  0.00    +0.000 OA
ATOM     25  O   UNL     1       9.634  14.285  22.889  0.00  0.00    +0.000 OA
BRANCH  23  30
ATOM     26  C   UNL     1       5.896  11.264  27.501  0.00  0.00    +0.000 C 
ATOM     27  C   UNL     1       6.619  11.746  26.276  0.00  0.00    +0.000 A 
ATOM     28  C   UNL     1       7.689  12.647  26.372  0.00  0.00    +0.000 A 
ATOM     29  C   UNL     1       8.355  13.082  25.221  0.00  0.00    +0.000 A 
ATOM     30  C   UNL     1       7.959  12.605  23.967  0.00  0.00    +0.000 A 
ATOM     31  C   UNL     1       6.876  11.731  23.856  0.00  0.00    +0.000 A 
ATOM     32  C   UNL     1       6.216  11.299  25.010  0.00  0.00    +0.000 A 
ENDBRANCH  23  30
ENDBRANCH  21  23
ENDBRANCH   1  21
TORSDOF 5
ENDMDL
MODEL 4
REMARK VINA RESULT:      -8.2      7.282      9.026
REMARK  Name = 
REMARK  7 active torsions:
REMARK  status: ('A' for Active; 'I' for Inactive)
REMARK    1  A    between atoms: C_1  and  C_2
REMARK    2  A    between atoms: C_5  and  S_6
REMARK    3  A    between atoms: S_6  and  N_9
REMARK    4  A    between atoms: N_9  and  C_10
REMARK    5  A    between atoms: C_14  and  C_15
REMARK    6  A    between atoms: N_17  and  C_18
REMARK    7  A    between atoms: C_23  and  C_24
REMARK                            x       y       z     vdW  Elec       q    Type
REMARK                         _______ _______ _______ _____ _____    ______ ____
ROOT
ATOM      1  C   UNL     1       2.270   7.270  19.717  0.00  0.00    +0.000 A 
ATOM      2  C   UNL     1       2.777   7.470  18.438  0.00  0.00    +0.000 A 
ATOM      3  C   UNL     1       2.349   8.568  17.676  0.00  0.00    +0.000 A 
ATOM      4  C   UNL     1       1.423   9.487  18.194  0.00  0.00    +0.000 A 
ATOM      5  C   UNL     1       0.927   9.288  19.480  0.00  0.00    +0.000 A 
ATOM      6  C   UNL     1       1.361   8.178  20.236  0.00  0.00    +0.000 A 
ENDROOT
BRANCH   5   7
ATOM      7  C   UNL     1       0.052  10.235  20.201  0.00  0.00    +0.000 C 
ATOM      8  O   UNL     1      -0.992  10.511  19.610  0.00  0.00    +0.000 OA
ATOM      9  N   UNL     1       0.447  10.802  21.424  0.00  0.00    +0.000 N 
ATOM     10  H   UNL     1       1.422  10.766  21.683  0.00  0.00    +0.000 HD
BRANCH   9  11
ATOM     11  C   UNL     1      -0.406  11.726  22.109  0.00  0.00    +0.000 A 
ATOM     12  C   UNL     1      -1.446  11.222  22.916  0.00  0.00    +0.000 A 
ATOM     13  C   UNL     1      -2.476  12.003  23.408  0.00  0.00    +0.000 A 
ATOM     14  C   UNL     1      -2.336  13.348  23.172  0.00  0.00    +0.000 A 
ATOM     15  O   UNL     1      -3.206  14.292  23.580  0.00  0.00    +0.000 OA
ATOM     16  C   UNL     1      -2.600  15.464  23.247  0.00  0.00    +0.000 A 
ATOM     17  C   UNL     1      -3.305  16.651  23.776  0.00  0.00    +0.000 C 
ATOM     18  N   UNL     1      -1.459  15.337  22.585  0.00  0.00    +0.000 NA
ATOM     19  C   UNL     1      -1.272  13.954  22.524  0.00  0.00    +0.000 A 
ATOM     20  C   UNL     1      -0.264  13.127  21.962  0.00  0.00    +0.000 A 
ENDBRANCH   9  11
ENDBRANCH   5   7
BRANCH   1  21
ATOM     21  N   UNL     1       2.656   6.149  20.499  0.00  0.00    +0.000 N 
ATOM     22  H   UNL     1       3.464   6.256  21.112  0.00  0.00    +0.000 HD
BRANCH  21  23
ATOM     23  S   UNL     1       2.542   4.583  19.882  0.00  0.00    +0.000 S 
ATOM     24  O   UNL     1       1.292   4.450  19.164  0.00  0.00    +0.000 OA
ATOM     25  O   UNL     1       2.866   3.703  20.986  0.00  0.00    +0.000 OA
BRANCH  23  30
ATOM     26  C   UNL     1       7.104   4.381  15.858  0.00  0.00    +0.000 C 
ATOM     27  C   UNL     1       5.968   4.412  16.839  0.00  0.00    +0.000 A 
ATOM     28  C   UNL     1       4.658   4.102  16.445  0.00  0.00    +0.000 A 
ATOM     29  C   UNL     1       3.612   4.132  17.374  0.00  0.00    +0.000 A 
ATOM     30  C   UNL     1       3.876   4.462  18.707  0.00  0.00    +0.000 A 
ATOM     31  C   UNL     1       5.171   4.802  19.105  0.00  0.00    +0.000 A 
ATOM     32  C   UNL     1       6.212   4.769  18.172  0.00  0.00    +0.000 A 
ENDBRANCH  23  30
ENDBRANCH  21  23
ENDBRANCH   1  21
TORSDOF 5
ENDMDL
MODEL 5
REMARK VINA RESULT:      -8.2      1.070      1.678
REMARK  Name = 
REMARK  7 active torsions:
REMARK  status: ('A' for Active; 'I' for Inactive)
REMARK    1  A    between atoms: C_1  and  C_2
REMARK    2  A    between atoms: C_5  and  S_6
REMARK    3  A    between atoms: S_6  and  N_9
REMARK    4  A    between atoms: N_9  and  C_10
REMARK    5  A    between atoms: C_14  and  C_15
REMARK    6  A    between atoms: N_17  and  C_18
REMARK    7  A    between atoms: C_23  and  C_24
REMARK                            x       y       z     vdW  Elec       q    Type
REMARK                         _______ _______ _______ _____ _____    ______ ____
ROOT
ATOM      1  C   UNL     1       7.401   5.683  17.059  0.00  0.00    +0.000 A 
ATOM      2  C   UNL     1       7.527   4.902  18.202  0.00  0.00    +0.000 A 
ATOM      3  C   UNL     1       7.990   5.475  19.397  0.00  0.00    +0.000 A 
ATOM      4  C   UNL     1       8.314   6.839  19.463  0.00  0.00    +0.000 A 
ATOM      5  C   UNL     1       8.175   7.620  18.317  0.00  0.00    +0.000 A 
ATOM      6  C   UNL     1       7.712   7.032  17.121  0.00  0.00    +0.000 A 
ENDROOT
BRANCH   5   7
ATOM      7  C   UNL     1       8.352   9.085  18.270  0.00  0.00    +0.000 C 
ATOM      8  O   UNL     1       7.529   9.673  17.569  0.00  0.00    +0.000 OA
ATOM      9  N   UNL     1       9.425   9.709  18.928  0.00  0.00    +0.000 N 
ATOM     10  H   UNL     1      10.211   9.145  19.215  0.00  0.00    +0.000 HD
BRANCH   9  11
ATOM     11  C   UNL     1       9.592  11.130  18.867  0.00  0.00    +0.000 A 
ATOM     12  C   UNL     1      10.277  11.688  17.770  0.00  0.00    +0.000 A 
ATOM     13  C   UNL     1      10.720  12.998  17.733  0.00  0.00    +0.000 A 
ATOM     14  C   UNL     1      10.315  13.768  18.795  0.00  0.00    +0.000 A 
ATOM     15  O   UNL     1      10.611  15.073  18.952  0.00  0.00    +0.000 OA
ATOM     16  C   UNL     1       9.899  15.441  20.052  0.00  0.00    +0.000 A 
ATOM     17  C   UNL     1       9.932  16.897  20.301  0.00  0.00    +0.000 C 
ATOM     18  N   UNL     1       9.247  14.456  20.653  0.00  0.00    +0.000 NA
ATOM     19  C   UNL     1       9.511  13.349  19.842  0.00  0.00    +0.000 A 
ATOM     20  C   UNL     1       9.130  11.983  19.899  0.00  0.00    +0.000 A 
ENDBRANCH   9  11
ENDBRANCH   5   7
BRANCH   1  21
ATOM     21  N   UNL     1       6.969   5.125  15.826  0.00  0.00    +0.000 N 
ATOM     22  H   UNL     1       7.640   5.097  15.059  0.00  0.00    +0.000 HD
BRANCH  21  23
ATOM     23  S   UNL     1       5.395   5.369  15.272  0.00  0.00    +0.000 S 
ATOM     24  O   UNL     1       5.086   4.366  14.274  0.00  0.00    +0.000 OA
ATOM     25  O   UNL     1       5.302   6.781  14.963  0.00  0.00    +0.000 OA
BRANCH  23  30
ATOM     26  C   UNL     1       2.037   4.423  20.259  0.00  0.00    +0.000 C 
ATOM     27  C   UNL     1       2.856   4.636  19.019  0.00  0.00    +0.000 A 
ATOM     28  C   UNL     1       3.368   3.553  18.291  0.00  0.00    +0.000 A 
ATOM     29  C   UNL     1       4.126   3.770  17.135  0.00  0.00    +0.000 A 
ATOM     30  C   UNL     1       4.364   5.076  16.695  0.00  0.00    +0.000 A 
ATOM     31  C   UNL     1       3.885   6.164  17.429  0.00  0.00    +0.000 A 
ATOM     32  C   UNL     1       3.127   5.940  18.582  0.00  0.00    +0.000 A 
ENDBRANCH  23  30
ENDBRANCH  21  23
ENDBRANCH   1  21
TORSDOF 5
ENDMDL
MODEL 6
REMARK VINA RESULT:      -8.2      7.334      9.018
REMARK  Name = 
REMARK  7 active torsions:
REMARK  status: ('A' for Active; 'I' for Inactive)
REMARK    1  A    between atoms: C_1  and  C_2
REMARK    2  A    between atoms: C_5  and  S_6
REMARK    3  A    between atoms: S_6  and  N_9
REMARK    4  A    between atoms: N_9  and  C_10
REMARK    5  A    between atoms: C_14  and  C_15
REMARK    6  A    between atoms: N_17  and  C_18
REMARK    7  A    between atoms: C_23  and  C_24
REMARK                            x       y       z     vdW  Elec       q    Type
REMARK                         _______ _______ _______ _____ _____    ______ ____
ROOT
ATOM      1  C   UNL     1       2.212   7.044  19.969  0.00  0.00    +0.000 A 
ATOM      2  C   UNL     1       2.381   7.355  18.624  0.00  0.00    +0.000 A 
ATOM      3  C   UNL     1       1.902   8.574  18.118  0.00  0.00    +0.000 A 
ATOM      4  C   UNL     1       1.266   9.501  18.958  0.00  0.00    +0.000 A 
ATOM      5  C   UNL     1       1.110   9.190  20.307  0.00  0.00    +0.000 A 
ATOM      6  C   UNL     1       1.592   7.960  20.803  0.00  0.00    +0.000 A 
ENDROOT
BRANCH   5   7
ATOM      7  C   UNL     1       0.581  10.115  21.329  0.00  0.00    +0.000 C 
ATOM      8  O   UNL     1       1.003   9.908  22.467  0.00  0.00    +0.000 OA
ATOM      9  N   UNL     1      -0.374  11.092  21.001  0.00  0.00    +0.000 N 
ATOM     10  H   UNL     1      -0.885  10.998  20.136  0.00  0.00    +0.000 HD
BRANCH   9  11
ATOM     11  C   UNL     1      -0.886  11.977  22.002  0.00  0.00    +0.000 A 
ATOM     12  C   UNL     1      -2.069  11.624  22.683  0.00  0.00    +0.000 A 
ATOM     13  C   UNL     1      -2.788  12.505  23.469  0.00  0.00    +0.000 A 
ATOM     14  C   UNL     1      -2.186  13.725  23.659  0.00  0.00    +0.000 A 
ATOM     15  O   UNL     1      -2.697  14.723  24.406  0.00  0.00    +0.000 OA
ATOM     16  C   UNL     1      -1.712  15.662  24.416  0.00  0.00    +0.000 A 
ATOM     17  C   UNL     1      -1.989  16.781  25.342  0.00  0.00    +0.000 C 
ATOM     18  N   UNL     1      -0.657  15.376  23.667  0.00  0.00    +0.000 NA
ATOM     19  C   UNL     1      -0.953  14.108  23.160  0.00  0.00    +0.000 A 
ATOM     20  C   UNL     1      -0.266  13.217  22.294  0.00  0.00    +0.000 A 
ENDBRANCH   9  11
ENDBRANCH   5   7
BRANCH   1  21
ATOM     21  N   UNL     1       2.654   5.804  20.503  0.00  0.00    +0.000 N 
ATOM     22  H   UNL     1       3.477   5.815  21.104  0.00  0.00    +0.000 HD
BRANCH  21  23
ATOM     23  S   UNL     1       2.564   4.388  19.590  0.00  0.00    +0.000 S 
ATOM     24  O   UNL     1       1.322   4.385  18.847  0.00  0.00    +0.000 OA
ATOM     25  O   UNL     1       2.889   3.312  20.504  0.00  0.00    +0.000 OA
BRANCH  23  30
ATOM     26  C   UNL     1       7.180   4.604  15.628  0.00  0.00    +0.000 C 
ATOM     27  C   UNL     1       6.050   4.569  16.617  0.00  0.00    +0.000 A 
ATOM     28  C   UNL     1       6.250   4.917  17.961  0.00  0.00    +0.000 A 
ATOM     29  C   UNL     1       5.185   4.884  18.868  0.00  0.00    +0.000 A 
ATOM     30  C   UNL     1       3.910   4.513  18.429  0.00  0.00    +0.000 A 
ATOM     31  C   UNL     1       3.705   4.136  17.100  0.00  0.00    +0.000 A 
ATOM     32  C   UNL     1       4.773   4.173  16.199  0.00  0.00    +0.000 A 
ENDBRANCH  23  30
ENDBRANCH  21  23
ENDBRANCH   1  21
TORSDOF 5
ENDMDL
MODEL 7
REMARK VINA RESULT:      -8.1      4.942      7.968
REMARK  Name = 
REMARK  7 active torsions:
REMARK  status: ('A' for Active; 'I' for Inactive)
REMARK    1  A    between atoms: C_1  and  C_2
REMARK    2  A    between atoms: C_5  and  S_6
REMARK    3  A    between atoms: S_6  and  N_9
REMARK    4  A    between atoms: N_9  and  C_10
REMARK    5  A    between atoms: C_14  and  C_15
REMARK    6  A    between atoms: N_17  and  C_18
REMARK    7  A    between atoms: C_23  and  C_24
REMARK                            x       y       z     vdW  Elec       q    Type
REMARK                         _______ _______ _______ _____ _____    ______ ____
ROOT
ATOM      1  C   UNL     1       4.460   3.987  19.327  0.00  0.00    +0.000 A 
ATOM      2  C   UNL     1       3.850   2.843  19.830  0.00  0.00    +0.000 A 
ATOM      3  C   UNL     1       2.632   2.940  20.521  0.00  0.00    +0.000 A 
ATOM      4  C   UNL     1       2.004   4.182  20.699  0.00  0.00    +0.000 A 
ATOM      5  C   UNL     1       2.613   5.325  20.183  0.00  0.00    +0.000 A 
ATOM      6  C   UNL     1       3.839   5.215  19.494  0.00  0.00    +0.000 A 
ENDROOT
BRANCH   5   7
ATOM      7  C   UNL     1       2.010   6.672  20.180  0.00  0.00    +0.000 C 
ATOM      8  O   UNL     1       2.055   7.245  19.092  0.00  0.00    +0.000 OA
ATOM      9  N   UNL     1       1.499   7.243  21.358  0.00  0.00    +0.000 N 
ATOM     10  H   UNL     1       1.772   6.847  22.246  0.00  0.00    +0.000 HD
BRANCH   9  11
ATOM     11  C   UNL     1       0.925   8.554  21.345  0.00  0.00    +0.000 A 
ATOM     12  C   UNL     1       1.209   9.410  20.263  0.00  0.00    +0.000 A 
ATOM     13  C   UNL     1       0.929  10.765  20.268  0.00  0.00    +0.000 A 
ATOM     14  C   UNL     1       0.216  11.197  21.359  0.00  0.00    +0.000 A 
ATOM     15  O   UNL     1      -0.183  12.468  21.558  0.00  0.00    +0.000 OA
ATOM     16  C   UNL     1      -0.958  12.397  22.675  0.00  0.00    +0.000 A 
ATOM     17  C   UNL     1      -1.659  13.664  22.973  0.00  0.00    +0.000 C 
ATOM     18  N   UNL     1      -1.010  11.203  23.246  0.00  0.00    +0.000 NA
ATOM     19  C   UNL     1      -0.242  10.403  22.396  0.00  0.00    +0.000 A 
ATOM     20  C   UNL     1       0.120   9.030  22.409  0.00  0.00    +0.000 A 
ENDBRANCH   9  11
ENDBRANCH   5   7
BRANCH   1  21
ATOM     21  N   UNL     1       5.709   3.925  18.654  0.00  0.00    +0.000 N 
ATOM     22  H   UNL     1       6.554   3.920  19.226  0.00  0.00    +0.000 HD
BRANCH  21  23
ATOM     23  S   UNL     1       5.946   4.736  17.194  0.00  0.00    +0.000 S 
ATOM     24  O   UNL     1       4.661   5.156  16.675  0.00  0.00    +0.000 OA
ATOM     25  O   UNL     1       6.824   3.888  16.414  0.00  0.00    +0.000 OA
BRANCH  23  30
ATOM     26  C   UNL     1       9.008   9.724  18.862  0.00  0.00    +0.000 C 
ATOM     27  C   UNL     1       8.252   8.502  18.428  0.00  0.00    +0.000 A 
ATOM     28  C   UNL     1       7.286   8.566  17.413  0.00  0.00    +0.000 A 
ATOM     29  C   UNL     1       6.595   7.416  17.017  0.00  0.00    +0.000 A 
ATOM     30  C   UNL     1       6.876   6.191  17.631  0.00  0.00    +0.000 A 
ATOM     31  C   UNL     1       7.813   6.120  18.664  0.00  0.00    +0.000 A 
ATOM     32  C   UNL     1       8.502   7.272  19.053  0.00  0.00    +0.000 A 
ENDBRANCH  23  30
ENDBRANCH  21  23
ENDBRANCH   1  21
TORSDOF 5
ENDMDL
MODEL 8
REMARK VINA RESULT:      -8.1      7.360      9.117
REMARK  Name = 
REMARK  7 active torsions:
REMARK  status: ('A' for Active; 'I' for Inactive)
REMARK    1  A    between atoms: C_1  and  C_2
REMARK    2  A    between atoms: C_5  and  S_6
REMARK    3  A    between atoms: S_6  and  N_9
REMARK    4  A    between atoms: N_9  and  C_10
REMARK    5  A    between atoms: C_14  and  C_15
REMARK    6  A    between atoms: N_17  and  C_18
REMARK    7  A    between atoms: C_23  and  C_24
REMARK                            x       y       z     vdW  Elec       q    Type
REMARK                         _______ _______ _______ _____ _____    ______ ____
ROOT
ATOM      1  C   UNL     1       2.269   7.135  19.797  0.00  0.00    +0.000 A 
ATOM      2  C   UNL     1       2.615   7.418  18.480  0.00  0.00    +0.000 A 
ATOM      3  C   UNL     1       2.097   8.558  17.847  0.00  0.00    +0.000 A 
ATOM      4  C   UNL     1       1.243   9.436  18.531  0.00  0.00    +0.000 A 
ATOM      5  C   UNL     1       0.909   9.155  19.854  0.00  0.00    +0.000 A 
ATOM      6  C   UNL     1       1.432   8.004  20.480  0.00  0.00    +0.000 A 
ENDROOT
BRANCH   5   7
ATOM      7  C   UNL     1       0.131  10.049  20.735  0.00  0.00    +0.000 C 
ATOM      8  O   UNL     1      -0.177   9.552  21.818  0.00  0.00    +0.000 OA
ATOM      9  N   UNL     1      -0.263  11.328  20.307  0.00  0.00    +0.000 N 
ATOM     10  H   UNL     1      -0.240  11.537  19.321  0.00  0.00    +0.000 HD
BRANCH   9  11
ATOM     11  C   UNL     1      -1.025  12.182  21.167  0.00  0.00    +0.000 A 
ATOM     12  C   UNL     1      -2.362  12.473  20.827  0.00  0.00    +0.000 A 
ATOM     13  C   UNL     1      -3.101  13.476  21.428  0.00  0.00    +0.000 A 
ATOM     14  C   UNL     1      -2.482  14.082  22.493  0.00  0.00    +0.000 A 
ATOM     15  O   UNL     1      -3.026  15.065  23.237  0.00  0.00    +0.000 OA
ATOM     16  C   UNL     1      -2.125  15.254  24.240  0.00  0.00    +0.000 A 
ATOM     17  C   UNL     1      -2.613  16.173  25.290  0.00  0.00    +0.000 C 
ATOM     18  N   UNL     1      -1.018  14.533  24.142  0.00  0.00    +0.000 NA
ATOM     19  C   UNL     1      -1.234  13.759  22.999  0.00  0.00    +0.000 A 
ATOM     20  C   UNL     1      -0.462  12.780  22.321  0.00  0.00    +0.000 A 
ENDBRANCH   9  11
ENDBRANCH   5   7
BRANCH   1  21
ATOM     21  N   UNL     1       2.749   5.971  20.454  0.00  0.00    +0.000 N 
ATOM     22  H   UNL     1       3.602   6.057  21.006  0.00  0.00    +0.000 HD
BRANCH  21  23
ATOM     23  S   UNL     1       2.624   4.454  19.727  0.00  0.00    +0.000 S 
ATOM     24  O   UNL     1       1.370   4.379  19.007  0.00  0.00    +0.000 OA
ATOM     25  O   UNL     1       2.947   3.495  20.763  0.00  0.00    +0.000 OA
BRANCH  23  30
ATOM     26  C   UNL     1       7.155   4.518  15.664  0.00  0.00    +0.000 C 
ATOM     27  C   UNL     1       6.028   4.483  16.655  0.00  0.00    +0.000 A 
ATOM     28  C   UNL     1       4.737   4.088  16.274  0.00  0.00    +0.000 A 
ATOM     29  C   UNL     1       3.700   4.057  17.213  0.00  0.00    +0.000 A 
ATOM     30  C   UNL     1       3.953   4.411  18.541  0.00  0.00    +0.000 A 
ATOM     31  C   UNL     1       5.227   4.835  18.926  0.00  0.00    +0.000 A 
ATOM     32  C   UNL     1       6.260   4.862  17.984  0.00  0.00    +0.000 A 
ENDBRANCH  23  30
ENDBRANCH  21  23
ENDBRANCH   1  21
TORSDOF 5
ENDMDL
MODEL 9
REMARK VINA RESULT:      -8.1      7.513      9.497
REMARK  Name = 
REMARK  7 active torsions:
REMARK  status: ('A' for Active; 'I' for Inactive)
REMARK    1  A    between atoms: C_1  and  C_2
REMARK    2  A    between atoms: C_5  and  S_6
REMARK    3  A    between atoms: S_6  and  N_9
REMARK    4  A    between atoms: N_9  and  C_10
REMARK    5  A    between atoms: C_14  and  C_15
REMARK    6  A    between atoms: N_17  and  C_18
REMARK    7  A    between atoms: C_23  and  C_24
REMARK                            x       y       z     vdW  Elec       q    Type
REMARK                         _______ _______ _______ _____ _____    ______ ____
ROOT
ATOM      1  C   UNL     1       2.267   7.211  19.783  0.00  0.00    +0.000 A 
ATOM      2  C   UNL     1       2.657   7.483  18.476  0.00  0.00    +0.000 A 
ATOM      3  C   UNL     1       2.148   8.608  17.809  0.00  0.00    +0.000 A 
ATOM      4  C   UNL     1       1.257   9.482  18.450  0.00  0.00    +0.000 A 
ATOM      5  C   UNL     1       0.878   9.212  19.764  0.00  0.00    +0.000 A 
ATOM      6  C   UNL     1       1.393   8.076  20.423  0.00  0.00    +0.000 A 
ENDROOT
BRANCH   5   7
ATOM      7  C   UNL     1       0.055  10.106  20.603  0.00  0.00    +0.000 C 
ATOM      8  O   UNL     1      -0.405   9.572  21.612  0.00  0.00    +0.000 OA
ATOM      9  N   UNL     1      -0.212  11.429  20.212  0.00  0.00    +0.000 N 
ATOM     10  H   UNL     1      -0.061  11.688  19.249  0.00  0.00    +0.000 HD
BRANCH   9  11
ATOM     11  C   UNL     1      -1.018  12.283  21.030  0.00  0.00    +0.000 A 
ATOM     12  C   UNL     1      -0.419  12.942  22.123  0.00  0.00    +0.000 A 
ATOM     13  C   UNL     1      -1.140  13.574  23.121  0.00  0.00    +0.000 A 
ATOM     14  C   UNL     1      -2.492  13.638  22.895  0.00  0.00    +0.000 A 
ATOM     15  O   UNL     1      -3.379  14.227  23.721  0.00  0.00    +0.000 OA
ATOM     16  C   UNL     1      -4.554  14.168  23.037  0.00  0.00    +0.000 A 
ATOM     17  C   UNL     1      -5.641  14.929  23.688  0.00  0.00    +0.000 C 
ATOM     18  N   UNL     1      -4.500  13.514  21.886  0.00  0.00    +0.000 NA
ATOM     19  C   UNL     1      -3.154  13.158  21.777  0.00  0.00    +0.000 A 
ATOM     20  C   UNL     1      -2.406  12.447  20.802  0.00  0.00    +0.000 A 
ENDBRANCH   9  11
ENDBRANCH   5   7
BRANCH   1  21
ATOM     21  N   UNL     1       2.738   6.062  20.472  0.00  0.00    +0.000 N 
ATOM     22  H   UNL     1       3.590   6.158  21.024  0.00  0.00    +0.000 HD
BRANCH  21  23
ATOM     23  S   UNL     1       2.605   4.527  19.785  0.00  0.00    +0.000 S 
ATOM     24  O   UNL     1       1.354   4.441  19.062  0.00  0.00    +0.000 OA
ATOM     25  O   UNL     1       2.917   3.594  20.849  0.00  0.00    +0.000 OA
BRANCH  23  30
ATOM     26  C   UNL     1       7.159   4.450  15.748  0.00  0.00    +0.000 C 
ATOM     27  C   UNL     1       6.026   4.450  16.733  0.00  0.00    +0.000 A 
ATOM     28  C   UNL     1       4.724   4.101  16.344  0.00  0.00    +0.000 A 
ATOM     29  C   UNL     1       3.681   4.103  17.276  0.00  0.00    +0.000 A 
ATOM     30  C   UNL     1       3.939   4.443  18.607  0.00  0.00    +0.000 A 
ATOM     31  C   UNL     1       5.224   4.822  19.001  0.00  0.00    +0.000 A 
ATOM     32  C   UNL     1       6.263   4.817  18.065  0.00  0.00    +0.000 A 
ENDBRANCH  23  30
ENDBRANCH  21  23
ENDBRANCH   1  21
TORSDOF 5
ENDMDL
