MODEL 1
REMARK VINA RESULT:      -8.9      0.000      0.000
REMARK  Name = 
REMARK  4 active torsions:
REMARK  status: ('A' for Active; 'I' for Inactive)
REMARK    1  A    between atoms: C_2  and  C_14
REMARK    2  A    between atoms: N_3  and  C_4
REMARK    3  A    between atoms: C_19  and  N_20
REMARK    4  A    between atoms: N_20  and  C_21
REMARK                            x       y       z     vdW  Elec       q    Type
REMARK                         _______ _______ _______ _____ _____    ______ ____
ROOT
ATOM      1  O   UNL     1       5.167   7.513  17.817  0.00  0.00    +0.000 OA
ATOM      2  C   UNL     1       4.357   6.693  17.384  0.00  0.00    +0.000 C 
ATOM      3  N   UNL     1       2.987   6.748  17.576  0.00  0.00    +0.000 N 
ATOM      4  H   UNL     1       2.427   6.089  17.038  0.00  0.00    +0.000 HD
ENDROOT
BRANCH   3   5
ATOM      5  C   UNL     1       2.307   7.677  18.404  0.00  0.00    +0.000 A 
ATOM      6  C   UNL     1       1.754   8.882  17.896  0.00  0.00    +0.000 A 
ATOM      7  C   UNL     1       1.105   9.813  18.716  0.00  0.00    +0.000 A 
ATOM      8  C   UNL     1       1.036   9.509  20.048  0.00  0.00    +0.000 A 
ATOM      9  N   UNL     1       0.487  10.240  21.094  0.00  0.00    +0.000 N 
ATOM     10  C   UNL     1       0.683   9.530  22.285  0.00  0.00    +0.000 A 
ATOM     11  O   UNL     1       0.345   9.880  23.403  0.00  0.00    +0.000 OA
ATOM     12  N   UNL     1       1.352   8.344  21.942  0.00  0.00    +0.000 N 
ATOM     13  C   UNL     1       1.576   8.335  20.568  0.00  0.00    +0.000 A 
ATOM     14  C   UNL     1       2.217   7.399  19.778  0.00  0.00    +0.000 A 
ATOM     15  H   UNL     1       0.035  11.138  21.038  0.00  0.00    +0.000 HD
ATOM     16  H   UNL     1       1.624   7.647  22.615  0.00  0.00    +0.000 HD
ENDBRANCH   3   5
BRANCH   2  17
ATOM     17  C   UNL     1       4.909   5.573  16.566  0.00  0.00    +0.000 A 
ATOM     18  C   UNL     1       5.240   5.907  15.235  0.00  0.00    +0.000 A 
ATOM     19  C   UNL     1       5.851   4.990  14.383  0.00  0.00    +0.000 A 
ATOM     20  C   UNL     1       6.181   3.733  14.864  0.00  0.00    +0.000 A 
ATOM     21  C   UNL     1       5.861   3.390  16.178  0.00  0.00    +0.000 A 
ATOM     22  C   UNL     1       5.163   4.271  17.036  0.00  0.00    +0.000 A 
BRANCH  22  23
ATOM     23  N   UNL     1       4.831   3.853  18.361  0.00  0.00    +0.000 N 
ATOM     24  H   UNL     1       5.454   3.089  18.630  0.00  0.00    +0.000 HD
BRANCH  23  25
ATOM     25  C   UNL     1       3.506   3.601  18.811  0.00  0.00    +0.000 A 
ATOM     26  C   UNL     1       3.102   3.979  20.098  0.00  0.00    +0.000 A 
ATOM     27  C   UNL     1       1.815   3.673  20.555  0.00  0.00    +0.000 A 
ATOM     28  C   UNL     1       0.911   3.009  19.727  0.00  0.00    +0.000 A 
ATOM     29  C   UNL     1       1.274   2.691  18.424  0.00  0.00    +0.000 A 
ATOM     30  C   UNL     1       2.550   3.016  17.963  0.00  0.00    +0.000 A 
ENDBRANCH  23  25
ENDBRANCH  22  23
ENDBRANCH   2  17
TORSDOF 4
ENDMDL
MODEL 2
REMARK VINA RESULT:      -8.5      1.075      1.851
REMARK  Name = 
REMARK  4 active torsions:
REMARK  status: ('A' for Active; 'I' for Inactive)
REMARK    1  A    between atoms: C_2  and  C_14
REMARK    2  A    between atoms: N_3  and  C_4
REMARK    3  A    between atoms: C_19  and  N_20
REMARK    4  A    between atoms: N_20  and  C_21
REMARK                            x       y       z     vdW  Elec       q    Type
REMARK                         _______ _______ _______ _____ _____    ______ ____
ROOT
ATOM      1  O   UNL     1       4.932   6.256  19.045  0.00  0.00    +0.000 OA
ATOM      2  C   UNL     1       4.263   6.167  18.016  0.00  0.00    +0.000 C 
ATOM      3  N   UNL     1       3.063   6.819  17.786  0.00  0.00    +0.000 N 
ATOM      4  H   UNL     1       2.695   6.771  16.838  0.00  0.00    +0.000 HD
ENDROOT
BRANCH   3   5
ATOM      5  C   UNL     1       2.348   7.588  18.739  0.00  0.00    +0.000 A 
ATOM      6  C   UNL     1       2.082   7.114  20.051  0.00  0.00    +0.000 A 
ATOM      7  C   UNL     1       1.354   7.862  20.985  0.00  0.00    +0.000 A 
ATOM      8  C   UNL     1       0.896   9.081  20.566  0.00  0.00    +0.000 A 
ATOM      9  N   UNL     1       0.134  10.020  21.249  0.00  0.00    +0.000 N 
ATOM     10  C   UNL     1      -0.110  11.102  20.395  0.00  0.00    +0.000 A 
ATOM     11  O   UNL     1      -0.761  12.100  20.654  0.00  0.00    +0.000 OA
ATOM     12  N   UNL     1       0.529  10.809  19.180  0.00  0.00    +0.000 N 
ATOM     13  C   UNL     1       1.141   9.563  19.283  0.00  0.00    +0.000 A 
ATOM     14  C   UNL     1       1.861   8.845  18.346  0.00  0.00    +0.000 A 
ATOM     15  H   UNL     1      -0.213   9.954  22.192  0.00  0.00    +0.000 HD
ATOM     16  H   UNL     1       0.509  11.421  18.381  0.00  0.00    +0.000 HD
ENDBRANCH   3   5
BRANCH   2  17
ATOM     17  C   UNL     1       4.816   5.306  16.929  0.00  0.00    +0.000 A 
ATOM     18  C   UNL     1       5.147   5.984  15.736  0.00  0.00    +0.000 A 
ATOM     19  C   UNL     1       5.758   5.328  14.670  0.00  0.00    +0.000 A 
ATOM     20  C   UNL     1       6.089   3.989  14.797  0.00  0.00    +0.000 A 
ATOM     21  C   UNL     1       5.770   3.307  15.972  0.00  0.00    +0.000 A 
ATOM     22  C   UNL     1       5.071   3.927  17.034  0.00  0.00    +0.000 A 
BRANCH  22  23
ATOM     23  N   UNL     1       4.740   3.169  18.199  0.00  0.00    +0.000 N 
ATOM     24  H   UNL     1       5.147   2.236  18.112  0.00  0.00    +0.000 HD
BRANCH  23  25
ATOM     25  C   UNL     1       3.435   3.096  18.759  0.00  0.00    +0.000 A 
ATOM     26  C   UNL     1       2.337   2.726  17.973  0.00  0.00    +0.000 A 
ATOM     27  C   UNL     1       1.047   2.714  18.517  0.00  0.00    +0.000 A 
ATOM     28  C   UNL     1       0.842   3.050  19.855  0.00  0.00    +0.000 A 
ATOM     29  C   UNL     1       1.930   3.349  20.665  0.00  0.00    +0.000 A 
ATOM     30  C   UNL     1       3.217   3.338  20.127  0.00  0.00    +0.000 A 
ENDBRANCH  23  25
ENDBRANCH  22  23
ENDBRANCH   2  17
TORSDOF 4
ENDMDL
MODEL 3
REMARK VINA RESULT:      -8.4      2.780      8.035
REMARK  Name = 
REMARK  4 active torsions:
REMARK  status: ('A' for Active; 'I' for Inactive)
REMARK    1  A    between atoms: C_2  and  C_14
REMARK    2  A    between atoms: N_3  and  C_4
REMARK    3  A    between atoms: C_19  and  N_20
REMARK    4  A    between atoms: N_20  and  C_21
REMARK                            x       y       z     vdW  Elec       q    Type
REMARK                         _______ _______ _______ _____ _____    ______ ____
ROOT
ATOM      1  O   UNL     1       1.764   8.812  17.696  0.00  0.00    +0.000 OA
ATOM      2  C   UNL     1       1.845   8.324  18.823  0.00  0.00    +0.000 C 
ATOM      3  N   UNL     1       2.613   7.222  19.162  0.00  0.00    +0.000 N 
ATOM      4  H   UNL     1       2.702   7.020  20.155  0.00  0.00    +0.000 HD
ENDROOT
BRANCH   3   5
ATOM      5  C   UNL     1       3.324   6.402  18.249  0.00  0.00    +0.000 A 
ATOM      6  C   UNL     1       2.984   5.041  18.029  0.00  0.00    +0.000 A 
ATOM      7  C   UNL     1       3.700   4.222  17.148  0.00  0.00    +0.000 A 
ATOM      8  C   UNL     1       4.763   4.798  16.508  0.00  0.00    +0.000 A 
ATOM      9  N   UNL     1       5.663   4.238  15.611  0.00  0.00    +0.000 N 
ATOM     10  C   UNL     1       6.597   5.216  15.247  0.00  0.00    +0.000 A 
ATOM     11  O   UNL     1       7.541   5.072  14.490  0.00  0.00    +0.000 OA
ATOM     12  N   UNL     1       6.239   6.389  15.931  0.00  0.00    +0.000 N 
ATOM     13  C   UNL     1       5.117   6.130  16.713  0.00  0.00    +0.000 A 
ATOM     14  C   UNL     1       4.422   6.958  17.573  0.00  0.00    +0.000 A 
ATOM     15  H   UNL     1       5.678   3.288  15.275  0.00  0.00    +0.000 HD
ATOM     16  H   UNL     1       6.751   7.252  15.855  0.00  0.00    +0.000 HD
ENDBRANCH   3   5
BRANCH   2  17
ATOM     17  C   UNL     1       1.073   9.002  19.905  0.00  0.00    +0.000 A 
ATOM     18  C   UNL     1       1.301   8.508  21.208  0.00  0.00    +0.000 A 
ATOM     19  C   UNL     1       0.723   9.104  22.326  0.00  0.00    +0.000 A 
ATOM     20  C   UNL     1      -0.062  10.233  22.163  0.00  0.00    +0.000 A 
ATOM     21  C   UNL     1      -0.296  10.734  20.882  0.00  0.00    +0.000 A 
ATOM     22  C   UNL     1       0.208  10.097  19.723  0.00  0.00    +0.000 A 
BRANCH  22  23
ATOM     23  N   UNL     1      -0.092  10.635  18.434  0.00  0.00    +0.000 N 
ATOM     24  H   UNL     1       0.381  11.535  18.335  0.00  0.00    +0.000 HD
BRANCH  23  25
ATOM     25  C   UNL     1      -1.399  10.692  17.878  0.00  0.00    +0.000 A 
ATOM     26  C   UNL     1      -2.308  11.678  18.281  0.00  0.00    +0.000 A 
ATOM     27  C   UNL     1      -3.612  11.691  17.774  0.00  0.00    +0.000 A 
ATOM     28  C   UNL     1      -4.017  10.735  16.842  0.00  0.00    +0.000 A 
ATOM     29  C   UNL     1      -3.105   9.795  16.379  0.00  0.00    +0.000 A 
ATOM     30  C   UNL     1      -1.799   9.798  16.870  0.00  0.00    +0.000 A 
ENDBRANCH  23  25
ENDBRANCH  22  23
ENDBRANCH   2  17
TORSDOF 4
ENDMDL
MODEL 4
REMARK VINA RESULT:      -8.3      2.219      4.498
REMARK  Name = 
REMARK  4 active torsions:
REMARK  status: ('A' for Active; 'I' for Inactive)
REMARK    1  A    between atoms: C_2  and  C_14
REMARK    2  A    between atoms: N_3  and  C_4
REMARK    3  A    between atoms: C_19  and  N_20
REMARK    4  A    between atoms: N_20  and  C_21
REMARK                            x       y       z     vdW  Elec       q    Type
REMARK                         _______ _______ _______ _____ _____    ______ ____
ROOT
ATOM      1  O   UNL     1       1.928   5.643  18.031  0.00  0.00    +0.000 OA
ATOM      2  C   UNL     1       2.330   5.738  19.190  0.00  0.00    +0.000 C 
ATOM      3  N   UNL     1       2.274   6.886  19.963  0.00  0.00    +0.000 N 
ATOM      4  H   UNL     1       2.504   6.782  20.948  0.00  0.00    +0.000 HD
ENDROOT
BRANCH   3   5
ATOM      5  C   UNL     1       1.865   8.166  19.508  0.00  0.00    +0.000 A 
ATOM      6  C   UNL     1       2.313   8.711  18.276  0.00  0.00    +0.000 A 
ATOM      7  C   UNL     1       1.931   9.985  17.836  0.00  0.00    +0.000 A 
ATOM      8  C   UNL     1       1.104  10.693  18.665  0.00  0.00    +0.000 A 
ATOM      9  N   UNL     1       0.587  11.973  18.513  0.00  0.00    +0.000 N 
ATOM     10  C   UNL     1      -0.188  12.277  19.639  0.00  0.00    +0.000 A 
ATOM     11  O   UNL     1      -0.778  13.322  19.854  0.00  0.00    +0.000 OA
ATOM     12  N   UNL     1      -0.144  11.150  20.475  0.00  0.00    +0.000 N 
ATOM     13  C   UNL     1       0.657  10.179  19.880  0.00  0.00    +0.000 A 
ATOM     14  C   UNL     1       1.016   8.923  20.332  0.00  0.00    +0.000 A 
ATOM     15  H   UNL     1       0.742  12.606  17.745  0.00  0.00    +0.000 HD
ATOM     16  H   UNL     1      -0.615  11.100  21.363  0.00  0.00    +0.000 HD
ENDBRANCH   3   5
BRANCH   2  17
ATOM     17  C   UNL     1       2.895   4.502  19.808  0.00  0.00    +0.000 A 
ATOM     18  C   UNL     1       2.233   4.055  20.971  0.00  0.00    +0.000 A 
ATOM     19  C   UNL     1       2.589   2.865  21.602  0.00  0.00    +0.000 A 
ATOM     20  C   UNL     1       3.589   2.079  21.052  0.00  0.00    +0.000 A 
ATOM     21  C   UNL     1       4.251   2.508  19.901  0.00  0.00    +0.000 A 
ATOM     22  C   UNL     1       3.969   3.753  19.292  0.00  0.00    +0.000 A 
BRANCH  22  23
ATOM     23  N   UNL     1       4.703   4.156  18.135  0.00  0.00    +0.000 N 
ATOM     24  H   UNL     1       5.029   3.322  17.644  0.00  0.00    +0.000 HD
BRANCH  23  25
ATOM     25  C   UNL     1       5.709   5.161  18.137  0.00  0.00    +0.000 A 
ATOM     26  C   UNL     1       5.645   6.242  17.250  0.00  0.00    +0.000 A 
ATOM     27  C   UNL     1       6.671   7.194  17.217  0.00  0.00    +0.000 A 
ATOM     28  C   UNL     1       7.759   7.090  18.083  0.00  0.00    +0.000 A 
ATOM     29  C   UNL     1       7.800   6.063  19.017  0.00  0.00    +0.000 A 
ATOM     30  C   UNL     1       6.766   5.128  19.063  0.00  0.00    +0.000 A 
ENDBRANCH  23  25
ENDBRANCH  22  23
ENDBRANCH   2  17
TORSDOF 4
ENDMDL
MODEL 5
REMARK VINA RESULT:      -8.2      1.010      1.200
REMARK  Name = 
REMARK  4 active torsions:
REMARK  status: ('A' for Active; 'I' for Inactive)
REMARK    1  A    between atoms: C_2  and  C_14
REMARK    2  A    between atoms: N_3  and  C_4
REMARK    3  A    between atoms: C_19  and  N_20
REMARK    4  A    between atoms: N_20  and  C_21
REMARK                            x       y       z     vdW  Elec       q    Type
REMARK                         _______ _______ _______ _____ _____    ______ ____
ROOT
ATOM      1  O   UNL     1       4.386   6.211  19.294  0.00  0.00    +0.000 OA
ATOM      2  C   UNL     1       3.971   6.291  18.139  0.00  0.00    +0.000 C 
ATOM      3  N   UNL     1       2.986   7.162  17.704  0.00  0.00    +0.000 N 
ATOM      4  H   UNL     1       2.848   7.224  16.698  0.00  0.00    +0.000 HD
ENDROOT
BRANCH   3   5
ATOM      5  C   UNL     1       2.207   8.007  18.535  0.00  0.00    +0.000 A 
ATOM      6  C   UNL     1       1.526   9.146  18.033  0.00  0.00    +0.000 A 
ATOM      7  C   UNL     1       0.777   9.997  18.857  0.00  0.00    +0.000 A 
ATOM      8  C   UNL     1       0.742   9.680  20.187  0.00  0.00    +0.000 A 
ATOM      9  N   UNL     1       0.114  10.340  21.235  0.00  0.00    +0.000 N 
ATOM     10  C   UNL     1       0.385   9.650  22.423  0.00  0.00    +0.000 A 
ATOM     11  O   UNL     1       0.011   9.955  23.542  0.00  0.00    +0.000 OA
ATOM     12  N   UNL     1       1.181   8.547  22.076  0.00  0.00    +0.000 N 
ATOM     13  C   UNL     1       1.407   8.569  20.702  0.00  0.00    +0.000 A 
ATOM     14  C   UNL     1       2.147   7.714  19.908  0.00  0.00    +0.000 A 
ATOM     15  H   UNL     1      -0.433  11.184  21.184  0.00  0.00    +0.000 HD
ATOM     16  H   UNL     1       1.528   7.880  22.745  0.00  0.00    +0.000 HD
ENDBRANCH   3   5
BRANCH   2  17
ATOM     17  C   UNL     1       4.610   5.393  17.132  0.00  0.00    +0.000 A 
ATOM     18  C   UNL     1       5.826   5.864  16.592  0.00  0.00    +0.000 A 
ATOM     19  C   UNL     1       6.582   5.091  15.714  0.00  0.00    +0.000 A 
ATOM     20  C   UNL     1       6.154   3.813  15.394  0.00  0.00    +0.000 A 
ATOM     21  C   UNL     1       4.954   3.334  15.921  0.00  0.00    +0.000 A 
ATOM     22  C   UNL     1       4.125   4.130  16.745  0.00  0.00    +0.000 A 
BRANCH  22  23
ATOM     23  N   UNL     1       2.890   3.599  17.229  0.00  0.00    +0.000 N 
ATOM     24  H   UNL     1       2.120   4.050  16.732  0.00  0.00    +0.000 HD
BRANCH  23  25
ATOM     25  C   UNL     1       2.573   3.441  18.606  0.00  0.00    +0.000 A 
ATOM     26  C   UNL     1       3.469   2.813  19.480  0.00  0.00    +0.000 A 
ATOM     27  C   UNL     1       3.124   2.607  20.821  0.00  0.00    +0.000 A 
ATOM     28  C   UNL     1       1.893   3.045  21.309  0.00  0.00    +0.000 A 
ATOM     29  C   UNL     1       1.025   3.732  20.471  0.00  0.00    +0.000 A 
ATOM     30  C   UNL     1       1.379   3.956  19.140  0.00  0.00    +0.000 A 
ENDBRANCH  23  25
ENDBRANCH  22  23
ENDBRANCH   2  17
TORSDOF 4
ENDMDL
MODEL 6
REMARK VINA RESULT:      -8.2      1.200      1.477
REMARK  Name = 
REMARK  4 active torsions:
REMARK  status: ('A' for Active; 'I' for Inactive)
REMARK    1  A    between atoms: C_2  and  C_14
REMARK    2  A    between atoms: N_3  and  C_4
REMARK    3  A    between atoms: C_19  and  N_20
REMARK    4  A    between atoms: N_20  and  C_21
REMARK                            x       y       z     vdW  Elec       q    Type
REMARK                         _______ _______ _______ _____ _____    ______ ____
ROOT
ATOM      1  O   UNL     1       3.686   6.221  19.527  0.00  0.00    +0.000 OA
ATOM      2  C   UNL     1       3.567   6.506  18.336  0.00  0.00    +0.000 C 
ATOM      3  N   UNL     1       2.806   7.550  17.838  0.00  0.00    +0.000 N 
ATOM      4  H   UNL     1       2.917   7.761  16.848  0.00  0.00    +0.000 HD
ENDROOT
BRANCH   3   5
ATOM      5  C   UNL     1       1.941   8.376  18.600  0.00  0.00    +0.000 A 
ATOM      6  C   UNL     1       1.220   9.455  18.024  0.00  0.00    +0.000 A 
ATOM      7  C   UNL     1       0.385  10.288  18.780  0.00  0.00    +0.000 A 
ATOM      8  C   UNL     1       0.303  10.016  20.118  0.00  0.00    +0.000 A 
ATOM      9  N   UNL     1      -0.411  10.674  21.110  0.00  0.00    +0.000 N 
ATOM     10  C   UNL     1      -0.158  10.044  22.335  0.00  0.00    +0.000 A 
ATOM     11  O   UNL     1      -0.603  10.365  23.423  0.00  0.00    +0.000 OA
ATOM     12  N   UNL     1       0.715   8.978  22.066  0.00  0.00    +0.000 N 
ATOM     13  C   UNL     1       1.005   8.966  20.704  0.00  0.00    +0.000 A 
ATOM     14  C   UNL     1       1.831   8.128  19.978  0.00  0.00    +0.000 A 
ATOM     15  H   UNL     1      -1.003  11.482  21.002  0.00  0.00    +0.000 HD
ATOM     16  H   UNL     1       1.067   8.357  22.775  0.00  0.00    +0.000 HD
ENDBRANCH   3   5
BRANCH   2  17
ATOM     17  C   UNL     1       4.334   5.669  17.366  0.00  0.00    +0.000 A 
ATOM     18  C   UNL     1       5.515   6.258  16.866  0.00  0.00    +0.000 A 
ATOM     19  C   UNL     1       6.380   5.560  16.027  0.00  0.00    +0.000 A 
ATOM     20  C   UNL     1       6.097   4.241  15.708  0.00  0.00    +0.000 A 
ATOM     21  C   UNL     1       4.934   3.646  16.196  0.00  0.00    +0.000 A 
ATOM     22  C   UNL     1       3.996   4.360  16.978  0.00  0.00    +0.000 A 
BRANCH  22  23
ATOM     23  N   UNL     1       2.804   3.709  17.421  0.00  0.00    +0.000 N 
ATOM     24  H   UNL     1       1.999   4.171  16.997  0.00  0.00    +0.000 HD
BRANCH  23  25
ATOM     25  C   UNL     1       2.533   3.376  18.777  0.00  0.00    +0.000 A 
ATOM     26  C   UNL     1       1.281   3.642  19.344  0.00  0.00    +0.000 A 
ATOM     27  C   UNL     1       1.041   3.367  20.695  0.00  0.00    +0.000 A 
ATOM     28  C   UNL     1       2.040   2.805  21.490  0.00  0.00    +0.000 A 
ATOM     29  C   UNL     1       3.264   2.470  20.923  0.00  0.00    +0.000 A 
ATOM     30  C   UNL     1       3.493   2.724  19.571  0.00  0.00    +0.000 A 
ENDBRANCH  23  25
ENDBRANCH  22  23
ENDBRANCH   2  17
TORSDOF 4
ENDMDL
MODEL 7
REMARK VINA RESULT:      -8.2      2.881      8.131
REMARK  Name = 
REMARK  4 active torsions:
REMARK  status: ('A' for Active; 'I' for Inactive)
REMARK    1  A    between atoms: C_2  and  C_14
REMARK    2  A    between atoms: N_3  and  C_4
REMARK    3  A    between atoms: C_19  and  N_20
REMARK    4  A    between atoms: N_20  and  C_21
REMARK                            x       y       z     vdW  Elec       q    Type
REMARK                         _______ _______ _______ _____ _____    ______ ____
ROOT
ATOM      1  O   UNL     1       1.582   9.128  19.107  0.00  0.00    +0.000 OA
ATOM      2  C   UNL     1       1.202   8.647  20.174  0.00  0.00    +0.000 C 
ATOM      3  N   UNL     1       1.527   7.383  20.639  0.00  0.00    +0.000 N 
ATOM      4  H   UNL     1       1.267   7.174  21.601  0.00  0.00    +0.000 HD
ENDROOT
BRANCH   3   5
ATOM      5  C   UNL     1       2.237   6.395  19.912  0.00  0.00    +0.000 A 
ATOM      6  C   UNL     1       3.055   6.716  18.796  0.00  0.00    +0.000 A 
ATOM      7  C   UNL     1       3.737   5.739  18.060  0.00  0.00    +0.000 A 
ATOM      8  C   UNL     1       3.569   4.443  18.465  0.00  0.00    +0.000 A 
ATOM      9  N   UNL     1       4.089   3.274  17.925  0.00  0.00    +0.000 N 
ATOM     10  C   UNL     1       3.613   2.188  18.669  0.00  0.00    +0.000 A 
ATOM     11  O   UNL     1       3.849   1.009  18.467  0.00  0.00    +0.000 OA
ATOM     12  N   UNL     1       2.802   2.720  19.684  0.00  0.00    +0.000 N 
ATOM     13  C   UNL     1       2.768   4.106  19.555  0.00  0.00    +0.000 A 
ATOM     14  C   UNL     1       2.090   5.053  20.298  0.00  0.00    +0.000 A 
ATOM     15  H   UNL     1       4.692   3.189  17.123  0.00  0.00    +0.000 HD
ATOM     16  H   UNL     1       2.323   2.154  20.366  0.00  0.00    +0.000 HD
ENDBRANCH   3   5
BRANCH   2  17
ATOM     17  C   UNL     1       0.348   9.516  21.036  0.00  0.00    +0.000 A 
ATOM     18  C   UNL     1       0.311   9.158  22.401  0.00  0.00    +0.000 A 
ATOM     19  C   UNL     1      -0.367   9.931  23.340  0.00  0.00    +0.000 A 
ATOM     20  C   UNL     1      -0.985  11.103  22.935  0.00  0.00    +0.000 A 
ATOM     21  C   UNL     1      -0.955  11.470  21.589  0.00  0.00    +0.000 A 
ATOM     22  C   UNL     1      -0.348  10.659  20.602  0.00  0.00    +0.000 A 
BRANCH  22  23
ATOM     23  N   UNL     1      -0.378  11.069  19.234  0.00  0.00    +0.000 N 
ATOM     24  H   UNL     1      -0.021  12.023  19.168  0.00  0.00    +0.000 HD
BRANCH  23  25
ATOM     25  C   UNL     1      -1.495  10.892  18.372  0.00  0.00    +0.000 A 
ATOM     26  C   UNL     1      -1.485   9.903  17.380  0.00  0.00    +0.000 A 
ATOM     27  C   UNL     1      -2.562   9.775  16.496  0.00  0.00    +0.000 A 
ATOM     28  C   UNL     1      -3.670  10.616  16.605  0.00  0.00    +0.000 A 
ATOM     29  C   UNL     1      -3.724  11.554  17.629  0.00  0.00    +0.000 A 
ATOM     30  C   UNL     1      -2.659  11.665  18.522  0.00  0.00    +0.000 A 
ENDBRANCH  23  25
ENDBRANCH  22  23
ENDBRANCH   2  17
TORSDOF 4
ENDMDL
MODEL 8
REMARK VINA RESULT:      -8.1      2.154      4.505
REMARK  Name = 
REMARK  4 active torsions:
REMARK  status: ('A' for Active; 'I' for Inactive)
REMARK    1  A    between atoms: C_2  and  C_14
REMARK    2  A    between atoms: N_3  and  C_4
REMARK    3  A    between atoms: C_19  and  N_20
REMARK    4  A    between atoms: N_20  and  C_21
REMARK                            x       y       z     vdW  Elec       q    Type
REMARK                         _______ _______ _______ _____ _____    ______ ____
ROOT
ATOM      1  O   UNL     1       2.282   6.991  18.750  0.00  0.00    +0.000 OA
ATOM      2  C   UNL     1       2.153   6.494  19.868  0.00  0.00    +0.000 C 
ATOM      3  N   UNL     1       1.522   7.100  20.942  0.00  0.00    +0.000 N 
ATOM      4  H   UNL     1       1.358   6.517  21.759  0.00  0.00    +0.000 HD
ENDROOT
BRANCH   3   5
ATOM      5  C   UNL     1       1.039   8.433  20.968  0.00  0.00    +0.000 A 
ATOM      6  C   UNL     1       1.265   9.343  19.901  0.00  0.00    +0.000 A 
ATOM      7  C   UNL     1       0.810  10.667  19.936  0.00  0.00    +0.000 A 
ATOM      8  C   UNL     1       0.139  11.052  21.064  0.00  0.00    +0.000 A 
ATOM      9  N   UNL     1      -0.399  12.289  21.393  0.00  0.00    +0.000 N 
ATOM     10  C   UNL     1      -0.967  12.203  22.669  0.00  0.00    +0.000 A 
ATOM     11  O   UNL     1      -1.513  13.104  23.284  0.00  0.00    +0.000 OA
ATOM     12  N   UNL     1      -0.777  10.883  23.107  0.00  0.00    +0.000 N 
ATOM     13  C   UNL     1      -0.090  10.177  22.123  0.00  0.00    +0.000 A 
ATOM     14  C   UNL     1       0.345   8.865  22.110  0.00  0.00    +0.000 A 
ATOM     15  H   UNL     1      -0.381  13.129  20.836  0.00  0.00    +0.000 HD
ATOM     16  H   UNL     1      -1.087  10.546  24.004  0.00  0.00    +0.000 HD
ENDBRANCH   3   5
BRANCH   2  17
ATOM     17  C   UNL     1       2.700   5.118  20.059  0.00  0.00    +0.000 A 
ATOM     18  C   UNL     1       2.157   4.401  21.147  0.00  0.00    +0.000 A 
ATOM     19  C   UNL     1       2.502   3.074  21.391  0.00  0.00    +0.000 A 
ATOM     20  C   UNL     1       3.366   2.427  20.522  0.00  0.00    +0.000 A 
ATOM     21  C   UNL     1       3.909   3.123  19.442  0.00  0.00    +0.000 A 
ATOM     22  C   UNL     1       3.644   4.495  19.222  0.00  0.00    +0.000 A 
BRANCH  22  23
ATOM     23  N   UNL     1       4.256   5.165  18.119  0.00  0.00    +0.000 N 
ATOM     24  H   UNL     1       4.167   4.579  17.287  0.00  0.00    +0.000 HD
BRANCH  23  25
ATOM     25  C   UNL     1       5.539   5.775  18.167  0.00  0.00    +0.000 A 
ATOM     26  C   UNL     1       6.506   5.339  19.082  0.00  0.00    +0.000 A 
ATOM     27  C   UNL     1       7.745   5.983  19.165  0.00  0.00    +0.000 A 
ATOM     28  C   UNL     1       8.043   7.054  18.322  0.00  0.00    +0.000 A 
ATOM     29  C   UNL     1       7.121   7.451  17.361  0.00  0.00    +0.000 A 
ATOM     30  C   UNL     1       5.895   6.793  17.265  0.00  0.00    +0.000 A 
ENDBRANCH  23  25
ENDBRANCH  22  23
ENDBRANCH   2  17
TORSDOF 4
ENDMDL
MODEL 9
REMARK VINA RESULT:      -8.1      2.323      4.721
REMARK  Name = 
REMARK  4 active torsions:
REMARK  status: ('A' for Active; 'I' for Inactive)
REMARK    1  A    between atoms: C_2  and  C_14
REMARK    2  A    between atoms: N_3  and  C_4
REMARK    3  A    between atoms: C_19  and  N_20
REMARK    4  A    between atoms: N_20  and  C_21
REMARK                            x       y       z     vdW  Elec       q    Type
REMARK                         _______ _______ _______ _____ _____    ______ ____
ROOT
ATOM      1  O   UNL     1       2.384   6.877  18.556  0.00  0.00    +0.000 OA
ATOM      2  C   UNL     1       2.273   6.458  19.708  0.00  0.00    +0.000 C 
ATOM      3  N   UNL     1       1.698   7.156  20.758  0.00  0.00    +0.000 N 
ATOM      4  H   UNL     1       1.539   6.633  21.616  0.00  0.00    +0.000 HD
ENDROOT
BRANCH   3   5
ATOM      5  C   UNL     1       1.264   8.505  20.710  0.00  0.00    +0.000 A 
ATOM      6  C   UNL     1       0.879   9.219  21.876  0.00  0.00    +0.000 A 
ATOM      7  C   UNL     1       0.426  10.543  21.829  0.00  0.00    +0.000 A 
ATOM      8  C   UNL     1       0.359  11.121  20.591  0.00  0.00    +0.000 A 
ATOM      9  N   UNL     1      -0.069  12.392  20.231  0.00  0.00    +0.000 N 
ATOM     10  C   UNL     1       0.021  12.516  18.840  0.00  0.00    +0.000 A 
ATOM     11  O   UNL     1      -0.290  13.490  18.175  0.00  0.00    +0.000 OA
ATOM     12  N   UNL     1       0.526  11.298  18.358  0.00  0.00    +0.000 N 
ATOM     13  C   UNL     1       0.728  10.437  19.434  0.00  0.00    +0.000 A 
ATOM     14  C   UNL     1       1.182   9.132  19.457  0.00  0.00    +0.000 A 
ATOM     15  H   UNL     1      -0.411  13.116  20.843  0.00  0.00    +0.000 HD
ATOM     16  H   UNL     1       0.686  11.110  17.382  0.00  0.00    +0.000 HD
ENDBRANCH   3   5
BRANCH   2  17
ATOM     17  C   UNL     1       2.776   5.078  19.972  0.00  0.00    +0.000 A 
ATOM     18  C   UNL     1       2.206   4.434  21.092  0.00  0.00    +0.000 A 
ATOM     19  C   UNL     1       2.509   3.112  21.406  0.00  0.00    +0.000 A 
ATOM     20  C   UNL     1       3.356   2.395  20.576  0.00  0.00    +0.000 A 
ATOM     21  C   UNL     1       3.925   3.018  19.466  0.00  0.00    +0.000 A 
ATOM     22  C   UNL     1       3.704   4.384  19.174  0.00  0.00    +0.000 A 
BRANCH  22  23
ATOM     23  N   UNL     1       4.341   4.978  18.042  0.00  0.00    +0.000 N 
ATOM     24  H   UNL     1       4.345   4.303  17.275  0.00  0.00    +0.000 HD
BRANCH  23  25
ATOM     25  C   UNL     1       5.576   5.680  18.098  0.00  0.00    +0.000 A 
ATOM     26  C   UNL     1       6.595   5.271  18.968  0.00  0.00    +0.000 A 
ATOM     27  C   UNL     1       7.784   6.002  19.061  0.00  0.00    +0.000 A 
ATOM     28  C   UNL     1       7.980   7.136  18.272  0.00  0.00    +0.000 A 
ATOM     29  C   UNL     1       7.008   7.512  17.354  0.00  0.00    +0.000 A 
ATOM     30  C   UNL     1       5.832   6.768  17.246  0.00  0.00    +0.000 A 
ENDBRANCH  23  25
ENDBRANCH  22  23
ENDBRANCH   2  17
TORSDOF 4
ENDMDL
