MODEL 1
REMARK VINA RESULT:      -7.9      0.000      0.000
REMARK  Name = 
REMARK  2 active torsions:
REMARK  status: ('A' for Active; 'I' for Inactive)
REMARK    1  A    between atoms: C_2  and  C_3
REMARK    2  A    between atoms: C_17  and  C_18
REMARK                            x       y       z     vdW  Elec       q    Type
REMARK                         _______ _______ _______ _____ _____    ______ ____
ROOT
ATOM      1  O   UNL     1       4.705   6.010  19.983  0.00  0.00    +0.000 OA
ATOM      2  C   UNL     1       3.665   5.983  19.327  0.00  0.00    +0.000 C 
ATOM      3  N   UNL     1       3.449   4.979  18.387  0.00  0.00    +0.000 N 
ATOM      4  C   UNL     1       2.202   4.711  17.686  0.00  0.00    +0.000 C 
ATOM      5  C   UNL     1       2.045   3.207  17.706  0.00  0.00    +0.000 C 
ATOM      6  C   UNL     1       3.468   2.690  17.680  0.00  0.00    +0.000 C 
ATOM      7  C   UNL     1       4.311   3.786  18.370  0.00  0.00    +0.000 C 
ENDROOT
BRANCH   2   8
ATOM      8  C   UNL     1       2.598   6.913  19.652  0.00  0.00    +0.000 A 
ATOM      9  C   UNL     1       1.731   7.053  20.724  0.00  0.00    +0.000 A 
ATOM     10  C   UNL     1       1.094   8.318  20.622  0.00  0.00    +0.000 A 
ATOM     11  C   UNL     1       0.265   9.065  21.482  0.00  0.00    +0.000 A 
ATOM     12  C   UNL     1      -0.205  10.309  21.048  0.00  0.00    +0.000 A 
ATOM     13 BR   UNL     1      -1.311  11.327  22.197  0.00  0.00    +0.000 Br
ATOM     14  C   UNL     1       0.124  10.808  19.790  0.00  0.00    +0.000 A 
ATOM     15  C   UNL     1       0.956  10.084  18.928  0.00  0.00    +0.000 A 
ATOM     16  C   UNL     1       1.434   8.848  19.376  0.00  0.00    +0.000 A 
ATOM     17  N   UNL     1       2.277   7.938  18.782  0.00  0.00    +0.000 N 
ATOM     18  H   UNL     1       2.706   8.056  17.871  0.00  0.00    +0.000 HD
ENDBRANCH   2   8
BRANCH   7  19
ATOM     19  C   UNL     1       5.604   3.981  17.636  0.00  0.00    +0.000 A 
ATOM     20  N   UNL     1       6.783   4.215  18.194  0.00  0.00    +0.000 NA
ATOM     21  N   UNL     1       7.673   4.583  17.217  0.00  0.00    +0.000 NA
ATOM     22  C   UNL     1       7.045   4.533  16.066  0.00  0.00    +0.000 A 
ATOM     23  C   UNL     1       7.463   4.809  14.734  0.00  0.00    +0.000 A 
ATOM     24  C   UNL     1       6.599   4.637  13.715  0.00  0.00    +0.000 A 
ATOM     25  C   UNL     1       5.235   4.192  13.950  0.00  0.00    +0.000 A 
ATOM     26  C   UNL     1       4.827   3.971  15.211  0.00  0.00    +0.000 A 
ATOM     27  N   UNL     1       5.729   4.130  16.265  0.00  0.00    +0.000 N 
ENDBRANCH   7  19
TORSDOF 2
ENDMDL
MODEL 2
REMARK VINA RESULT:      -7.8      1.538      2.349
REMARK  Name = 
REMARK  2 active torsions:
REMARK  status: ('A' for Active; 'I' for Inactive)
REMARK    1  A    between atoms: C_2  and  C_3
REMARK    2  A    between atoms: C_17  and  C_18
REMARK                            x       y       z     vdW  Elec       q    Type
REMARK                         _______ _______ _______ _____ _____    ______ ____
ROOT
ATOM      1  O   UNL     1       3.599   7.445  18.964  0.00  0.00    +0.000 OA
ATOM      2  C   UNL     1       2.576   7.025  19.501  0.00  0.00    +0.000 C 
ATOM      3  N   UNL     1       2.411   5.663  19.740  0.00  0.00    +0.000 N 
ATOM      4  C   UNL     1       1.355   5.050  20.532  0.00  0.00    +0.000 C 
ATOM      5  C   UNL     1       2.042   3.993  21.368  0.00  0.00    +0.000 C 
ATOM      6  C   UNL     1       3.193   3.529  20.499  0.00  0.00    +0.000 C 
ATOM      7  C   UNL     1       3.560   4.750  19.626  0.00  0.00    +0.000 C 
ENDROOT
BRANCH   2   8
ATOM      8  C   UNL     1       1.611   7.974  20.027  0.00  0.00    +0.000 A 
ATOM      9  C   UNL     1       1.072   8.208  21.282  0.00  0.00    +0.000 A 
ATOM     10  C   UNL     1       0.390   9.454  21.251  0.00  0.00    +0.000 A 
ATOM     11  C   UNL     1      -0.191  10.273  22.239  0.00  0.00    +0.000 A 
ATOM     12  C   UNL     1      -0.804  11.467  21.846  0.00  0.00    +0.000 A 
ATOM     13 BR   UNL     1      -1.580  12.581  23.163  0.00  0.00    +0.000 Br
ATOM     14  C   UNL     1      -0.853  11.848  20.506  0.00  0.00    +0.000 A 
ATOM     15  C   UNL     1      -0.270  11.052  19.514  0.00  0.00    +0.000 A 
ATOM     16  C   UNL     1       0.353   9.867  19.918  0.00  0.00    +0.000 A 
ATOM     17  N   UNL     1       1.028   8.910  19.194  0.00  0.00    +0.000 N 
ATOM     18  H   UNL     1       1.183   8.945  18.193  0.00  0.00    +0.000 HD
ENDBRANCH   2   8
BRANCH   7  19
ATOM     19  C   UNL     1       3.851   4.311  18.222  0.00  0.00    +0.000 A 
ATOM     20  N   UNL     1       3.144   3.435  17.523  0.00  0.00    +0.000 NA
ATOM     21  N   UNL     1       3.843   3.100  16.391  0.00  0.00    +0.000 NA
ATOM     22  C   UNL     1       4.952   3.802  16.385  0.00  0.00    +0.000 A 
ATOM     23  C   UNL     1       6.042   3.863  15.472  0.00  0.00    +0.000 A 
ATOM     24  C   UNL     1       7.057   4.717  15.702  0.00  0.00    +0.000 A 
ATOM     25  C   UNL     1       7.072   5.571  16.879  0.00  0.00    +0.000 A 
ATOM     26  C   UNL     1       6.064   5.485  17.763  0.00  0.00    +0.000 A 
ATOM     27  N   UNL     1       5.002   4.613  17.514  0.00  0.00    +0.000 N 
ENDBRANCH   7  19
TORSDOF 2
ENDMDL
MODEL 3
REMARK VINA RESULT:      -7.7      3.913      9.532
REMARK  Name = 
REMARK  2 active torsions:
REMARK  status: ('A' for Active; 'I' for Inactive)
REMARK    1  A    between atoms: C_2  and  C_3
REMARK    2  A    between atoms: C_17  and  C_18
REMARK                            x       y       z     vdW  Elec       q    Type
REMARK                         _______ _______ _______ _____ _____    ______ ____
ROOT
ATOM      1  O   UNL     1       0.578   9.007  20.788  0.00  0.00    +0.000 OA
ATOM      2  C   UNL     1       1.140   9.215  19.714  0.00  0.00    +0.000 C 
ATOM      3  N   UNL     1       1.122  10.485  19.143  0.00  0.00    +0.000 N 
ATOM      4  C   UNL     1       1.898  10.920  17.991  0.00  0.00    +0.000 C 
ATOM      5  C   UNL     1       2.420  12.292  18.354  0.00  0.00    +0.000 C 
ATOM      6  C   UNL     1       1.345  12.868  19.253  0.00  0.00    +0.000 C 
ATOM      7  C   UNL     1       0.694  11.646  19.939  0.00  0.00    +0.000 C 
ENDROOT
BRANCH   2   8
ATOM      8  C   UNL     1       1.955   8.167  19.126  0.00  0.00    +0.000 A 
ATOM      9  C   UNL     1       2.522   7.970  17.877  0.00  0.00    +0.000 A 
ATOM     10  C   UNL     1       3.452   6.901  17.971  0.00  0.00    +0.000 A 
ATOM     11  C   UNL     1       4.424   6.374  17.098  0.00  0.00    +0.000 A 
ATOM     12  C   UNL     1       5.184   5.279  17.521  0.00  0.00    +0.000 A 
ATOM     13 BR   UNL     1       6.500   4.568  16.363  0.00  0.00    +0.000 Br
ATOM     14  C   UNL     1       4.988   4.705  18.776  0.00  0.00    +0.000 A 
ATOM     15  C   UNL     1       4.035   5.224  19.660  0.00  0.00    +0.000 A 
ATOM     16  C   UNL     1       3.291   6.328  19.233  0.00  0.00    +0.000 A 
ATOM     17  N   UNL     1       2.321   7.065  19.875  0.00  0.00    +0.000 N 
ATOM     18  H   UNL     1       2.000   6.897  20.822  0.00  0.00    +0.000 HD
ENDBRANCH   2   8
BRANCH   7  19
ATOM     19  C   UNL     1      -0.794  11.824  20.003  0.00  0.00    +0.000 A 
ATOM     20  N   UNL     1      -1.602  11.963  18.962  0.00  0.00    +0.000 NA
ATOM     21  N   UNL     1      -2.841  12.348  19.408  0.00  0.00    +0.000 NA
ATOM     22  C   UNL     1      -2.793  12.403  20.719  0.00  0.00    +0.000 A 
ATOM     23  C   UNL     1      -3.768  12.743  21.699  0.00  0.00    +0.000 A 
ATOM     24  C   UNL     1      -3.449  12.680  23.005  0.00  0.00    +0.000 A 
ATOM     25  C   UNL     1      -2.117  12.287  23.438  0.00  0.00    +0.000 A 
ATOM     26  C   UNL     1      -1.184  12.007  22.512  0.00  0.00    +0.000 A 
ATOM     27  N   UNL     1      -1.521  12.053  21.159  0.00  0.00    +0.000 N 
ENDBRANCH   7  19
TORSDOF 2
ENDMDL
MODEL 4
REMARK VINA RESULT:      -7.6      5.714     10.620
REMARK  Name = 
REMARK  2 active torsions:
REMARK  status: ('A' for Active; 'I' for Inactive)
REMARK    1  A    between atoms: C_2  and  C_3
REMARK    2  A    between atoms: C_17  and  C_18
REMARK                            x       y       z     vdW  Elec       q    Type
REMARK                         _______ _______ _______ _____ _____    ______ ____
ROOT
ATOM      1  O   UNL     1      -1.864  12.431  19.906  0.00  0.00    +0.000 OA
ATOM      2  C   UNL     1      -1.873  11.349  19.323  0.00  0.00    +0.000 C 
ATOM      3  N   UNL     1      -2.939  11.000  18.498  0.00  0.00    +0.000 N 
ATOM      4  C   UNL     1      -2.996   9.853  17.604  0.00  0.00    +0.000 C 
ATOM      5  C   UNL     1      -3.606  10.374  16.321  0.00  0.00    +0.000 C 
ATOM      6  C   UNL     1      -4.542  11.472  16.781  0.00  0.00    +0.000 C 
ATOM      7  C   UNL     1      -3.916  12.020  18.084  0.00  0.00    +0.000 C 
ENDROOT
BRANCH   2   8
ATOM      8  C   UNL     1      -0.691  10.507  19.374  0.00  0.00    +0.000 A 
ATOM      9  C   UNL     1      -0.192   9.596  20.292  0.00  0.00    +0.000 A 
ATOM     10  C   UNL     1       0.857   8.865  19.673  0.00  0.00    +0.000 A 
ATOM     11  C   UNL     1       1.603   7.729  20.041  0.00  0.00    +0.000 A 
ATOM     12  C   UNL     1       2.595   7.266  19.170  0.00  0.00    +0.000 A 
ATOM     13 BR   UNL     1       3.598   5.734  19.648  0.00  0.00    +0.000 Br
ATOM     14  C   UNL     1       2.857   7.911  17.963  0.00  0.00    +0.000 A 
ATOM     15  C   UNL     1       2.117   9.034  17.577  0.00  0.00    +0.000 A 
ATOM     16  C   UNL     1       1.117   9.481  18.447  0.00  0.00    +0.000 A 
ATOM     17  N   UNL     1       0.220  10.518  18.334  0.00  0.00    +0.000 N 
ATOM     18  H   UNL     1       0.153  11.141  17.536  0.00  0.00    +0.000 HD
ENDBRANCH   2   8
BRANCH   7  19
ATOM     19  C   UNL     1      -4.988  12.283  19.099  0.00  0.00    +0.000 A 
ATOM     20  N   UNL     1      -5.075  13.357  19.871  0.00  0.00    +0.000 NA
ATOM     21  N   UNL     1      -6.027  13.137  20.834  0.00  0.00    +0.000 NA
ATOM     22  C   UNL     1      -6.542  11.948  20.621  0.00  0.00    +0.000 A 
ATOM     23  C   UNL     1      -7.550  11.207  21.298  0.00  0.00    +0.000 A 
ATOM     24  C   UNL     1      -7.914   9.997  20.832  0.00  0.00    +0.000 A 
ATOM     25  C   UNL     1      -7.283   9.421  19.655  0.00  0.00    +0.000 A 
ATOM     26  C   UNL     1      -6.302  10.103  19.040  0.00  0.00    +0.000 A 
ATOM     27  N   UNL     1      -5.939  11.365  19.512  0.00  0.00    +0.000 N 
ENDBRANCH   7  19
TORSDOF 2
ENDMDL
MODEL 5
REMARK VINA RESULT:      -7.4      4.274      9.633
REMARK  Name = 
REMARK  2 active torsions:
REMARK  status: ('A' for Active; 'I' for Inactive)
REMARK    1  A    between atoms: C_2  and  C_3
REMARK    2  A    between atoms: C_17  and  C_18
REMARK                            x       y       z     vdW  Elec       q    Type
REMARK                         _______ _______ _______ _____ _____    ______ ____
ROOT
ATOM      1  O   UNL     1       1.168   9.951  22.243  0.00  0.00    +0.000 OA
ATOM      2  C   UNL     1       1.052   9.911  21.019  0.00  0.00    +0.000 C 
ATOM      3  N   UNL     1       0.697  11.054  20.307  0.00  0.00    +0.000 N 
ATOM      4  C   UNL     1       0.713  11.204  18.859  0.00  0.00    +0.000 C 
ATOM      5  C   UNL     1       1.316  12.567  18.603  0.00  0.00    +0.000 C 
ATOM      6  C   UNL     1       0.888  13.388  19.801  0.00  0.00    +0.000 C 
ATOM      7  C   UNL     1       0.742  12.373  20.958  0.00  0.00    +0.000 C 
ENDROOT
BRANCH   2   8
ATOM      8  C   UNL     1       1.442   8.707  20.309  0.00  0.00    +0.000 A 
ATOM      9  C   UNL     1       1.878   8.443  19.020  0.00  0.00    +0.000 A 
ATOM     10  C   UNL     1       2.384   7.116  18.981  0.00  0.00    +0.000 A 
ATOM     11  C   UNL     1       3.095   6.371  18.020  0.00  0.00    +0.000 A 
ATOM     12  C   UNL     1       3.439   5.048  18.316  0.00  0.00    +0.000 A 
ATOM     13 BR   UNL     1       4.402   4.039  17.038  0.00  0.00    +0.000 Br
ATOM     14  C   UNL     1       3.086   4.464  19.531  0.00  0.00    +0.000 A 
ATOM     15  C   UNL     1       2.391   5.193  20.501  0.00  0.00    +0.000 A 
ATOM     16  C   UNL     1       2.063   6.520  20.202  0.00  0.00    +0.000 A 
ATOM     17  N   UNL     1       1.423   7.482  20.949  0.00  0.00    +0.000 N 
ATOM     18  H   UNL     1       1.085   7.348  21.896  0.00  0.00    +0.000 HD
ENDBRANCH   2   8
BRANCH   7  19
ATOM     19  C   UNL     1      -0.477  12.690  21.772  0.00  0.00    +0.000 A 
ATOM     20  N   UNL     1      -0.507  12.862  23.086  0.00  0.00    +0.000 NA
ATOM     21  N   UNL     1      -1.814  12.888  23.502  0.00  0.00    +0.000 NA
ATOM     22  C   UNL     1      -2.573  12.772  22.438  0.00  0.00    +0.000 A 
ATOM     23  C   UNL     1      -3.986  12.735  22.270  0.00  0.00    +0.000 A 
ATOM     24  C   UNL     1      -4.507  12.642  21.031  0.00  0.00    +0.000 A 
ATOM     25  C   UNL     1      -3.653  12.559  19.858  0.00  0.00    +0.000 A 
ATOM     26  C   UNL     1      -2.318  12.553  20.019  0.00  0.00    +0.000 A 
ATOM     27  N   UNL     1      -1.779  12.669  21.301  0.00  0.00    +0.000 N 
ENDBRANCH   7  19
TORSDOF 2
ENDMDL
MODEL 6
REMARK VINA RESULT:      -7.3      3.969      9.206
REMARK  Name = 
REMARK  2 active torsions:
REMARK  status: ('A' for Active; 'I' for Inactive)
REMARK    1  A    between atoms: C_2  and  C_3
REMARK    2  A    between atoms: C_17  and  C_18
REMARK                            x       y       z     vdW  Elec       q    Type
REMARK                         _______ _______ _______ _____ _____    ______ ____
ROOT
ATOM      1  O   UNL     1       0.807   9.972  18.853  0.00  0.00    +0.000 OA
ATOM      2  C   UNL     1       1.189   9.339  19.836  0.00  0.00    +0.000 C 
ATOM      3  N   UNL     1       0.895   9.785  21.122  0.00  0.00    +0.000 N 
ATOM      4  C   UNL     1       1.110   9.048  22.358  0.00  0.00    +0.000 C 
ATOM      5  C   UNL     1      -0.139   9.272  23.182  0.00  0.00    +0.000 C 
ATOM      6  C   UNL     1      -0.600  10.657  22.779  0.00  0.00    +0.000 C 
ATOM      7  C   UNL     1      -0.111  10.840  21.324  0.00  0.00    +0.000 C 
ENDROOT
BRANCH   2   8
ATOM      8  C   UNL     1       1.812   8.041  19.645  0.00  0.00    +0.000 A 
ATOM      9  C   UNL     1       1.725   6.821  20.297  0.00  0.00    +0.000 A 
ATOM     10  C   UNL     1       2.348   5.835  19.488  0.00  0.00    +0.000 A 
ATOM     11  C   UNL     1       2.420   4.429  19.545  0.00  0.00    +0.000 A 
ATOM     12  C   UNL     1       3.146   3.754  18.559  0.00  0.00    +0.000 A 
ATOM     13 BR   UNL     1       3.243   1.865  18.618  0.00  0.00    +0.000 Br
ATOM     14  C   UNL     1       3.797   4.445  17.539  0.00  0.00    +0.000 A 
ATOM     15  C   UNL     1       3.726   5.840  17.461  0.00  0.00    +0.000 A 
ATOM     16  C   UNL     1       2.985   6.506  18.443  0.00  0.00    +0.000 A 
ATOM     17  N   UNL     1       2.711   7.844  18.613  0.00  0.00    +0.000 N 
ATOM     18  H   UNL     1       3.026   8.582  17.994  0.00  0.00    +0.000 HD
ENDBRANCH   2   8
BRANCH   7  19
ATOM     19  C   UNL     1       0.419  12.230  21.130  0.00  0.00    +0.000 A 
ATOM     20  N   UNL     1       1.688  12.596  21.232  0.00  0.00    +0.000 NA
ATOM     21  N   UNL     1       1.758  13.966  21.237  0.00  0.00    +0.000 NA
ATOM     22  C   UNL     1       0.537  14.428  21.098  0.00  0.00    +0.000 A 
ATOM     23  C   UNL     1       0.015  15.750  21.040  0.00  0.00    +0.000 A 
ATOM     24  C   UNL     1      -1.306  15.937  20.854  0.00  0.00    +0.000 A 
ATOM     25  C   UNL     1      -2.217  14.811  20.728  0.00  0.00    +0.000 A 
ATOM     26  C   UNL     1      -1.730  13.562  20.824  0.00  0.00    +0.000 A 
ATOM     27  N   UNL     1      -0.359  13.369  20.998  0.00  0.00    +0.000 N 
ENDBRANCH   7  19
TORSDOF 2
ENDMDL
MODEL 7
REMARK VINA RESULT:      -7.3      1.661      2.713
REMARK  Name = 
REMARK  2 active torsions:
REMARK  status: ('A' for Active; 'I' for Inactive)
REMARK    1  A    between atoms: C_2  and  C_3
REMARK    2  A    between atoms: C_17  and  C_18
REMARK                            x       y       z     vdW  Elec       q    Type
REMARK                         _______ _______ _______ _____ _____    ______ ____
ROOT
ATOM      1  O   UNL     1       3.841   7.210  19.213  0.00  0.00    +0.000 OA
ATOM      2  C   UNL     1       2.716   6.965  19.645  0.00  0.00    +0.000 C 
ATOM      3  N   UNL     1       2.263   5.651  19.729  0.00  0.00    +0.000 N 
ATOM      4  C   UNL     1       1.048   5.201  20.392  0.00  0.00    +0.000 C 
ATOM      5  C   UNL     1       1.443   3.952  21.149  0.00  0.00    +0.000 C 
ATOM      6  C   UNL     1       2.539   3.340  20.301  0.00  0.00    +0.000 C 
ATOM      7  C   UNL     1       3.210   4.534  19.583  0.00  0.00    +0.000 C 
ENDROOT
BRANCH   2   8
ATOM      8  C   UNL     1       1.926   8.041  20.214  0.00  0.00    +0.000 A 
ATOM      9  C   UNL     1       1.226   9.113  19.682  0.00  0.00    +0.000 A 
ATOM     10  C   UNL     1       0.409   9.666  20.703  0.00  0.00    +0.000 A 
ATOM     11  C   UNL     1      -0.617  10.632  20.716  0.00  0.00    +0.000 A 
ATOM     12  C   UNL     1      -1.222  10.952  21.935  0.00  0.00    +0.000 A 
ATOM     13 BR   UNL     1      -2.608  12.240  21.966  0.00  0.00    +0.000 Br
ATOM     14  C   UNL     1      -0.824  10.341  23.123  0.00  0.00    +0.000 A 
ATOM     15  C   UNL     1       0.184   9.371  23.126  0.00  0.00    +0.000 A 
ATOM     16  C   UNL     1       0.774   9.047  21.900  0.00  0.00    +0.000 A 
ATOM     17  N   UNL     1       1.750   8.130  21.582  0.00  0.00    +0.000 N 
ATOM     18  H   UNL     1       2.200   7.511  22.247  0.00  0.00    +0.000 HD
ENDBRANCH   2   8
BRANCH   7  19
ATOM     19  C   UNL     1       3.513   4.174  18.159  0.00  0.00    +0.000 A 
ATOM     20  N   UNL     1       2.723   3.482  17.351  0.00  0.00    +0.000 NA
ATOM     21  N   UNL     1       3.428   3.139  16.225  0.00  0.00    +0.000 NA
ATOM     22  C   UNL     1       4.629   3.657  16.334  0.00  0.00    +0.000 A 
ATOM     23  C   UNL     1       5.767   3.623  15.480  0.00  0.00    +0.000 A 
ATOM     24  C   UNL     1       6.885   4.286  15.833  0.00  0.00    +0.000 A 
ATOM     25  C   UNL     1       6.960   5.024  17.083  0.00  0.00    +0.000 A 
ATOM     26  C   UNL     1       5.901   5.022  17.910  0.00  0.00    +0.000 A 
ATOM     27  N   UNL     1       4.736   4.352  17.534  0.00  0.00    +0.000 N 
ENDBRANCH   7  19
TORSDOF 2
ENDMDL
MODEL 8
REMARK VINA RESULT:      -7.3      4.364      9.755
REMARK  Name = 
REMARK  2 active torsions:
REMARK  status: ('A' for Active; 'I' for Inactive)
REMARK    1  A    between atoms: C_2  and  C_3
REMARK    2  A    between atoms: C_17  and  C_18
REMARK                            x       y       z     vdW  Elec       q    Type
REMARK                         _______ _______ _______ _____ _____    ______ ____
ROOT
ATOM      1  O   UNL     1       0.316  10.982  18.862  0.00  0.00    +0.000 OA
ATOM      2  C   UNL     1       0.852  10.186  19.631  0.00  0.00    +0.000 C 
ATOM      3  N   UNL     1       0.659  10.294  21.006  0.00  0.00    +0.000 N 
ATOM      4  C   UNL     1       1.066   9.322  22.010  0.00  0.00    +0.000 C 
ATOM      5  C   UNL     1      -0.104   9.217  22.964  0.00  0.00    +0.000 C 
ATOM      6  C   UNL     1      -0.720  10.601  22.941  0.00  0.00    +0.000 C 
ATOM      7  C   UNL     1      -0.404  11.162  21.536  0.00  0.00    +0.000 C 
ENDROOT
BRANCH   2   8
ATOM      8  C   UNL     1       1.558   9.040  19.086  0.00  0.00    +0.000 A 
ATOM      9  C   UNL     1       2.260   8.804  17.914  0.00  0.00    +0.000 A 
ATOM     10  C   UNL     1       2.975   7.586  18.058  0.00  0.00    +0.000 A 
ATOM     11  C   UNL     1       3.962   6.937  17.290  0.00  0.00    +0.000 A 
ATOM     12  C   UNL     1       4.458   5.708  17.735  0.00  0.00    +0.000 A 
ATOM     13 BR   UNL     1       5.791   4.831  16.718  0.00  0.00    +0.000 Br
ATOM     14  C   UNL     1       3.989   5.120  18.908  0.00  0.00    +0.000 A 
ATOM     15  C   UNL     1       3.017   5.756  19.688  0.00  0.00    +0.000 A 
ATOM     16  C   UNL     1       2.538   6.992  19.244  0.00  0.00    +0.000 A 
ATOM     17  N   UNL     1       1.622   7.857  19.799  0.00  0.00    +0.000 N 
ATOM     18  H   UNL     1       1.143   7.705  20.679  0.00  0.00    +0.000 HD
ENDBRANCH   2   8
BRANCH   7  19
ATOM     19  C   UNL     1      -0.017  12.608  21.633  0.00  0.00    +0.000 A 
ATOM     20  N   UNL     1       1.222  13.077  21.653  0.00  0.00    +0.000 NA
ATOM     21  N   UNL     1       1.190  14.405  21.998  0.00  0.00    +0.000 NA
ATOM     22  C   UNL     1      -0.069  14.747  22.148  0.00  0.00    +0.000 A 
ATOM     23  C   UNL     1      -0.690  15.977  22.500  0.00  0.00    +0.000 A 
ATOM     24  C   UNL     1      -2.034  16.056  22.548  0.00  0.00    +0.000 A 
ATOM     25  C   UNL     1      -2.867  14.898  22.263  0.00  0.00    +0.000 A 
ATOM     26  C   UNL     1      -2.280  13.725  21.971  0.00  0.00    +0.000 A 
ATOM     27  N   UNL     1      -0.888  13.650  21.902  0.00  0.00    +0.000 N 
ENDBRANCH   7  19
TORSDOF 2
ENDMDL
MODEL 9
REMARK VINA RESULT:      -7.3      3.755      9.274
REMARK  Name = 
REMARK  2 active torsions:
REMARK  status: ('A' for Active; 'I' for Inactive)
REMARK    1  A    between atoms: C_2  and  C_3
REMARK    2  A    between atoms: C_17  and  C_18
REMARK                            x       y       z     vdW  Elec       q    Type
REMARK                         _______ _______ _______ _____ _____    ______ ____
ROOT
ATOM      1  O   UNL     1       0.541   9.042  21.448  0.00  0.00    +0.000 OA
ATOM      2  C   UNL     1       1.011   8.884  20.322  0.00  0.00    +0.000 C 
ATOM      3  N   UNL     1       1.010   9.929  19.403  0.00  0.00    +0.000 N 
ATOM      4  C   UNL     1       1.697   9.947  18.120  0.00  0.00    +0.000 C 
ATOM      5  C   UNL     1       2.326  11.319  18.020  0.00  0.00    +0.000 C 
ATOM      6  C   UNL     1       1.373  12.215  18.784  0.00  0.00    +0.000 C 
ATOM      7  C   UNL     1       0.723  11.302  19.848  0.00  0.00    +0.000 C 
ENDROOT
BRANCH   2   8
ATOM      8  C   UNL     1       1.708   7.648  20.013  0.00  0.00    +0.000 A 
ATOM      9  C   UNL     1       1.719   6.379  20.570  0.00  0.00    +0.000 A 
ATOM     10  C   UNL     1       2.378   5.501  19.669  0.00  0.00    +0.000 A 
ATOM     11  C   UNL     1       2.542   4.102  19.613  0.00  0.00    +0.000 A 
ATOM     12  C   UNL     1       3.278   3.554  18.559  0.00  0.00    +0.000 A 
ATOM     13 BR   UNL     1       3.496   1.677  18.466  0.00  0.00    +0.000 Br
ATOM     14  C   UNL     1       3.852   4.363  17.580  0.00  0.00    +0.000 A 
ATOM     15  C   UNL     1       3.689   5.752  17.614  0.00  0.00    +0.000 A 
ATOM     16  C   UNL     1       2.939   6.291  18.664  0.00  0.00    +0.000 A 
ATOM     17  N   UNL     1       2.585   7.590  18.946  0.00  0.00    +0.000 N 
ATOM     18  H   UNL     1       2.834   8.393  18.379  0.00  0.00    +0.000 HD
ENDBRANCH   2   8
BRANCH   7  19
ATOM     19  C   UNL     1      -0.741  11.610  19.965  0.00  0.00    +0.000 A 
ATOM     20  N   UNL     1      -1.584  11.757  18.953  0.00  0.00    +0.000 NA
ATOM     21  N   UNL     1      -2.764  12.272  19.428  0.00  0.00    +0.000 NA
ATOM     22  C   UNL     1      -2.648  12.399  20.730  0.00  0.00    +0.000 A 
ATOM     23  C   UNL     1      -3.542  12.876  21.728  0.00  0.00    +0.000 A 
ATOM     24  C   UNL     1      -3.167  12.862  23.021  0.00  0.00    +0.000 A 
ATOM     25  C   UNL     1      -1.853  12.384  23.419  0.00  0.00    +0.000 A 
ATOM     26  C   UNL     1      -0.992  11.971  22.473  0.00  0.00    +0.000 A 
ATOM     27  N   UNL     1      -1.390  11.967  21.135  0.00  0.00    +0.000 N 
ENDBRANCH   7  19
TORSDOF 2
ENDMDL
