MODEL 1
REMARK VINA RESULT:      -9.0      0.000      0.000
REMARK  Name = 
REMARK  6 active torsions:
REMARK  status: ('A' for Active; 'I' for Inactive)
REMARK    1  A    between atoms: C_1  and  C_2
REMARK    2  A    between atoms: C_5  and  N_6
REMARK    3  A    between atoms: N_9  and  C_10
REMARK    4  A    between atoms: C_17  and  N_18
REMARK    5  A    between atoms: C_19  and  C_21
REMARK    6  A    between atoms: C_21  and  N_22
REMARK                            x       y       z     vdW  Elec       q    Type
REMARK                         _______ _______ _______ _____ _____    ______ ____
ROOT
ATOM      1  C   UNL     1       3.462   2.954  17.955  0.00  0.00    +0.000 C 
ATOM      2  C   UNL     1       2.954   4.105  18.785  0.00  0.00    +0.000 A 
ATOM      3  C   UNL     1       1.762   3.858  19.479  0.00  0.00    +0.000 A 
ATOM      4  C   UNL     1       1.194   4.819  20.302  0.00  0.00    +0.000 A 
ATOM      5  C   UNL     1       1.819   6.043  20.535  0.00  0.00    +0.000 A 
ATOM      6  C   UNL     1       3.006   6.320  19.811  0.00  0.00    +0.000 A 
ATOM      7  C   UNL     1       3.585   5.370  18.917  0.00  0.00    +0.000 A 
ENDROOT
BRANCH   5   8
ATOM      8  N   UNL     1       1.247   6.980  21.466  0.00  0.00    +0.000 N 
ATOM      9  C   UNL     1       0.877   8.282  21.101  0.00  0.00    +0.000 C 
ATOM     10  O   UNL     1       0.865   8.659  19.934  0.00  0.00    +0.000 OA
ATOM     11  N   UNL     1       0.545   9.111  22.170  0.00  0.00    +0.000 N 
ATOM     12  H   UNL     1       0.859   6.601  22.319  0.00  0.00    +0.000 HD
ATOM     13  H   UNL     1       0.783   8.795  23.096  0.00  0.00    +0.000 HD
BRANCH  11  14
ATOM     14  C   UNL     1       0.166  10.492  22.024  0.00  0.00    +0.000 A 
ATOM     15  C   UNL     1       0.773  11.374  21.113  0.00  0.00    +0.000 A 
ATOM     16  C   UNL     1       0.435  12.729  21.047  0.00  0.00    +0.000 A 
ATOM     17  C   UNL     1      -0.554  13.238  21.876  0.00  0.00    +0.000 A 
ATOM     18  C   UNL     1      -1.205  12.379  22.758  0.00  0.00    +0.000 A 
ATOM     19  C   UNL     1      -0.851  11.017  22.833  0.00  0.00    +0.000 A 
ENDBRANCH  11  14
ENDBRANCH   5   8
BRANCH   7  20
ATOM     20  N   UNL     1       4.767   5.620  18.144  0.00  0.00    +0.000 N 
ATOM     21  C   UNL     1       6.113   5.436  18.504  0.00  0.00    +0.000 C 
ATOM     22  O   UNL     1       6.484   5.006  19.598  0.00  0.00    +0.000 OA
ATOM     23  H   UNL     1       4.603   6.008  17.230  0.00  0.00    +0.000 HD
BRANCH  21  24
ATOM     24  C   UNL     1       7.122   5.732  17.392  0.00  0.00    +0.000 C 
BRANCH  24  25
ATOM     25  N   UNL     1       6.944   5.095  16.076  0.00  0.00    +0.000 N 
ATOM     26  C   UNL     1       6.023   4.176  15.645  0.00  0.00    +0.000 A 
ATOM     27  C   UNL     1       6.239   4.046  14.293  0.00  0.00    +0.000 A 
ATOM     28  C   UNL     1       5.533   3.225  13.412  0.00  0.00    +0.000 A 
ATOM     29  C   UNL     1       5.981   3.382  12.079  0.00  0.00    +0.000 A 
ATOM     30  C   UNL     1       7.026   4.278  11.691  0.00  0.00    +0.000 A 
ATOM     31  C   UNL     1       7.731   5.086  12.613  0.00  0.00    +0.000 A 
ATOM     32  C   UNL     1       7.305   4.950  13.951  0.00  0.00    +0.000 A 
ATOM     33  N   UNL     1       7.737   5.562  15.069  0.00  0.00    +0.000 NA
ENDBRANCH  24  25
ENDBRANCH  21  24
ENDBRANCH   7  20
TORSDOF 5
ENDMDL
MODEL 2
REMARK VINA RESULT:      -9.0      2.356      4.123
REMARK  Name = 
REMARK  6 active torsions:
REMARK  status: ('A' for Active; 'I' for Inactive)
REMARK    1  A    between atoms: C_1  and  C_2
REMARK    2  A    between atoms: C_5  and  N_6
REMARK    3  A    between atoms: N_9  and  C_10
REMARK    4  A    between atoms: C_17  and  N_18
REMARK    5  A    between atoms: C_19  and  C_21
REMARK    6  A    between atoms: C_21  and  N_22
REMARK                            x       y       z     vdW  Elec       q    Type
REMARK                         _______ _______ _______ _____ _____    ______ ____
ROOT
ATOM      1  C   UNL     1       2.671   7.931  17.467  0.00  0.00    +0.000 C 
ATOM      2  C   UNL     1       2.038   8.337  18.773  0.00  0.00    +0.000 A 
ATOM      3  C   UNL     1       1.436   9.602  18.774  0.00  0.00    +0.000 A 
ATOM      4  C   UNL     1       0.791  10.093  19.900  0.00  0.00    +0.000 A 
ATOM      5  C   UNL     1       0.648   9.324  21.053  0.00  0.00    +0.000 A 
ATOM      6  C   UNL     1       1.284   8.058  21.078  0.00  0.00    +0.000 A 
ATOM      7  C   UNL     1       1.998   7.548  19.953  0.00  0.00    +0.000 A 
ENDROOT
BRANCH   5   8
ATOM      8  N   UNL     1      -0.105   9.831  22.171  0.00  0.00    +0.000 N 
ATOM      9  C   UNL     1      -0.926  10.963  22.080  0.00  0.00    +0.000 C 
ATOM     10  O   UNL     1      -1.187  11.503  21.010  0.00  0.00    +0.000 OA
ATOM     11  N   UNL     1      -1.404  11.432  23.302  0.00  0.00    +0.000 N 
ATOM     12  H   UNL     1      -0.252   9.203  22.949  0.00  0.00    +0.000 HD
ATOM     13  H   UNL     1      -0.979  11.068  24.139  0.00  0.00    +0.000 HD
BRANCH  11  14
ATOM     14  C   UNL     1      -2.238  12.598  23.442  0.00  0.00    +0.000 A 
ATOM     15  C   UNL     1      -3.642  12.554  23.452  0.00  0.00    +0.000 A 
ATOM     16  C   UNL     1      -4.426  13.711  23.513  0.00  0.00    +0.000 A 
ATOM     17  C   UNL     1      -3.818  14.955  23.600  0.00  0.00    +0.000 A 
ATOM     18  C   UNL     1      -2.427  15.028  23.637  0.00  0.00    +0.000 A 
ATOM     19  C   UNL     1      -1.641  13.861  23.560  0.00  0.00    +0.000 A 
ENDBRANCH  11  14
ENDBRANCH   5   8
BRANCH   7  20
ATOM     20  N   UNL     1       2.680   6.286  19.946  0.00  0.00    +0.000 N 
ATOM     21  C   UNL     1       2.197   5.020  20.317  0.00  0.00    +0.000 C 
ATOM     22  O   UNL     1       1.052   4.806  20.720  0.00  0.00    +0.000 OA
ATOM     23  H   UNL     1       3.645   6.326  19.662  0.00  0.00    +0.000 HD
BRANCH  21  24
ATOM     24  C   UNL     1       3.184   3.869  20.103  0.00  0.00    +0.000 C 
BRANCH  24  25
ATOM     25  N   UNL     1       4.084   3.904  18.939  0.00  0.00    +0.000 N 
ATOM     26  C   UNL     1       3.829   3.726  17.605  0.00  0.00    +0.000 A 
ATOM     27  C   UNL     1       5.011   4.010  16.963  0.00  0.00    +0.000 A 
ATOM     28  C   UNL     1       5.241   3.977  15.586  0.00  0.00    +0.000 A 
ATOM     29  C   UNL     1       6.557   4.385  15.266  0.00  0.00    +0.000 A 
ATOM     30  C   UNL     1       7.525   4.785  16.239  0.00  0.00    +0.000 A 
ATOM     31  C   UNL     1       7.263   4.794  17.629  0.00  0.00    +0.000 A 
ATOM     32  C   UNL     1       5.957   4.391  17.978  0.00  0.00    +0.000 A 
ATOM     33  N   UNL     1       5.370   4.292  19.185  0.00  0.00    +0.000 NA
ENDBRANCH  24  25
ENDBRANCH  21  24
ENDBRANCH   7  20
TORSDOF 5
ENDMDL
MODEL 3
REMARK VINA RESULT:      -8.9      1.764      9.642
REMARK  Name = 
REMARK  6 active torsions:
REMARK  status: ('A' for Active; 'I' for Inactive)
REMARK    1  A    between atoms: C_1  and  C_2
REMARK    2  A    between atoms: C_5  and  N_6
REMARK    3  A    between atoms: N_9  and  C_10
REMARK    4  A    between atoms: C_17  and  N_18
REMARK    5  A    between atoms: C_19  and  C_21
REMARK    6  A    between atoms: C_21  and  N_22
REMARK                            x       y       z     vdW  Elec       q    Type
REMARK                         _______ _______ _______ _____ _____    ______ ____
ROOT
ATOM      1  C   UNL     1       1.243   3.195  21.452  0.00  0.00    +0.000 C 
ATOM      2  C   UNL     1       2.454   3.565  20.633  0.00  0.00    +0.000 A 
ATOM      3  C   UNL     1       3.184   2.481  20.129  0.00  0.00    +0.000 A 
ATOM      4  C   UNL     1       4.306   2.673  19.336  0.00  0.00    +0.000 A 
ATOM      5  C   UNL     1       4.713   3.948  18.945  0.00  0.00    +0.000 A 
ATOM      6  C   UNL     1       4.006   5.053  19.477  0.00  0.00    +0.000 A 
ATOM      7  C   UNL     1       2.879   4.887  20.337  0.00  0.00    +0.000 A 
ENDROOT
BRANCH   5   8
ATOM      8  N   UNL     1       5.829   4.105  18.047  0.00  0.00    +0.000 N 
ATOM      9  C   UNL     1       5.672   4.291  16.667  0.00  0.00    +0.000 C 
ATOM     10  O   UNL     1       4.577   4.494  16.152  0.00  0.00    +0.000 OA
ATOM     11  N   UNL     1       6.853   4.208  15.932  0.00  0.00    +0.000 N 
ATOM     12  H   UNL     1       6.718   4.356  18.459  0.00  0.00    +0.000 HD
ATOM     13  H   UNL     1       7.664   3.832  16.396  0.00  0.00    +0.000 HD
BRANCH  11  14
ATOM     14  C   UNL     1       6.915   4.338  14.500  0.00  0.00    +0.000 A 
ATOM     15  C   UNL     1       6.203   3.513  13.613  0.00  0.00    +0.000 A 
ATOM     16  C   UNL     1       6.342   3.615  12.224  0.00  0.00    +0.000 A 
ATOM     17  C   UNL     1       7.181   4.576  11.680  0.00  0.00    +0.000 A 
ATOM     18  C   UNL     1       7.867   5.438  12.535  0.00  0.00    +0.000 A 
ATOM     19  C   UNL     1       7.736   5.322  13.933  0.00  0.00    +0.000 A 
ENDBRANCH  11  14
ENDBRANCH   5   8
BRANCH   7  20
ATOM     20  N   UNL     1       2.154   5.977  20.922  0.00  0.00    +0.000 N 
ATOM     21  C   UNL     1       1.880   7.246  20.382  0.00  0.00    +0.000 C 
ATOM     22  O   UNL     1       2.246   7.616  19.265  0.00  0.00    +0.000 OA
ATOM     23  H   UNL     1       1.822   5.814  21.858  0.00  0.00    +0.000 HD
BRANCH  21  24
ATOM     24  C   UNL     1       1.001   8.141  21.259  0.00  0.00    +0.000 C 
BRANCH  24  25
ATOM     25  N   UNL     1       0.589   9.459  20.750  0.00  0.00    +0.000 N 
ATOM     26  C   UNL     1       1.127  10.704  20.951  0.00  0.00    +0.000 A 
ATOM     27  C   UNL     1       0.425  11.546  20.122  0.00  0.00    +0.000 A 
ATOM     28  C   UNL     1       0.623  12.920  19.970  0.00  0.00    +0.000 A 
ATOM     29  C   UNL     1      -0.237  13.465  18.987  0.00  0.00    +0.000 A 
ATOM     30  C   UNL     1      -1.184  12.695  18.243  0.00  0.00    +0.000 A 
ATOM     31  C   UNL     1      -1.368  11.305  18.432  0.00  0.00    +0.000 A 
ATOM     32  C   UNL     1      -0.524  10.735  19.407  0.00  0.00    +0.000 A 
ATOM     33  N   UNL     1      -0.420   9.462  19.831  0.00  0.00    +0.000 NA
ENDBRANCH  24  25
ENDBRANCH  21  24
ENDBRANCH   7  20
TORSDOF 5
ENDMDL
MODEL 4
REMARK VINA RESULT:      -8.8      1.579      9.853
REMARK  Name = 
REMARK  6 active torsions:
REMARK  status: ('A' for Active; 'I' for Inactive)
REMARK    1  A    between atoms: C_1  and  C_2
REMARK    2  A    between atoms: C_5  and  N_6
REMARK    3  A    between atoms: N_9  and  C_10
REMARK    4  A    between atoms: C_17  and  N_18
REMARK    5  A    between atoms: C_19  and  C_21
REMARK    6  A    between atoms: C_21  and  N_22
REMARK                            x       y       z     vdW  Elec       q    Type
REMARK                         _______ _______ _______ _____ _____    ______ ____
ROOT
ATOM      1  C   UNL     1       1.354   3.220  21.382  0.00  0.00    +0.000 C 
ATOM      2  C   UNL     1       2.548   3.642  20.564  0.00  0.00    +0.000 A 
ATOM      3  C   UNL     1       3.316   2.590  20.046  0.00  0.00    +0.000 A 
ATOM      4  C   UNL     1       4.428   2.832  19.253  0.00  0.00    +0.000 A 
ATOM      5  C   UNL     1       4.788   4.124  18.875  0.00  0.00    +0.000 A 
ATOM      6  C   UNL     1       4.042   5.198  19.422  0.00  0.00    +0.000 A 
ATOM      7  C   UNL     1       2.925   4.982  20.282  0.00  0.00    +0.000 A 
ENDROOT
BRANCH   5   8
ATOM      8  N   UNL     1       5.895   4.331  17.977  0.00  0.00    +0.000 N 
ATOM      9  C   UNL     1       5.741   4.394  16.586  0.00  0.00    +0.000 C 
ATOM     10  O   UNL     1       4.639   4.439  16.047  0.00  0.00    +0.000 OA
ATOM     11  N   UNL     1       6.935   4.383  15.868  0.00  0.00    +0.000 N 
ATOM     12  H   UNL     1       6.745   4.707  18.375  0.00  0.00    +0.000 HD
ATOM     13  H   UNL     1       7.774   4.133  16.366  0.00  0.00    +0.000 HD
BRANCH  11  14
ATOM     14  C   UNL     1       7.007   4.409  14.431  0.00  0.00    +0.000 A 
ATOM     15  C   UNL     1       7.839   5.281  13.709  0.00  0.00    +0.000 A 
ATOM     16  C   UNL     1       7.831   5.335  12.311  0.00  0.00    +0.000 A 
ATOM     17  C   UNL     1       7.004   4.486  11.590  0.00  0.00    +0.000 A 
ATOM     18  C   UNL     1       6.200   3.580  12.277  0.00  0.00    +0.000 A 
ATOM     19  C   UNL     1       6.200   3.538  13.685  0.00  0.00    +0.000 A 
ENDBRANCH  11  14
ENDBRANCH   5   8
BRANCH   7  20
ATOM     20  N   UNL     1       2.162   6.038  20.880  0.00  0.00    +0.000 N 
ATOM     21  C   UNL     1       1.896   7.326  20.383  0.00  0.00    +0.000 C 
ATOM     22  O   UNL     1       2.304   7.747  19.300  0.00  0.00    +0.000 OA
ATOM     23  H   UNL     1       1.794   5.832  21.795  0.00  0.00    +0.000 HD
BRANCH  21  24
ATOM     24  C   UNL     1       0.970   8.174  21.259  0.00  0.00    +0.000 C 
BRANCH  24  25
ATOM     25  N   UNL     1       0.573   9.513  20.794  0.00  0.00    +0.000 N 
ATOM     26  C   UNL     1      -0.177   9.899  19.713  0.00  0.00    +0.000 A 
ATOM     27  C   UNL     1      -0.346  11.256  19.849  0.00  0.00    +0.000 A 
ATOM     28  C   UNL     1      -1.055  12.097  18.990  0.00  0.00    +0.000 A 
ATOM     29  C   UNL     1      -1.077  13.431  19.464  0.00  0.00    +0.000 A 
ATOM     30  C   UNL     1      -0.450  13.853  20.677  0.00  0.00    +0.000 A 
ATOM     31  C   UNL     1       0.273  12.976  21.519  0.00  0.00    +0.000 A 
ATOM     32  C   UNL     1       0.312  11.640  21.070  0.00  0.00    +0.000 A 
ATOM     33  N   UNL     1       0.890  10.555  21.617  0.00  0.00    +0.000 NA
ENDBRANCH  24  25
ENDBRANCH  21  24
ENDBRANCH   7  20
TORSDOF 5
ENDMDL
MODEL 5
REMARK VINA RESULT:      -8.6      0.652      1.051
REMARK  Name = 
REMARK  6 active torsions:
REMARK  status: ('A' for Active; 'I' for Inactive)
REMARK    1  A    between atoms: C_1  and  C_2
REMARK    2  A    between atoms: C_5  and  N_6
REMARK    3  A    between atoms: N_9  and  C_10
REMARK    4  A    between atoms: C_17  and  N_18
REMARK    5  A    between atoms: C_19  and  C_21
REMARK    6  A    between atoms: C_21  and  N_22
REMARK                            x       y       z     vdW  Elec       q    Type
REMARK                         _______ _______ _______ _____ _____    ______ ____
ROOT
ATOM      1  C   UNL     1       3.430   3.069  18.106  0.00  0.00    +0.000 C 
ATOM      2  C   UNL     1       3.007   4.329  18.819  0.00  0.00    +0.000 A 
ATOM      3  C   UNL     1       1.773   4.253  19.480  0.00  0.00    +0.000 A 
ATOM      4  C   UNL     1       1.273   5.328  20.199  0.00  0.00    +0.000 A 
ATOM      5  C   UNL     1       2.004   6.504  20.358  0.00  0.00    +0.000 A 
ATOM      6  C   UNL     1       3.236   6.607  19.665  0.00  0.00    +0.000 A 
ATOM      7  C   UNL     1       3.751   5.537  18.875  0.00  0.00    +0.000 A 
ENDROOT
BRANCH   5   8
ATOM      8  N   UNL     1       1.493   7.565  21.186  0.00  0.00    +0.000 N 
ATOM      9  C   UNL     1       1.021   8.776  20.661  0.00  0.00    +0.000 C 
ATOM     10  O   UNL     1       0.860   8.953  19.457  0.00  0.00    +0.000 OA
ATOM     11  N   UNL     1       0.768   9.762  21.613  0.00  0.00    +0.000 N 
ATOM     12  H   UNL     1       1.221   7.322  22.129  0.00  0.00    +0.000 HD
ATOM     13  H   UNL     1       1.123   9.612  22.543  0.00  0.00    +0.000 HD
BRANCH  11  14
ATOM     14  C   UNL     1       0.308  11.087  21.290  0.00  0.00    +0.000 A 
ATOM     15  C   UNL     1      -1.037  11.485  21.373  0.00  0.00    +0.000 A 
ATOM     16  C   UNL     1      -1.465  12.758  20.981  0.00  0.00    +0.000 A 
ATOM     17  C   UNL     1      -0.544  13.688  20.521  0.00  0.00    +0.000 A 
ATOM     18  C   UNL     1       0.804  13.337  20.470  0.00  0.00    +0.000 A 
ATOM     19  C   UNL     1       1.229  12.049  20.852  0.00  0.00    +0.000 A 
ENDBRANCH  11  14
ENDBRANCH   5   8
BRANCH   7  20
ATOM     20  N   UNL     1       4.977   5.610  18.135  0.00  0.00    +0.000 N 
ATOM     21  C   UNL     1       6.294   5.411  18.585  0.00  0.00    +0.000 C 
ATOM     22  O   UNL     1       6.592   5.126  19.746  0.00  0.00    +0.000 OA
ATOM     23  H   UNL     1       4.875   5.868  17.167  0.00  0.00    +0.000 HD
BRANCH  21  24
ATOM     24  C   UNL     1       7.364   5.489  17.493  0.00  0.00    +0.000 C 
BRANCH  24  25
ATOM     25  N   UNL     1       7.083   4.905  16.172  0.00  0.00    +0.000 N 
ATOM     26  C   UNL     1       6.141   3.989  15.781  0.00  0.00    +0.000 A 
ATOM     27  C   UNL     1       6.242   3.919  14.411  0.00  0.00    +0.000 A 
ATOM     28  C   UNL     1       5.475   3.123  13.559  0.00  0.00    +0.000 A 
ATOM     29  C   UNL     1       5.804   3.344  12.201  0.00  0.00    +0.000 A 
ATOM     30  C   UNL     1       6.799   4.273  11.765  0.00  0.00    +0.000 A 
ATOM     31  C   UNL     1       7.570   5.054  12.657  0.00  0.00    +0.000 A 
ATOM     32  C   UNL     1       7.263   4.854  14.019  0.00  0.00    +0.000 A 
ATOM     33  N   UNL     1       7.780   5.427  15.121  0.00  0.00    +0.000 NA
ENDBRANCH  24  25
ENDBRANCH  21  24
ENDBRANCH   7  20
TORSDOF 5
ENDMDL
MODEL 6
REMARK VINA RESULT:      -8.6      2.362      4.425
REMARK  Name = 
REMARK  6 active torsions:
REMARK  status: ('A' for Active; 'I' for Inactive)
REMARK    1  A    between atoms: C_1  and  C_2
REMARK    2  A    between atoms: C_5  and  N_6
REMARK    3  A    between atoms: N_9  and  C_10
REMARK    4  A    between atoms: C_17  and  N_18
REMARK    5  A    between atoms: C_19  and  C_21
REMARK    6  A    between atoms: C_21  and  N_22
REMARK                            x       y       z     vdW  Elec       q    Type
REMARK                         _______ _______ _______ _____ _____    ______ ____
ROOT
ATOM      1  C   UNL     1       2.419   8.376  17.577  0.00  0.00    +0.000 C 
ATOM      2  C   UNL     1       1.783   8.758  18.889  0.00  0.00    +0.000 A 
ATOM      3  C   UNL     1       1.111   9.988  18.888  0.00  0.00    +0.000 A 
ATOM      4  C   UNL     1       0.457  10.454  20.018  0.00  0.00    +0.000 A 
ATOM      5  C   UNL     1       0.375   9.689  21.181  0.00  0.00    +0.000 A 
ATOM      6  C   UNL     1       1.080   8.461  21.208  0.00  0.00    +0.000 A 
ATOM      7  C   UNL     1       1.805   7.980  20.076  0.00  0.00    +0.000 A 
ENDROOT
BRANCH   5   8
ATOM      8  N   UNL     1      -0.389  10.165  22.305  0.00  0.00    +0.000 N 
ATOM      9  C   UNL     1      -1.281  11.242  22.214  0.00  0.00    +0.000 C 
ATOM     10  O   UNL     1      -1.594  11.749  21.142  0.00  0.00    +0.000 OA
ATOM     11  N   UNL     1      -1.766  11.698  23.439  0.00  0.00    +0.000 N 
ATOM     12  H   UNL     1      -0.483   9.540  23.094  0.00  0.00    +0.000 HD
ATOM     13  H   UNL     1      -1.304  11.374  24.272  0.00  0.00    +0.000 HD
BRANCH  11  14
ATOM     14  C   UNL     1      -2.668  12.811  23.577  0.00  0.00    +0.000 A 
ATOM     15  C   UNL     1      -4.063  12.705  23.440  0.00  0.00    +0.000 A 
ATOM     16  C   UNL     1      -4.907  13.818  23.507  0.00  0.00    +0.000 A 
ATOM     17  C   UNL     1      -4.376  15.077  23.747  0.00  0.00    +0.000 A 
ATOM     18  C   UNL     1      -3.002  15.208  23.931  0.00  0.00    +0.000 A 
ATOM     19  C   UNL     1      -2.153  14.086  23.849  0.00  0.00    +0.000 A 
ENDBRANCH  11  14
ENDBRANCH   5   8
BRANCH   7  20
ATOM     20  N   UNL     1       2.557   6.759  20.070  0.00  0.00    +0.000 N 
ATOM     21  C   UNL     1       2.117   5.451  20.336  0.00  0.00    +0.000 C 
ATOM     22  O   UNL     1       0.956   5.156  20.625  0.00  0.00    +0.000 OA
ATOM     23  H   UNL     1       3.539   6.864  19.876  0.00  0.00    +0.000 HD
BRANCH  21  24
ATOM     24  C   UNL     1       3.183   4.366  20.157  0.00  0.00    +0.000 C 
BRANCH  24  25
ATOM     25  N   UNL     1       4.185   4.517  19.089  0.00  0.00    +0.000 N 
ATOM     26  C   UNL     1       5.553   4.565  19.147  0.00  0.00    +0.000 A 
ATOM     27  C   UNL     1       5.976   4.572  17.839  0.00  0.00    +0.000 A 
ATOM     28  C   UNL     1       7.298   4.604  17.391  0.00  0.00    +0.000 A 
ATOM     29  C   UNL     1       7.374   4.541  15.979  0.00  0.00    +0.000 A 
ATOM     30  C   UNL     1       6.231   4.450  15.125  0.00  0.00    +0.000 A 
ATOM     31  C   UNL     1       4.903   4.433  15.613  0.00  0.00    +0.000 A 
ATOM     32  C   UNL     1       4.797   4.496  17.018  0.00  0.00    +0.000 A 
ATOM     33  N   UNL     1       3.710   4.490  17.810  0.00  0.00    +0.000 NA
ENDBRANCH  24  25
ENDBRANCH  21  24
ENDBRANCH   7  20
TORSDOF 5
ENDMDL
MODEL 7
REMARK VINA RESULT:      -8.3      1.505      1.657
REMARK  Name = 
REMARK  6 active torsions:
REMARK  status: ('A' for Active; 'I' for Inactive)
REMARK    1  A    between atoms: C_1  and  C_2
REMARK    2  A    between atoms: C_5  and  N_6
REMARK    3  A    between atoms: N_9  and  C_10
REMARK    4  A    between atoms: C_17  and  N_18
REMARK    5  A    between atoms: C_19  and  C_21
REMARK    6  A    between atoms: C_21  and  N_22
REMARK                            x       y       z     vdW  Elec       q    Type
REMARK                         _______ _______ _______ _____ _____    ______ ____
ROOT
ATOM      1  C   UNL     1       2.813   2.530  19.462  0.00  0.00    +0.000 C 
ATOM      2  C   UNL     1       2.535   3.985  19.746  0.00  0.00    +0.000 A 
ATOM      3  C   UNL     1       1.313   4.243  20.382  0.00  0.00    +0.000 A 
ATOM      4  C   UNL     1       0.940   5.533  20.728  0.00  0.00    +0.000 A 
ATOM      5  C   UNL     1       1.791   6.619  20.527  0.00  0.00    +0.000 A 
ATOM      6  C   UNL     1       3.012   6.376  19.852  0.00  0.00    +0.000 A 
ATOM      7  C   UNL     1       3.400   5.067  19.437  0.00  0.00    +0.000 A 
ENDROOT
BRANCH   5   8
ATOM      8  N   UNL     1       1.407   7.930  20.981  0.00  0.00    +0.000 N 
ATOM      9  C   UNL     1       1.157   8.994  20.103  0.00  0.00    +0.000 C 
ATOM     10  O   UNL     1       1.090   8.841  18.887  0.00  0.00    +0.000 OA
ATOM     11  N   UNL     1       1.010  10.234  20.721  0.00  0.00    +0.000 N 
ATOM     12  H   UNL     1       1.051   8.004  21.924  0.00  0.00    +0.000 HD
ATOM     13  H   UNL     1       1.287  10.309  21.686  0.00  0.00    +0.000 HD
BRANCH  11  14
ATOM     14  C   UNL     1       0.779  11.462  20.006  0.00  0.00    +0.000 A 
ATOM     15  C   UNL     1       1.728  12.492  19.902  0.00  0.00    +0.000 A 
ATOM     16  C   UNL     1       1.448  13.706  19.264  0.00  0.00    +0.000 A 
ATOM     17  C   UNL     1       0.206  13.910  18.679  0.00  0.00    +0.000 A 
ATOM     18  C   UNL     1      -0.741  12.889  18.728  0.00  0.00    +0.000 A 
ATOM     19  C   UNL     1      -0.459  11.674  19.384  0.00  0.00    +0.000 A 
ENDBRANCH  11  14
ENDBRANCH   5   8
BRANCH   7  20
ATOM     20  N   UNL     1       4.613   4.782  18.726  0.00  0.00    +0.000 N 
ATOM     21  C   UNL     1       5.399   5.642  17.941  0.00  0.00    +0.000 C 
ATOM     22  O   UNL     1       5.141   6.831  17.747  0.00  0.00    +0.000 OA
ATOM     23  H   UNL     1       4.921   3.825  18.778  0.00  0.00    +0.000 HD
BRANCH  21  24
ATOM     24  C   UNL     1       6.683   5.015  17.391  0.00  0.00    +0.000 C 
BRANCH  24  25
ATOM     25  N   UNL     1       6.744   4.642  15.968  0.00  0.00    +0.000 N 
ATOM     26  C   UNL     1       6.008   3.738  15.247  0.00  0.00    +0.000 A 
ATOM     27  C   UNL     1       6.396   3.907  13.939  0.00  0.00    +0.000 A 
ATOM     28  C   UNL     1       5.911   3.212  12.830  0.00  0.00    +0.000 A 
ATOM     29  C   UNL     1       6.487   3.682  11.626  0.00  0.00    +0.000 A 
ATOM     30  C   UNL     1       7.444   4.742  11.563  0.00  0.00    +0.000 A 
ATOM     31  C   UNL     1       7.925   5.416  12.709  0.00  0.00    +0.000 A 
ATOM     32  C   UNL     1       7.368   4.968  13.925  0.00  0.00    +0.000 A 
ATOM     33  N   UNL     1       7.582   5.384  15.187  0.00  0.00    +0.000 NA
ENDBRANCH  24  25
ENDBRANCH  21  24
ENDBRANCH   7  20
TORSDOF 5
ENDMDL
MODEL 8
REMARK VINA RESULT:      -8.2      3.941      6.994
REMARK  Name = 
REMARK  6 active torsions:
REMARK  status: ('A' for Active; 'I' for Inactive)
REMARK    1  A    between atoms: C_1  and  C_2
REMARK    2  A    between atoms: C_5  and  N_6
REMARK    3  A    between atoms: N_9  and  C_10
REMARK    4  A    between atoms: C_17  and  N_18
REMARK    5  A    between atoms: C_19  and  C_21
REMARK    6  A    between atoms: C_21  and  N_22
REMARK                            x       y       z     vdW  Elec       q    Type
REMARK                         _______ _______ _______ _____ _____    ______ ____
ROOT
ATOM      1  C   UNL     1      -0.211   7.990  21.646  0.00  0.00    +0.000 C 
ATOM      2  C   UNL     1       0.053   9.438  21.321  0.00  0.00    +0.000 A 
ATOM      3  C   UNL     1      -0.751  10.358  22.007  0.00  0.00    +0.000 A 
ATOM      4  C   UNL     1      -0.599  11.725  21.826  0.00  0.00    +0.000 A 
ATOM      5  C   UNL     1       0.405  12.246  21.012  0.00  0.00    +0.000 A 
ATOM      6  C   UNL     1       1.201  11.327  20.285  0.00  0.00    +0.000 A 
ATOM      7  C   UNL     1       1.033   9.916  20.411  0.00  0.00    +0.000 A 
ENDROOT
BRANCH   5   8
ATOM      8  N   UNL     1       0.591  13.671  20.919  0.00  0.00    +0.000 N 
ATOM      9  C   UNL     1       0.394  14.385  19.729  0.00  0.00    +0.000 C 
ATOM     10  O   UNL     1      -0.105  13.875  18.731  0.00  0.00    +0.000 OA
ATOM     11  N   UNL     1       0.825  15.710  19.769  0.00  0.00    +0.000 N 
ATOM     12  H   UNL     1       0.598  14.192  21.786  0.00  0.00    +0.000 HD
ATOM     13  H   UNL     1       1.409  15.986  20.541  0.00  0.00    +0.000 HD
BRANCH  11  14
ATOM     14  C   UNL     1       0.745  16.611  18.650  0.00  0.00    +0.000 A 
ATOM     15  C   UNL     1       1.856  16.998  17.881  0.00  0.00    +0.000 A 
ATOM     16  C   UNL     1       1.759  17.935  16.846  0.00  0.00    +0.000 A 
ATOM     17  C   UNL     1       0.528  18.491  16.528  0.00  0.00    +0.000 A 
ATOM     18  C   UNL     1      -0.599  18.093  17.244  0.00  0.00    +0.000 A 
ATOM     19  C   UNL     1      -0.495  17.161  18.295  0.00  0.00    +0.000 A 
ENDBRANCH  11  14
ENDBRANCH   5   8
BRANCH   7  20
ATOM     20  N   UNL     1       1.796   8.952  19.673  0.00  0.00    +0.000 N 
ATOM     21  C   UNL     1       2.016   8.875  18.287  0.00  0.00    +0.000 C 
ATOM     22  O   UNL     1       1.559   9.674  17.468  0.00  0.00    +0.000 OA
ATOM     23  H   UNL     1       2.203   8.216  20.227  0.00  0.00    +0.000 HD
BRANCH  21  24
ATOM     24  C   UNL     1       2.957   7.750  17.847  0.00  0.00    +0.000 C 
BRANCH  24  25
ATOM     25  N   UNL     1       2.877   6.445  18.524  0.00  0.00    +0.000 N 
ATOM     26  C   UNL     1       3.853   5.531  18.824  0.00  0.00    +0.000 A 
ATOM     27  C   UNL     1       3.234   4.566  19.583  0.00  0.00    +0.000 A 
ATOM     28  C   UNL     1       3.830   3.430  20.134  0.00  0.00    +0.000 A 
ATOM     29  C   UNL     1       2.911   2.683  20.909  0.00  0.00    +0.000 A 
ATOM     30  C   UNL     1       1.545   3.056  21.102  0.00  0.00    +0.000 A 
ATOM     31  C   UNL     1       0.969   4.208  20.516  0.00  0.00    +0.000 A 
ATOM     32  C   UNL     1       1.862   4.973  19.737  0.00  0.00    +0.000 A 
ATOM     33  N   UNL     1       1.663   6.115  19.056  0.00  0.00    +0.000 NA
ENDBRANCH  24  25
ENDBRANCH  21  24
ENDBRANCH   7  20
TORSDOF 5
ENDMDL
MODEL 9
REMARK VINA RESULT:      -8.2      0.645      1.500
REMARK  Name = 
REMARK  6 active torsions:
REMARK  status: ('A' for Active; 'I' for Inactive)
REMARK    1  A    between atoms: C_1  and  C_2
REMARK    2  A    between atoms: C_5  and  N_6
REMARK    3  A    between atoms: N_9  and  C_10
REMARK    4  A    between atoms: C_17  and  N_18
REMARK    5  A    between atoms: C_19  and  C_21
REMARK    6  A    between atoms: C_21  and  N_22
REMARK                            x       y       z     vdW  Elec       q    Type
REMARK                         _______ _______ _______ _____ _____    ______ ____
ROOT
ATOM      1  C   UNL     1       3.144   3.258  17.184  0.00  0.00    +0.000 C 
ATOM      2  C   UNL     1       2.834   4.332  18.196  0.00  0.00    +0.000 A 
ATOM      3  C   UNL     1       1.600   4.196  18.847  0.00  0.00    +0.000 A 
ATOM      4  C   UNL     1       1.197   5.096  19.822  0.00  0.00    +0.000 A 
ATOM      5  C   UNL     1       2.027   6.131  20.249  0.00  0.00    +0.000 A 
ATOM      6  C   UNL     1       3.261   6.302  19.573  0.00  0.00    +0.000 A 
ATOM      7  C   UNL     1       3.680   5.422  18.531  0.00  0.00    +0.000 A 
ENDROOT
BRANCH   5   8
ATOM      8  N   UNL     1       1.612   6.992  21.326  0.00  0.00    +0.000 N 
ATOM      9  C   UNL     1       0.935   8.200  21.113  0.00  0.00    +0.000 C 
ATOM     10  O   UNL     1       0.507   8.529  20.011  0.00  0.00    +0.000 OA
ATOM     11  N   UNL     1       0.805   9.000  22.247  0.00  0.00    +0.000 N 
ATOM     12  H   UNL     1       1.569   6.584  22.250  0.00  0.00    +0.000 HD
ATOM     13  H   UNL     1       1.360   8.760  23.051  0.00  0.00    +0.000 HD
BRANCH  11  14
ATOM     14  C   UNL     1       0.172  10.293  22.246  0.00  0.00    +0.000 A 
ATOM     15  C   UNL     1      -0.943  10.614  23.038  0.00  0.00    +0.000 A 
ATOM     16  C   UNL     1      -1.583  11.856  22.961  0.00  0.00    +0.000 A 
ATOM     17  C   UNL     1      -1.099  12.831  22.102  0.00  0.00    +0.000 A 
ATOM     18  C   UNL     1       0.032  12.558  21.335  0.00  0.00    +0.000 A 
ATOM     19  C   UNL     1       0.665  11.301  21.406  0.00  0.00    +0.000 A 
ENDBRANCH  11  14
ENDBRANCH   5   8
BRANCH   7  20
ATOM     20  N   UNL     1       4.905   5.575  17.801  0.00  0.00    +0.000 N 
ATOM     21  C   UNL     1       6.171   5.031  18.077  0.00  0.00    +0.000 C 
ATOM     22  O   UNL     1       6.415   4.302  19.039  0.00  0.00    +0.000 OA
ATOM     23  H   UNL     1       4.849   6.181  16.998  0.00  0.00    +0.000 HD
BRANCH  21  24
ATOM     24  C   UNL     1       7.245   5.341  17.031  0.00  0.00    +0.000 C 
BRANCH  24  25
ATOM     25  N   UNL     1       6.977   5.028  15.617  0.00  0.00    +0.000 N 
ATOM     26  C   UNL     1       7.739   5.234  14.496  0.00  0.00    +0.000 A 
ATOM     27  C   UNL     1       7.058   4.619  13.472  0.00  0.00    +0.000 A 
ATOM     28  C   UNL     1       7.451   4.551  12.134  0.00  0.00    +0.000 A 
ATOM     29  C   UNL     1       6.542   3.789  11.361  0.00  0.00    +0.000 A 
ATOM     30  C   UNL     1       5.372   3.166  11.895  0.00  0.00    +0.000 A 
ATOM     31  C   UNL     1       4.995   3.267  13.254  0.00  0.00    +0.000 A 
ATOM     32  C   UNL     1       5.883   4.022  14.049  0.00  0.00    +0.000 A 
ATOM     33  N   UNL     1       5.845   4.310  15.363  0.00  0.00    +0.000 NA
ENDBRANCH  24  25
ENDBRANCH  21  24
ENDBRANCH   7  20
TORSDOF 5
ENDMDL
