MODEL 1
REMARK VINA RESULT:      -8.9      0.000      0.000
REMARK  Name = 
REMARK  4 active torsions:
REMARK  status: ('A' for Active; 'I' for Inactive)
REMARK    1  A    between atoms: C_1  and  C_2
REMARK    2  A    between atoms: C_7  and  C_8
REMARK    3  A    between atoms: C_12  and  C_13
REMARK    4  A    between atoms: N_15  and  C_16
REMARK                            x       y       z     vdW  Elec       q    Type
REMARK                         _______ _______ _______ _____ _____    ______ ____
ROOT
ATOM      1  C   UNL     1       2.479   6.877  19.113  0.00  0.00    +0.000 C 
ATOM      2  O   UNL     1       1.893   7.256  18.102  0.00  0.00    +0.000 OA
ATOM      3  N   UNL     1       2.257   7.371  20.388  0.00  0.00    +0.000 N 
ATOM      4  H   UNL     1       2.994   7.239  21.071  0.00  0.00    +0.000 HD
ENDROOT
BRANCH   3   5
ATOM      5  C   UNL     1       1.324   8.404  20.650  0.00  0.00    +0.000 A 
ATOM      6  C   UNL     1       0.472   8.271  21.732  0.00  0.00    +0.000 A 
ATOM      7  C   UNL     1      -0.395   9.319  22.057  0.00  0.00    +0.000 A 
ATOM      8  C   UNL     1      -0.464  10.465  21.258  0.00  0.00    +0.000 A 
ATOM      9  N   UNL     1      -1.354  11.484  21.570  0.00  0.00    +0.000 N 
ATOM     10  C   UNL     1      -1.478  12.641  20.683  0.00  0.00    +0.000 C 
ATOM     11  C   UNL     1      -1.539  13.843  21.626  0.00  0.00    +0.000 C 
ATOM     12  C   UNL     1      -2.146  13.269  22.894  0.00  0.00    +0.000 C 
ATOM     13  C   UNL     1      -1.536  11.873  22.968  0.00  0.00    +0.000 C 
ATOM     14  N   UNL     1       0.317  10.564  20.162  0.00  0.00    +0.000 NA
ATOM     15  C   UNL     1       1.208   9.565  19.899  0.00  0.00    +0.000 A 
ENDBRANCH   3   5
BRANCH   1  24
ATOM     16  C   UNL     1       0.986   3.990  20.341  0.00  0.00    +0.000 C 
ATOM     17  C   UNL     1       2.413   3.725  20.042  0.00  0.00    +0.000 A 
ATOM     18  N   UNL     1       2.901   2.503  20.304  0.00  0.00    +0.000 NA
ATOM     19  O   UNL     1       4.219   2.527  19.890  0.00  0.00    +0.000 OA
ATOM     20  C   UNL     1       4.516   3.749  19.378  0.00  0.00    +0.000 A 
ATOM     21  N   UNL     1       5.722   4.056  18.878  0.00  0.00    +0.000 NA
ATOM     22  C   UNL     1       5.858   5.311  18.413  0.00  0.00    +0.000 A 
ATOM     23  C   UNL     1       4.803   6.235  18.425  0.00  0.00    +0.000 A 
ATOM     24  C   UNL     1       3.555   5.877  18.968  0.00  0.00    +0.000 A 
ATOM     25  C   UNL     1       3.402   4.570  19.460  0.00  0.00    +0.000 A 
BRANCH  22  26
ATOM     26  C   UNL     1       7.227   5.664  17.872  0.00  0.00    +0.000 C 
ATOM     27  C   UNL     1       8.080   6.609  18.697  0.00  0.00    +0.000 C 
ATOM     28  C   UNL     1       7.584   7.033  17.348  0.00  0.00    +0.000 C 
ENDBRANCH  22  26
ENDBRANCH   1  24
TORSDOF 3
ENDMDL
MODEL 2
REMARK VINA RESULT:      -8.5      3.004      3.983
REMARK  Name = 
REMARK  4 active torsions:
REMARK  status: ('A' for Active; 'I' for Inactive)
REMARK    1  A    between atoms: C_1  and  C_2
REMARK    2  A    between atoms: C_7  and  C_8
REMARK    3  A    between atoms: C_12  and  C_13
REMARK    4  A    between atoms: N_15  and  C_16
REMARK                            x       y       z     vdW  Elec       q    Type
REMARK                         _______ _______ _______ _____ _____    ______ ____
ROOT
ATOM      1  C   UNL     1       3.728   5.662  17.295  0.00  0.00    +0.000 C 
ATOM      2  O   UNL     1       2.757   4.953  17.546  0.00  0.00    +0.000 OA
ATOM      3  N   UNL     1       3.845   6.997  17.646  0.00  0.00    +0.000 N 
ATOM      4  H   UNL     1       4.507   7.558  17.124  0.00  0.00    +0.000 HD
ENDROOT
BRANCH   3   5
ATOM      5  C   UNL     1       2.817   7.696  18.326  0.00  0.00    +0.000 A 
ATOM      6  C   UNL     1       2.479   7.299  19.608  0.00  0.00    +0.000 A 
ATOM      7  C   UNL     1       1.529   8.031  20.326  0.00  0.00    +0.000 A 
ATOM      8  C   UNL     1       0.862   9.110  19.737  0.00  0.00    +0.000 A 
ATOM      9  N   UNL     1      -0.106   9.807  20.448  0.00  0.00    +0.000 N 
ATOM     10  C   UNL     1      -0.856  10.882  19.797  0.00  0.00    +0.000 C 
ATOM     11  C   UNL     1      -0.911  11.998  20.839  0.00  0.00    +0.000 C 
ATOM     12  C   UNL     1      -0.841  11.254  22.161  0.00  0.00    +0.000 C 
ATOM     13  C   UNL     1       0.121  10.108  21.862  0.00  0.00    +0.000 C 
ATOM     14  N   UNL     1       1.140   9.453  18.463  0.00  0.00    +0.000 NA
ATOM     15  C   UNL     1       2.121   8.775  17.800  0.00  0.00    +0.000 A 
ENDBRANCH   3   5
BRANCH   1  24
ATOM     16  C   UNL     1       6.208   5.174  19.680  0.00  0.00    +0.000 C 
ATOM     17  C   UNL     1       6.742   4.861  18.333  0.00  0.00    +0.000 A 
ATOM     18  N   UNL     1       8.028   4.493  18.229  0.00  0.00    +0.000 NA
ATOM     19  O   UNL     1       8.235   4.221  16.891  0.00  0.00    +0.000 OA
ATOM     20  C   UNL     1       7.082   4.416  16.200  0.00  0.00    +0.000 A 
ATOM     21  N   UNL     1       6.980   4.206  14.879  0.00  0.00    +0.000 NA
ATOM     22  C   UNL     1       5.771   4.450  14.342  0.00  0.00    +0.000 A 
ATOM     23  C   UNL     1       4.677   4.872  15.113  0.00  0.00    +0.000 A 
ATOM     24  C   UNL     1       4.828   5.090  16.495  0.00  0.00    +0.000 A 
ATOM     25  C   UNL     1       6.088   4.841  17.067  0.00  0.00    +0.000 A 
BRANCH  22  26
ATOM     26  C   UNL     1       5.664   4.238  12.847  0.00  0.00    +0.000 C 
ATOM     27  C   UNL     1       5.230   2.866  12.367  0.00  0.00    +0.000 C 
ATOM     28  C   UNL     1       6.610   3.362  12.065  0.00  0.00    +0.000 C 
ENDBRANCH  22  26
ENDBRANCH   1  24
TORSDOF 3
ENDMDL
MODEL 3
REMARK VINA RESULT:      -8.4      0.810      1.305
REMARK  Name = 
REMARK  4 active torsions:
REMARK  status: ('A' for Active; 'I' for Inactive)
REMARK    1  A    between atoms: C_1  and  C_2
REMARK    2  A    between atoms: C_7  and  C_8
REMARK    3  A    between atoms: C_12  and  C_13
REMARK    4  A    between atoms: N_15  and  C_16
REMARK                            x       y       z     vdW  Elec       q    Type
REMARK                         _______ _______ _______ _____ _____    ______ ____
ROOT
ATOM      1  C   UNL     1       2.491   6.933  19.269  0.00  0.00    +0.000 C 
ATOM      2  O   UNL     1       2.005   7.423  18.253  0.00  0.00    +0.000 OA
ATOM      3  N   UNL     1       2.250   7.384  20.557  0.00  0.00    +0.000 N 
ATOM      4  H   UNL     1       2.929   7.139  21.268  0.00  0.00    +0.000 HD
ENDROOT
BRANCH   3   5
ATOM      5  C   UNL     1       1.417   8.497  20.829  0.00  0.00    +0.000 A 
ATOM      6  C   UNL     1       1.066   9.334  19.785  0.00  0.00    +0.000 A 
ATOM      7  C   UNL     1       0.175  10.387  20.017  0.00  0.00    +0.000 A 
ATOM      8  C   UNL     1      -0.304  10.648  21.306  0.00  0.00    +0.000 A 
ATOM      9  N   UNL     1      -1.159  11.718  21.531  0.00  0.00    +0.000 N 
ATOM     10  C   UNL     1      -1.589  12.033  22.893  0.00  0.00    +0.000 C 
ATOM     11  C   UNL     1      -3.082  12.336  22.765  0.00  0.00    +0.000 C 
ATOM     12  C   UNL     1      -3.218  12.855  21.345  0.00  0.00    +0.000 C 
ATOM     13  C   UNL     1      -2.223  12.000  20.567  0.00  0.00    +0.000 C 
ATOM     14  N   UNL     1       0.095   9.875  22.336  0.00  0.00    +0.000 NA
ATOM     15  C   UNL     1       0.907   8.808  22.081  0.00  0.00    +0.000 A 
ENDBRANCH   3   5
BRANCH   1  24
ATOM     16  C   UNL     1       0.662   4.177  20.337  0.00  0.00    +0.000 C 
ATOM     17  C   UNL     1       2.065   3.776  20.077  0.00  0.00    +0.000 A 
ATOM     18  N   UNL     1       2.414   2.501  20.310  0.00  0.00    +0.000 NA
ATOM     19  O   UNL     1       3.742   2.402  19.942  0.00  0.00    +0.000 OA
ATOM     20  C   UNL     1       4.183   3.603  19.486  0.00  0.00    +0.000 A 
ATOM     21  N   UNL     1       5.432   3.799  19.040  0.00  0.00    +0.000 NA
ATOM     22  C   UNL     1       5.715   5.048  18.628  0.00  0.00    +0.000 A 
ATOM     23  C   UNL     1       4.760   6.076  18.638  0.00  0.00    +0.000 A 
ATOM     24  C   UNL     1       3.463   5.832  19.124  0.00  0.00    +0.000 A 
ATOM     25  C   UNL     1       3.157   4.532  19.561  0.00  0.00    +0.000 A 
BRANCH  22  26
ATOM     26  C   UNL     1       7.132   5.274  18.148  0.00  0.00    +0.000 C 
ATOM     27  C   UNL     1       8.117   5.864  19.139  0.00  0.00    +0.000 C 
ATOM     28  C   UNL     1       7.723   6.644  17.922  0.00  0.00    +0.000 C 
ENDBRANCH  22  26
ENDBRANCH   1  24
TORSDOF 3
ENDMDL
MODEL 4
REMARK VINA RESULT:      -8.3      1.203      1.213
REMARK  Name = 
REMARK  4 active torsions:
REMARK  status: ('A' for Active; 'I' for Inactive)
REMARK    1  A    between atoms: C_1  and  C_2
REMARK    2  A    between atoms: C_7  and  C_8
REMARK    3  A    between atoms: C_12  and  C_13
REMARK    4  A    between atoms: N_15  and  C_16
REMARK                            x       y       z     vdW  Elec       q    Type
REMARK                         _______ _______ _______ _____ _____    ______ ____
ROOT
ATOM      1  C   UNL     1       2.515   7.140  18.335  0.00  0.00    +0.000 C 
ATOM      2  O   UNL     1       1.746   7.523  17.457  0.00  0.00    +0.000 OA
ATOM      3  N   UNL     1       2.442   7.512  19.668  0.00  0.00    +0.000 N 
ATOM      4  H   UNL     1       3.285   7.414  20.223  0.00  0.00    +0.000 HD
ENDROOT
BRANCH   3   5
ATOM      5  C   UNL     1       1.463   8.413  20.152  0.00  0.00    +0.000 A 
ATOM      6  C   UNL     1       0.820   8.121  21.342  0.00  0.00    +0.000 A 
ATOM      7  C   UNL     1      -0.086   9.040  21.879  0.00  0.00    +0.000 A 
ATOM      8  C   UNL     1      -0.406  10.214  21.190  0.00  0.00    +0.000 A 
ATOM      9  N   UNL     1      -1.335  11.103  21.716  0.00  0.00    +0.000 N 
ATOM     10  C   UNL     1      -1.726  12.287  20.950  0.00  0.00    +0.000 C 
ATOM     11  C   UNL     1      -1.755  13.417  21.978  0.00  0.00    +0.000 C 
ATOM     12  C   UNL     1      -2.079  12.705  23.279  0.00  0.00    +0.000 C 
ATOM     13  C   UNL     1      -1.322  11.387  23.150  0.00  0.00    +0.000 C 
ATOM     14  N   UNL     1       0.166  10.466  19.995  0.00  0.00    +0.000 NA
ATOM     15  C   UNL     1       1.102   9.594  19.519  0.00  0.00    +0.000 A 
ENDBRANCH   3   5
BRANCH   1  24
ATOM     16  C   UNL     1       1.037   4.002  18.128  0.00  0.00    +0.000 C 
ATOM     17  C   UNL     1       2.501   3.878  17.935  0.00  0.00    +0.000 A 
ATOM     18  N   UNL     1       3.017   2.652  17.757  0.00  0.00    +0.000 NA
ATOM     19  O   UNL     1       4.371   2.838  17.559  0.00  0.00    +0.000 OA
ATOM     20  C   UNL     1       4.664   4.164  17.610  0.00  0.00    +0.000 A 
ATOM     21  N   UNL     1       5.903   4.644  17.430  0.00  0.00    +0.000 NA
ATOM     22  C   UNL     1       6.029   5.981  17.517  0.00  0.00    +0.000 A 
ATOM     23  C   UNL     1       4.933   6.824  17.756  0.00  0.00    +0.000 A 
ATOM     24  C   UNL     1       3.650   6.280  17.949  0.00  0.00    +0.000 A 
ATOM     25  C   UNL     1       3.507   4.884  17.864  0.00  0.00    +0.000 A 
BRANCH  22  26
ATOM     26  C   UNL     1       7.432   6.519  17.340  0.00  0.00    +0.000 C 
ATOM     27  C   UNL     1       8.169   6.970  18.587  0.00  0.00    +0.000 C 
ATOM     28  C   UNL     1       7.794   7.970  17.537  0.00  0.00    +0.000 C 
ENDBRANCH  22  26
ENDBRANCH   1  24
TORSDOF 3
ENDMDL
MODEL 5
REMARK VINA RESULT:      -8.2      1.727      2.193
REMARK  Name = 
REMARK  4 active torsions:
REMARK  status: ('A' for Active; 'I' for Inactive)
REMARK    1  A    between atoms: C_1  and  C_2
REMARK    2  A    between atoms: C_7  and  C_8
REMARK    3  A    between atoms: C_12  and  C_13
REMARK    4  A    between atoms: N_15  and  C_16
REMARK                            x       y       z     vdW  Elec       q    Type
REMARK                         _______ _______ _______ _____ _____    ______ ____
ROOT
ATOM      1  C   UNL     1       2.476   6.592  19.274  0.00  0.00    +0.000 C 
ATOM      2  O   UNL     1       2.273   6.286  20.447  0.00  0.00    +0.000 OA
ATOM      3  N   UNL     1       2.094   7.789  18.691  0.00  0.00    +0.000 N 
ATOM      4  H   UNL     1       2.010   7.807  17.681  0.00  0.00    +0.000 HD
ENDROOT
BRANCH   3   5
ATOM      5  C   UNL     1       1.393   8.791  19.405  0.00  0.00    +0.000 A 
ATOM      6  C   UNL     1       0.956   9.912  18.722  0.00  0.00    +0.000 A 
ATOM      7  C   UNL     1       0.187  10.870  19.391  0.00  0.00    +0.000 A 
ATOM      8  C   UNL     1      -0.079  10.745  20.759  0.00  0.00    +0.000 A 
ATOM      9  N   UNL     1      -0.813  11.721  21.421  0.00  0.00    +0.000 N 
ATOM     10  C   UNL     1      -1.016  11.624  22.866  0.00  0.00    +0.000 C 
ATOM     11  C   UNL     1      -2.485  11.991  23.073  0.00  0.00    +0.000 C 
ATOM     12  C   UNL     1      -2.788  12.915  21.908  0.00  0.00    +0.000 C 
ATOM     13  C   UNL     1      -1.981  12.307  20.765  0.00  0.00    +0.000 C 
ATOM     14  N   UNL     1       0.408   9.688  21.441  0.00  0.00    +0.000 NA
ATOM     15  C   UNL     1       1.094   8.727  20.759  0.00  0.00    +0.000 A 
ENDBRANCH   3   5
BRANCH   1  24
ATOM     16  C   UNL     1       0.817   3.665  20.147  0.00  0.00    +0.000 C 
ATOM     17  C   UNL     1       1.901   3.357  19.184  0.00  0.00    +0.000 A 
ATOM     18  N   UNL     1       2.097   2.075  18.838  0.00  0.00    +0.000 NA
ATOM     19  O   UNL     1       3.120   2.088  17.910  0.00  0.00    +0.000 OA
ATOM     20  C   UNL     1       3.527   3.366  17.695  0.00  0.00    +0.000 A 
ATOM     21  N   UNL     1       4.496   3.685  16.824  0.00  0.00    +0.000 NA
ATOM     22  C   UNL     1       4.788   4.995  16.731  0.00  0.00    +0.000 A 
ATOM     23  C   UNL     1       4.108   5.971  17.475  0.00  0.00    +0.000 A 
ATOM     24  C   UNL     1       3.104   5.594  18.386  0.00  0.00    +0.000 A 
ATOM     25  C   UNL     1       2.793   4.228  18.495  0.00  0.00    +0.000 A 
BRANCH  22  26
ATOM     26  C   UNL     1       5.898   5.351  15.767  0.00  0.00    +0.000 C 
ATOM     27  C   UNL     1       5.798   4.805  14.355  0.00  0.00    +0.000 C 
ATOM     28  C   UNL     1       6.905   4.350  15.256  0.00  0.00    +0.000 C 
ENDBRANCH  22  26
ENDBRANCH   1  24
TORSDOF 3
ENDMDL
MODEL 6
REMARK VINA RESULT:      -8.2      1.022      1.231
REMARK  Name = 
REMARK  4 active torsions:
REMARK  status: ('A' for Active; 'I' for Inactive)
REMARK    1  A    between atoms: C_1  and  C_2
REMARK    2  A    between atoms: C_7  and  C_8
REMARK    3  A    between atoms: C_12  and  C_13
REMARK    4  A    between atoms: N_15  and  C_16
REMARK                            x       y       z     vdW  Elec       q    Type
REMARK                         _______ _______ _______ _____ _____    ______ ____
ROOT
ATOM      1  C   UNL     1       2.332   6.833  18.732  0.00  0.00    +0.000 C 
ATOM      2  O   UNL     1       1.538   7.121  17.840  0.00  0.00    +0.000 OA
ATOM      3  N   UNL     1       2.339   7.396  19.998  0.00  0.00    +0.000 N 
ATOM      4  H   UNL     1       3.202   7.339  20.526  0.00  0.00    +0.000 HD
ENDROOT
BRANCH   3   5
ATOM      5  C   UNL     1       1.422   8.404  20.385  0.00  0.00    +0.000 A 
ATOM      6  C   UNL     1       0.615   8.180  21.486  0.00  0.00    +0.000 A 
ATOM      7  C   UNL     1      -0.234   9.197  21.935  0.00  0.00    +0.000 A 
ATOM      8  C   UNL     1      -0.332  10.406  21.239  0.00  0.00    +0.000 A 
ATOM      9  N   UNL     1      -1.204  11.395  21.673  0.00  0.00    +0.000 N 
ATOM     10  C   UNL     1      -1.361  12.623  20.893  0.00  0.00    +0.000 C 
ATOM     11  C   UNL     1      -1.378  13.741  21.935  0.00  0.00    +0.000 C 
ATOM     12  C   UNL     1      -1.934  13.063  23.175  0.00  0.00    +0.000 C 
ATOM     13  C   UNL     1      -1.327  11.665  23.105  0.00  0.00    +0.000 C 
ATOM     14  N   UNL     1       0.403  10.597  20.124  0.00  0.00    +0.000 NA
ATOM     15  C   UNL     1       1.279   9.624  19.740  0.00  0.00    +0.000 A 
ENDBRANCH   3   5
BRANCH   1  24
ATOM     16  C   UNL     1       1.629   4.212  20.903  0.00  0.00    +0.000 C 
ATOM     17  C   UNL     1       2.910   3.951  20.204  0.00  0.00    +0.000 A 
ATOM     18  N   UNL     1       3.587   2.835  20.513  0.00  0.00    +0.000 NA
ATOM     19  O   UNL     1       4.696   2.827  19.690  0.00  0.00    +0.000 OA
ATOM     20  C   UNL     1       4.680   3.923  18.889  0.00  0.00    +0.000 A 
ATOM     21  N   UNL     1       5.625   4.167  17.970  0.00  0.00    +0.000 NA
ATOM     22  C   UNL     1       5.469   5.300  17.260  0.00  0.00    +0.000 A 
ATOM     23  C   UNL     1       4.377   6.159  17.447  0.00  0.00    +0.000 A 
ATOM     24  C   UNL     1       3.411   5.872  18.429  0.00  0.00    +0.000 A 
ATOM     25  C   UNL     1       3.565   4.694  19.180  0.00  0.00    +0.000 A 
BRANCH  22  26
ATOM     26  C   UNL     1       6.551   5.587  16.241  0.00  0.00    +0.000 C 
ATOM     27  C   UNL     1       6.252   5.247  14.793  0.00  0.00    +0.000 C 
ATOM     28  C   UNL     1       7.327   4.507  15.528  0.00  0.00    +0.000 C 
ENDBRANCH  22  26
ENDBRANCH   1  24
TORSDOF 3
ENDMDL
MODEL 7
REMARK VINA RESULT:      -8.1      1.455      2.057
REMARK  Name = 
REMARK  4 active torsions:
REMARK  status: ('A' for Active; 'I' for Inactive)
REMARK    1  A    between atoms: C_1  and  C_2
REMARK    2  A    between atoms: C_7  and  C_8
REMARK    3  A    between atoms: C_12  and  C_13
REMARK    4  A    between atoms: N_15  and  C_16
REMARK                            x       y       z     vdW  Elec       q    Type
REMARK                         _______ _______ _______ _____ _____    ______ ____
ROOT
ATOM      1  C   UNL     1       2.421   6.674  18.519  0.00  0.00    +0.000 C 
ATOM      2  O   UNL     1       1.491   6.328  17.794  0.00  0.00    +0.000 OA
ATOM      3  N   UNL     1       2.463   7.856  19.241  0.00  0.00    +0.000 N 
ATOM      4  H   UNL     1       3.376   8.190  19.529  0.00  0.00    +0.000 HD
ENDROOT
BRANCH   3   5
ATOM      5  C   UNL     1       1.422   8.814  19.190  0.00  0.00    +0.000 A 
ATOM      6  C   UNL     1       0.917   9.183  17.956  0.00  0.00    +0.000 A 
ATOM      7  C   UNL     1      -0.169  10.061  17.892  0.00  0.00    +0.000 A 
ATOM      8  C   UNL     1      -0.700  10.628  19.055  0.00  0.00    +0.000 A 
ATOM      9  N   UNL     1      -1.756  11.527  18.976  0.00  0.00    +0.000 N 
ATOM     10  C   UNL     1      -2.251  12.178  20.189  0.00  0.00    +0.000 C 
ATOM     11  C   UNL     1      -3.773  12.129  20.058  0.00  0.00    +0.000 C 
ATOM     12  C   UNL     1      -4.000  12.123  18.556  0.00  0.00    +0.000 C 
ATOM     13  C   UNL     1      -2.847  11.271  18.036  0.00  0.00    +0.000 C 
ATOM     14  N   UNL     1      -0.163  10.324  20.253  0.00  0.00    +0.000 NA
ATOM     15  C   UNL     1       0.850   9.410  20.305  0.00  0.00    +0.000 A 
ENDBRANCH   3   5
BRANCH   1  24
ATOM     16  C   UNL     1       1.202   3.787  20.021  0.00  0.00    +0.000 C 
ATOM     17  C   UNL     1       2.671   3.681  19.855  0.00  0.00    +0.000 A 
ATOM     18  N   UNL     1       3.284   2.578  20.309  0.00  0.00    +0.000 NA
ATOM     19  O   UNL     1       4.618   2.727  19.983  0.00  0.00    +0.000 OA
ATOM     20  C   UNL     1       4.802   3.904  19.332  0.00  0.00    +0.000 A 
ATOM     21  N   UNL     1       5.997   4.305  18.876  0.00  0.00    +0.000 NA
ATOM     22  C   UNL     1       6.014   5.500  18.258  0.00  0.00    +0.000 A 
ATOM     23  C   UNL     1       4.855   6.269  18.077  0.00  0.00    +0.000 A 
ATOM     24  C   UNL     1       3.621   5.817  18.580  0.00  0.00    +0.000 A 
ATOM     25  C   UNL     1       3.591   4.572  19.231  0.00  0.00    +0.000 A 
BRANCH  22  26
ATOM     26  C   UNL     1       7.369   5.963  17.766  0.00  0.00    +0.000 C 
ATOM     27  C   UNL     1       8.169   6.872  18.680  0.00  0.00    +0.000 C 
ATOM     28  C   UNL     1       7.664   7.388  17.368  0.00  0.00    +0.000 C 
ENDBRANCH  22  26
ENDBRANCH   1  24
TORSDOF 3
ENDMDL
MODEL 8
REMARK VINA RESULT:      -8.1      1.301      1.808
REMARK  Name = 
REMARK  4 active torsions:
REMARK  status: ('A' for Active; 'I' for Inactive)
REMARK    1  A    between atoms: C_1  and  C_2
REMARK    2  A    between atoms: C_7  and  C_8
REMARK    3  A    between atoms: C_12  and  C_13
REMARK    4  A    between atoms: N_15  and  C_16
REMARK                            x       y       z     vdW  Elec       q    Type
REMARK                         _______ _______ _______ _____ _____    ______ ____
ROOT
ATOM      1  C   UNL     1       2.492   6.710  19.724  0.00  0.00    +0.000 C 
ATOM      2  O   UNL     1       1.798   6.510  20.717  0.00  0.00    +0.000 OA
ATOM      3  N   UNL     1       2.402   7.826  18.907  0.00  0.00    +0.000 N 
ATOM      4  H   UNL     1       2.768   7.742  17.966  0.00  0.00    +0.000 HD
ENDROOT
BRANCH   3   5
ATOM      5  C   UNL     1       1.458   8.858  19.134  0.00  0.00    +0.000 A 
ATOM      6  C   UNL     1       0.760   9.369  18.054  0.00  0.00    +0.000 A 
ATOM      7  C   UNL     1      -0.236  10.325  18.269  0.00  0.00    +0.000 A 
ATOM      8  C   UNL     1      -0.482  10.826  19.552  0.00  0.00    +0.000 A 
ATOM      9  N   UNL     1      -1.449  11.802  19.749  0.00  0.00    +0.000 N 
ATOM     10  C   UNL     1      -1.643  12.379  21.080  0.00  0.00    +0.000 C 
ATOM     11  C   UNL     1      -3.160  12.452  21.251  0.00  0.00    +0.000 C 
ATOM     12  C   UNL     1      -3.671  12.593  19.828  0.00  0.00    +0.000 C 
ATOM     13  C   UNL     1      -2.719  11.708  19.030  0.00  0.00    +0.000 C 
ATOM     14  N   UNL     1       0.248  10.380  20.595  0.00  0.00    +0.000 NA
ATOM     15  C   UNL     1       1.167   9.395  20.380  0.00  0.00    +0.000 A 
ENDBRANCH   3   5
BRANCH   1  24
ATOM     16  C   UNL     1       0.650   3.799  20.183  0.00  0.00    +0.000 C 
ATOM     17  C   UNL     1       2.041   3.455  19.806  0.00  0.00    +0.000 A 
ATOM     18  N   UNL     1       2.378   2.159  19.735  0.00  0.00    +0.000 NA
ATOM     19  O   UNL     1       3.697   2.134  19.323  0.00  0.00    +0.000 OA
ATOM     20  C   UNL     1       4.143   3.403  19.141  0.00  0.00    +0.000 A 
ATOM     21  N   UNL     1       5.385   3.685  18.721  0.00  0.00    +0.000 NA
ATOM     22  C   UNL     1       5.676   4.993  18.595  0.00  0.00    +0.000 A 
ATOM     23  C   UNL     1       4.736   5.999  18.861  0.00  0.00    +0.000 A 
ATOM     24  C   UNL     1       3.446   5.662  19.310  0.00  0.00    +0.000 A 
ATOM     25  C   UNL     1       3.132   4.300  19.448  0.00  0.00    +0.000 A 
BRANCH  22  26
ATOM     26  C   UNL     1       7.086   5.310  18.146  0.00  0.00    +0.000 C 
ATOM     27  C   UNL     1       7.971   6.072  19.113  0.00  0.00    +0.000 C 
ATOM     28  C   UNL     1       7.558   6.705  17.820  0.00  0.00    +0.000 C 
ENDBRANCH  22  26
ENDBRANCH   1  24
TORSDOF 3
ENDMDL
MODEL 9
REMARK VINA RESULT:      -8.0      2.208      2.400
REMARK  Name = 
REMARK  4 active torsions:
REMARK  status: ('A' for Active; 'I' for Inactive)
REMARK    1  A    between atoms: C_1  and  C_2
REMARK    2  A    between atoms: C_7  and  C_8
REMARK    3  A    between atoms: C_12  and  C_13
REMARK    4  A    between atoms: N_15  and  C_16
REMARK                            x       y       z     vdW  Elec       q    Type
REMARK                         _______ _______ _______ _____ _____    ______ ____
ROOT
ATOM      1  C   UNL     1       2.475   7.466  18.660  0.00  0.00    +0.000 C 
ATOM      2  O   UNL     1       2.254   7.529  19.867  0.00  0.00    +0.000 OA
ATOM      3  N   UNL     1       2.031   8.386  17.725  0.00  0.00    +0.000 N 
ATOM      4  H   UNL     1       1.982   8.080  16.760  0.00  0.00    +0.000 HD
ENDROOT
BRANCH   3   5
ATOM      5  C   UNL     1       1.237   9.504  18.079  0.00  0.00    +0.000 A 
ATOM      6  C   UNL     1      -0.137   9.415  17.941  0.00  0.00    +0.000 A 
ATOM      7  C   UNL     1      -0.942  10.475  18.366  0.00  0.00    +0.000 A 
ATOM      8  C   UNL     1      -0.372  11.654  18.858  0.00  0.00    +0.000 A 
ATOM      9  N   UNL     1      -1.180  12.715  19.244  0.00  0.00    +0.000 N 
ATOM     10  C   UNL     1      -0.573  13.973  19.679  0.00  0.00    +0.000 C 
ATOM     11  C   UNL     1      -1.387  14.390  20.904  0.00  0.00    +0.000 C 
ATOM     12  C   UNL     1      -2.752  13.775  20.649  0.00  0.00    +0.000 C 
ATOM     13  C   UNL     1      -2.413  12.445  19.983  0.00  0.00    +0.000 C 
ATOM     14  N   UNL     1       0.970  11.770  18.926  0.00  0.00    +0.000 NA
ATOM     15  C   UNL     1       1.740  10.699  18.574  0.00  0.00    +0.000 A 
ENDBRANCH   3   5
BRANCH   1  24
ATOM     16  C   UNL     1       1.135   4.865  20.536  0.00  0.00    +0.000 C 
ATOM     17  C   UNL     1       2.243   4.354  19.694  0.00  0.00    +0.000 A 
ATOM     18  N   UNL     1       2.572   3.058  19.795  0.00  0.00    +0.000 NA
ATOM     19  O   UNL     1       3.585   2.853  18.879  0.00  0.00    +0.000 OA
ATOM     20  C   UNL     1       3.856   4.015  18.228  0.00  0.00    +0.000 A 
ATOM     21  N   UNL     1       4.783   4.111  17.265  0.00  0.00    +0.000 NA
ATOM     22  C   UNL     1       4.936   5.333  16.722  0.00  0.00    +0.000 A 
ATOM     23  C   UNL     1       4.159   6.432  17.117  0.00  0.00    +0.000 A 
ATOM     24  C   UNL     1       3.203   6.292  18.140  0.00  0.00    +0.000 A 
ATOM     25  C   UNL     1       3.037   5.021  18.717  0.00  0.00    +0.000 A 
BRANCH  22  26
ATOM     26  C   UNL     1       6.001   5.446  15.653  0.00  0.00    +0.000 C 
ATOM     27  C   UNL     1       5.760   4.708  14.349  0.00  0.00    +0.000 C 
ATOM     28  C   UNL     1       6.889   4.297  15.243  0.00  0.00    +0.000 C 
ENDBRANCH  22  26
ENDBRANCH   1  24
TORSDOF 3
ENDMDL
