MODEL 1
REMARK VINA RESULT:      -9.2      0.000      0.000
REMARK  Name = 
REMARK  8 active torsions:
REMARK  status: ('A' for Active; 'I' for Inactive)
REMARK    1  A    between atoms: C_1  and  C_2
REMARK    2  A    between atoms: C_4  and  N_5
REMARK    3  A    between atoms: N_5  and  C_6
REMARK    4  A    between atoms: C_6  and  C_7
REMARK    5  A    between atoms: C_11  and  C_12
REMARK    6  A    between atoms: N_18  and  C_19
REMARK    7  A    between atoms: C_23  and  C_24
REMARK    8  A    between atoms: C_24  and  C_25
REMARK                            x       y       z     vdW  Elec       q    Type
REMARK                         _______ _______ _______ _____ _____    ______ ____
ROOT
ATOM      1  C   UNL     1      -0.085  11.343  19.202  0.00  0.00    +0.000 A 
ATOM      2  C   UNL     1       0.733  10.498  18.448  0.00  0.00    +0.000 A 
ATOM      3  C   UNL     1       1.218   9.362  19.061  0.00  0.00    +0.000 A 
ATOM      4  C   UNL     1       0.937   9.030  20.384  0.00  0.00    +0.000 A 
ATOM      5  C   UNL     1       0.151   9.863  21.169  0.00  0.00    +0.000 A 
ATOM      6  C   UNL     1      -0.361  11.026  20.553  0.00  0.00    +0.000 A 
ATOM      7  C   UNL     1       1.585   7.724  20.704  0.00  0.00    +0.000 C 
ATOM      8  N   UNL     1       2.279   7.381  19.472  0.00  0.00    +0.000 N 
ATOM      9  C   UNL     1       2.076   8.334  18.480  0.00  0.00    +0.000 C 
ATOM     10  O   UNL     1       2.470   8.391  17.329  0.00  0.00    +0.000 OA
ENDROOT
BRANCH   8  11
ATOM     11  C   UNL     1       3.125   6.256  19.376  0.00  0.00    +0.000 A 
ATOM     12  C   UNL     1       2.686   4.979  19.730  0.00  0.00    +0.000 A 
ATOM     13  C   UNL     1       3.516   3.876  19.563  0.00  0.00    +0.000 A 
ATOM     14  C   UNL     1       4.791   4.039  19.027  0.00  0.00    +0.000 A 
ATOM     15  C   UNL     1       5.282   5.303  18.651  0.00  0.00    +0.000 A 
ATOM     16  C   UNL     1       4.422   6.397  18.862  0.00  0.00    +0.000 A 
BRANCH  15  17
ATOM     17  C   UNL     1       6.695   5.490  17.950  0.00  0.00    +0.000 C 
ATOM     18  C   UNL     1       6.803   6.557  16.841  0.00  0.00    +0.000 C 
ATOM     19  O   UNL     1       7.557   5.654  15.998  0.00  0.00    +0.000 OA
ATOM     20  C   UNL     1       7.125   4.532  16.815  0.00  0.00    +0.000 C 
BRANCH  17  21
ATOM     21  C   UNL     1       7.786   5.630  19.010  0.00  0.00    +0.000 C 
ATOM     22  F   UNL     1       8.297   6.892  18.951  0.00  0.00    +0.000 F 
ENDBRANCH  17  21
ENDBRANCH  15  17
ENDBRANCH   8  11
BRANCH   5  23
ATOM     23  C   UNL     1      -0.163   9.572  22.611  0.00  0.00    +0.000 C 
ATOM     24  F   UNL     1      -0.912   8.449  22.794  0.00  0.00    +0.000 F 
ATOM     25  F   UNL     1       0.962   9.392  23.361  0.00  0.00    +0.000 F 
ATOM     26  F   UNL     1      -0.854  10.580  23.206  0.00  0.00    +0.000 F 
ENDBRANCH   5  23
BRANCH   1  27
ATOM     27  C   UNL     1      -0.654  12.587  18.565  0.00  0.00    +0.000 C 
BRANCH  27  28
ATOM     28  N   UNL     1      -1.573  12.232  17.509  0.00  0.00    +0.000 N 
ATOM     29  H   UNL     1      -1.247  12.279  16.545  0.00  0.00    +0.000 HD
BRANCH  28  33
ATOM     30  C   UNL     1      -4.780  10.282  17.997  0.00  0.00    +0.000 C 
ATOM     31  C   UNL     1      -3.337  10.597  17.800  0.00  0.00    +0.000 C 
ATOM     32  F   UNL     1      -2.454   9.573  17.742  0.00  0.00    +0.000 F 
ATOM     33  C   UNL     1      -2.878  11.850  17.679  0.00  0.00    +0.000 C 
ENDBRANCH  28  33
ENDBRANCH  27  28
ENDBRANCH   1  27
TORSDOF 7
ENDMDL
MODEL 2
REMARK VINA RESULT:      -8.9      0.918      1.329
REMARK  Name = 
REMARK  8 active torsions:
REMARK  status: ('A' for Active; 'I' for Inactive)
REMARK    1  A    between atoms: C_1  and  C_2
REMARK    2  A    between atoms: C_4  and  N_5
REMARK    3  A    between atoms: N_5  and  C_6
REMARK    4  A    between atoms: C_6  and  C_7
REMARK    5  A    between atoms: C_11  and  C_12
REMARK    6  A    between atoms: N_18  and  C_19
REMARK    7  A    between atoms: C_23  and  C_24
REMARK    8  A    between atoms: C_24  and  C_25
REMARK                            x       y       z     vdW  Elec       q    Type
REMARK                         _______ _______ _______ _____ _____    ______ ____
ROOT
ATOM      1  C   UNL     1      -0.333  11.343  19.206  0.00  0.00    +0.000 A 
ATOM      2  C   UNL     1       0.521  10.535  18.453  0.00  0.00    +0.000 A 
ATOM      3  C   UNL     1       1.058   9.423  19.067  0.00  0.00    +0.000 A 
ATOM      4  C   UNL     1       0.794   9.080  20.390  0.00  0.00    +0.000 A 
ATOM      5  C   UNL     1      -0.029   9.878  21.175  0.00  0.00    +0.000 A 
ATOM      6  C   UNL     1      -0.593  11.016  20.558  0.00  0.00    +0.000 A 
ATOM      7  C   UNL     1       1.500   7.805  20.712  0.00  0.00    +0.000 C 
ATOM      8  N   UNL     1       2.208   7.492  19.479  0.00  0.00    +0.000 N 
ATOM      9  C   UNL     1       1.961   8.434  18.486  0.00  0.00    +0.000 C 
ATOM     10  O   UNL     1       2.351   8.507  17.335  0.00  0.00    +0.000 OA
ENDROOT
BRANCH   8  11
ATOM     11  C   UNL     1       3.103   6.407  19.384  0.00  0.00    +0.000 A 
ATOM     12  C   UNL     1       2.791   5.152  19.911  0.00  0.00    +0.000 A 
ATOM     13  C   UNL     1       3.661   4.080  19.745  0.00  0.00    +0.000 A 
ATOM     14  C   UNL     1       4.849   4.250  19.039  0.00  0.00    +0.000 A 
ATOM     15  C   UNL     1       5.211   5.492  18.485  0.00  0.00    +0.000 A 
ATOM     16  C   UNL     1       4.317   6.558  18.699  0.00  0.00    +0.000 A 
BRANCH  15  17
ATOM     17  C   UNL     1       6.515   5.677  17.596  0.00  0.00    +0.000 C 
ATOM     18  C   UNL     1       7.629   6.589  18.150  0.00  0.00    +0.000 C 
ATOM     19  O   UNL     1       7.801   7.220  16.859  0.00  0.00    +0.000 OA
ATOM     20  C   UNL     1       6.516   6.694  16.432  0.00  0.00    +0.000 C 
BRANCH  17  21
ATOM     21  C   UNL     1       7.037   4.312  17.151  0.00  0.00    +0.000 C 
ATOM     22  F   UNL     1       8.270   4.115  17.697  0.00  0.00    +0.000 F 
ENDBRANCH  17  21
ENDBRANCH  15  17
ENDBRANCH   8  11
BRANCH   5  23
ATOM     23  C   UNL     1      -0.328   9.575  22.618  0.00  0.00    +0.000 C 
ATOM     24  F   UNL     1       0.783   9.445  23.394  0.00  0.00    +0.000 F 
ATOM     25  F   UNL     1      -1.080  10.549  23.207  0.00  0.00    +0.000 F 
ATOM     26  F   UNL     1      -1.026   8.418  22.772  0.00  0.00    +0.000 F 
ENDBRANCH   5  23
BRANCH   1  27
ATOM     27  C   UNL     1      -0.958  12.559  18.568  0.00  0.00    +0.000 C 
BRANCH  27  28
ATOM     28  N   UNL     1      -2.252  12.226  18.017  0.00  0.00    +0.000 N 
ATOM     29  H   UNL     1      -3.082  12.430  18.569  0.00  0.00    +0.000 HD
BRANCH  28  33
ATOM     30  C   UNL     1      -2.967   9.778  15.220  0.00  0.00    +0.000 C 
ATOM     31  C   UNL     1      -2.724  10.332  16.582  0.00  0.00    +0.000 C 
ATOM     32  F   UNL     1      -2.762   9.487  17.639  0.00  0.00    +0.000 F 
ATOM     33  C   UNL     1      -2.473  11.629  16.804  0.00  0.00    +0.000 C 
ENDBRANCH  28  33
ENDBRANCH  27  28
ENDBRANCH   1  27
TORSDOF 7
ENDMDL
MODEL 3
REMARK VINA RESULT:      -8.9      1.203      1.586
REMARK  Name = 
REMARK  8 active torsions:
REMARK  status: ('A' for Active; 'I' for Inactive)
REMARK    1  A    between atoms: C_1  and  C_2
REMARK    2  A    between atoms: C_4  and  N_5
REMARK    3  A    between atoms: N_5  and  C_6
REMARK    4  A    between atoms: C_6  and  C_7
REMARK    5  A    between atoms: C_11  and  C_12
REMARK    6  A    between atoms: N_18  and  C_19
REMARK    7  A    between atoms: C_23  and  C_24
REMARK    8  A    between atoms: C_24  and  C_25
REMARK                            x       y       z     vdW  Elec       q    Type
REMARK                         _______ _______ _______ _____ _____    ______ ____
ROOT
ATOM      1  C   UNL     1      -0.038  11.593  19.396  0.00  0.00    +0.000 A 
ATOM      2  C   UNL     1       0.744  10.764  18.587  0.00  0.00    +0.000 A 
ATOM      3  C   UNL     1       1.188   9.576  19.128  0.00  0.00    +0.000 A 
ATOM      4  C   UNL     1       0.901   9.175  20.430  0.00  0.00    +0.000 A 
ATOM      5  C   UNL     1       0.151   9.989  21.270  0.00  0.00    +0.000 A 
ATOM      6  C   UNL     1      -0.319  11.206  20.728  0.00  0.00    +0.000 A 
ATOM      7  C   UNL     1       1.499   7.828  20.667  0.00  0.00    +0.000 C 
ATOM      8  N   UNL     1       2.174   7.534  19.411  0.00  0.00    +0.000 N 
ATOM      9  C   UNL     1       2.003   8.552  18.480  0.00  0.00    +0.000 C 
ATOM     10  O   UNL     1       2.393   8.664  17.332  0.00  0.00    +0.000 OA
ENDROOT
BRANCH   8  11
ATOM     11  C   UNL     1       2.975   6.386  19.242  0.00  0.00    +0.000 A 
ATOM     12  C   UNL     1       2.736   5.215  19.963  0.00  0.00    +0.000 A 
ATOM     13  C   UNL     1       3.497   4.074  19.729  0.00  0.00    +0.000 A 
ATOM     14  C   UNL     1       4.499   4.092  18.762  0.00  0.00    +0.000 A 
ATOM     15  C   UNL     1       4.780   5.244  18.006  0.00  0.00    +0.000 A 
ATOM     16  C   UNL     1       4.006   6.385  18.292  0.00  0.00    +0.000 A 
BRANCH  15  17
ATOM     17  C   UNL     1       5.853   5.250  16.835  0.00  0.00    +0.000 C 
ATOM     18  C   UNL     1       6.451   3.891  16.413  0.00  0.00    +0.000 C 
ATOM     19  O   UNL     1       7.784   4.454  16.367  0.00  0.00    +0.000 OA
ATOM     20  C   UNL     1       7.328   5.594  17.144  0.00  0.00    +0.000 C 
BRANCH  17  21
ATOM     21  C   UNL     1       5.324   6.054  15.649  0.00  0.00    +0.000 C 
ATOM     22  F   UNL     1       5.472   5.314  14.515  0.00  0.00    +0.000 F 
ENDBRANCH  17  21
ENDBRANCH  15  17
ENDBRANCH   8  11
BRANCH   5  23
ATOM     23  C   UNL     1      -0.168   9.624  22.693  0.00  0.00    +0.000 C 
ATOM     24  F   UNL     1       0.933   9.362  23.453  0.00  0.00    +0.000 F 
ATOM     25  F   UNL     1      -0.840  10.616  23.346  0.00  0.00    +0.000 F 
ATOM     26  F   UNL     1      -0.952   8.517  22.783  0.00  0.00    +0.000 F 
ENDBRANCH   5  23
BRANCH   1  27
ATOM     27  C   UNL     1      -0.561  12.894  18.839  0.00  0.00    +0.000 C 
BRANCH  27  28
ATOM     28  N   UNL     1      -1.538  12.638  17.805  0.00  0.00    +0.000 N 
ATOM     29  H   UNL     1      -1.449  13.133  16.920  0.00  0.00    +0.000 HD
BRANCH  28  33
ATOM     30  C   UNL     1      -3.932   9.718  17.543  0.00  0.00    +0.000 C 
ATOM     31  C   UNL     1      -2.727  10.575  17.359  0.00  0.00    +0.000 C 
ATOM     32  F   UNL     1      -1.707  10.102  16.604  0.00  0.00    +0.000 F 
ATOM     33  C   UNL     1      -2.609  11.790  17.910  0.00  0.00    +0.000 C 
ENDBRANCH  28  33
ENDBRANCH  27  28
ENDBRANCH   1  27
TORSDOF 7
ENDMDL
MODEL 4
REMARK VINA RESULT:      -8.8      1.016      1.425
REMARK  Name = 
REMARK  8 active torsions:
REMARK  status: ('A' for Active; 'I' for Inactive)
REMARK    1  A    between atoms: C_1  and  C_2
REMARK    2  A    between atoms: C_4  and  N_5
REMARK    3  A    between atoms: N_5  and  C_6
REMARK    4  A    between atoms: C_6  and  C_7
REMARK    5  A    between atoms: C_11  and  C_12
REMARK    6  A    between atoms: N_18  and  C_19
REMARK    7  A    between atoms: C_23  and  C_24
REMARK    8  A    between atoms: C_24  and  C_25
REMARK                            x       y       z     vdW  Elec       q    Type
REMARK                         _______ _______ _______ _____ _____    ______ ____
ROOT
ATOM      1  C   UNL     1       0.078  11.502  19.236  0.00  0.00    +0.000 A 
ATOM      2  C   UNL     1       0.859  10.681  18.419  0.00  0.00    +0.000 A 
ATOM      3  C   UNL     1       1.299   9.485  18.946  0.00  0.00    +0.000 A 
ATOM      4  C   UNL     1       1.007   9.069  20.242  0.00  0.00    +0.000 A 
ATOM      5  C   UNL     1       0.257   9.875  21.090  0.00  0.00    +0.000 A 
ATOM      6  C   UNL     1      -0.208  11.100  20.562  0.00  0.00    +0.000 A 
ATOM      7  C   UNL     1       1.601   7.718  20.464  0.00  0.00    +0.000 C 
ATOM      8  N   UNL     1       2.278   7.437  19.206  0.00  0.00    +0.000 N 
ATOM      9  C   UNL     1       2.112   8.468  18.287  0.00  0.00    +0.000 C 
ATOM     10  O   UNL     1       2.506   8.593  17.142  0.00  0.00    +0.000 OA
ENDROOT
BRANCH   8  11
ATOM     11  C   UNL     1       3.077   6.289  19.025  0.00  0.00    +0.000 A 
ATOM     12  C   UNL     1       2.516   5.013  18.956  0.00  0.00    +0.000 A 
ATOM     13  C   UNL     1       3.317   3.903  18.709  0.00  0.00    +0.000 A 
ATOM     14  C   UNL     1       4.687   4.062  18.516  0.00  0.00    +0.000 A 
ATOM     15  C   UNL     1       5.303   5.326  18.573  0.00  0.00    +0.000 A 
ATOM     16  C   UNL     1       4.462   6.420  18.853  0.00  0.00    +0.000 A 
BRANCH  15  17
ATOM     17  C   UNL     1       6.846   5.533  18.260  0.00  0.00    +0.000 C 
ATOM     18  C   UNL     1       7.783   5.803  19.456  0.00  0.00    +0.000 C 
ATOM     19  O   UNL     1       8.459   6.858  18.731  0.00  0.00    +0.000 OA
ATOM     20  C   UNL     1       7.358   6.912  17.785  0.00  0.00    +0.000 C 
BRANCH  17  21
ATOM     21  C   UNL     1       7.349   4.406  17.361  0.00  0.00    +0.000 C 
ATOM     22  F   UNL     1       7.088   4.730  16.063  0.00  0.00    +0.000 F 
ENDBRANCH  17  21
ENDBRANCH  15  17
ENDBRANCH   8  11
BRANCH   5  23
ATOM     23  C   UNL     1      -0.066   9.493  22.508  0.00  0.00    +0.000 C 
ATOM     24  F   UNL     1      -0.739  10.457  23.197  0.00  0.00    +0.000 F 
ATOM     25  F   UNL     1      -0.844   8.375  22.580  0.00  0.00    +0.000 F 
ATOM     26  F   UNL     1       1.048   9.223  23.240  0.00  0.00    +0.000 F 
ENDBRANCH   5  23
BRANCH   1  27
ATOM     27  C   UNL     1      -0.440  12.812  18.694  0.00  0.00    +0.000 C 
BRANCH  27  28
ATOM     28  N   UNL     1      -1.443  12.571  17.682  0.00  0.00    +0.000 N 
ATOM     29  H   UNL     1      -1.352  13.046  16.786  0.00  0.00    +0.000 HD
BRANCH  28  33
ATOM     30  C   UNL     1      -3.929   9.720  17.550  0.00  0.00    +0.000 C 
ATOM     31  C   UNL     1      -2.696  10.527  17.332  0.00  0.00    +0.000 C 
ATOM     32  F   UNL     1      -1.687   9.984  16.610  0.00  0.00    +0.000 F 
ATOM     33  C   UNL     1      -2.542  11.764  17.821  0.00  0.00    +0.000 C 
ENDBRANCH  28  33
ENDBRANCH  27  28
ENDBRANCH   1  27
TORSDOF 7
ENDMDL
MODEL 5
REMARK VINA RESULT:      -8.8      2.737      8.384
REMARK  Name = 
REMARK  8 active torsions:
REMARK  status: ('A' for Active; 'I' for Inactive)
REMARK    1  A    between atoms: C_1  and  C_2
REMARK    2  A    between atoms: C_4  and  N_5
REMARK    3  A    between atoms: N_5  and  C_6
REMARK    4  A    between atoms: C_6  and  C_7
REMARK    5  A    between atoms: C_11  and  C_12
REMARK    6  A    between atoms: N_18  and  C_19
REMARK    7  A    between atoms: C_23  and  C_24
REMARK    8  A    between atoms: C_24  and  C_25
REMARK                            x       y       z     vdW  Elec       q    Type
REMARK                         _______ _______ _______ _____ _____    ______ ____
ROOT
ATOM      1  C   UNL     1       3.888   4.667  17.784  0.00  0.00    +0.000 A 
ATOM      2  C   UNL     1       3.540   6.019  17.737  0.00  0.00    +0.000 A 
ATOM      3  C   UNL     1       2.750   6.512  18.754  0.00  0.00    +0.000 A 
ATOM      4  C   UNL     1       2.286   5.730  19.808  0.00  0.00    +0.000 A 
ATOM      5  C   UNL     1       2.590   4.376  19.869  0.00  0.00    +0.000 A 
ATOM      6  C   UNL     1       3.405   3.857  18.839  0.00  0.00    +0.000 A 
ATOM      7  C   UNL     1       1.501   6.589  20.742  0.00  0.00    +0.000 C 
ATOM      8  N   UNL     1       1.532   7.897  20.103  0.00  0.00    +0.000 N 
ATOM      9  C   UNL     1       2.269   7.880  18.924  0.00  0.00    +0.000 C 
ATOM     10  O   UNL     1       2.534   8.764  18.130  0.00  0.00    +0.000 OA
ENDROOT
BRANCH   8  11
ATOM     11  C   UNL     1       0.805   8.995  20.607  0.00  0.00    +0.000 A 
ATOM     12  C   UNL     1       0.546   9.137  21.971  0.00  0.00    +0.000 A 
ATOM     13  C   UNL     1      -0.115  10.263  22.451  0.00  0.00    +0.000 A 
ATOM     14  C   UNL     1      -0.514  11.264  21.569  0.00  0.00    +0.000 A 
ATOM     15  C   UNL     1      -0.277  11.172  20.185  0.00  0.00    +0.000 A 
ATOM     16  C   UNL     1       0.370  10.005  19.737  0.00  0.00    +0.000 A 
BRANCH  15  17
ATOM     17  C   UNL     1      -0.640  12.349  19.182  0.00  0.00    +0.000 C 
ATOM     18  C   UNL     1       0.530  13.114  18.531  0.00  0.00    +0.000 C 
ATOM     19  O   UNL     1      -0.120  14.385  18.774  0.00  0.00    +0.000 OA
ATOM     20  C   UNL     1      -1.003  13.747  19.735  0.00  0.00    +0.000 C 
BRANCH  17  21
ATOM     21  C   UNL     1      -1.667  11.864  18.162  0.00  0.00    +0.000 C 
ATOM     22  F   UNL     1      -2.570  11.062  18.795  0.00  0.00    +0.000 F 
ENDBRANCH  17  21
ENDBRANCH  15  17
ENDBRANCH   8  11
BRANCH   5  23
ATOM     23  C   UNL     1       2.094   3.474  20.966  0.00  0.00    +0.000 C 
ATOM     24  F   UNL     1       0.740   3.337  20.994  0.00  0.00    +0.000 F 
ATOM     25  F   UNL     1       2.593   2.208  20.862  0.00  0.00    +0.000 F 
ATOM     26  F   UNL     1       2.448   3.916  22.202  0.00  0.00    +0.000 F 
ENDBRANCH   5  23
BRANCH   1  27
ATOM     27  C   UNL     1       4.766   4.088  16.702  0.00  0.00    +0.000 C 
BRANCH  27  28
ATOM     28  N   UNL     1       6.134   4.003  17.161  0.00  0.00    +0.000 N 
ATOM     29  H   UNL     1       6.516   3.086  17.382  0.00  0.00    +0.000 HD
BRANCH  28  33
ATOM     30  C   UNL     1       8.123   6.886  18.596  0.00  0.00    +0.000 C 
ATOM     31  C   UNL     1       7.164   5.751  18.486  0.00  0.00    +0.000 C 
ATOM     32  F   UNL     1       6.450   5.398  19.580  0.00  0.00    +0.000 F 
ATOM     33  C   UNL     1       6.980   5.064  17.351  0.00  0.00    +0.000 C 
ENDBRANCH  28  33
ENDBRANCH  27  28
ENDBRANCH   1  27
TORSDOF 7
ENDMDL
MODEL 6
REMARK VINA RESULT:      -8.7      2.004      2.881
REMARK  Name = 
REMARK  8 active torsions:
REMARK  status: ('A' for Active; 'I' for Inactive)
REMARK    1  A    between atoms: C_1  and  C_2
REMARK    2  A    between atoms: C_4  and  N_5
REMARK    3  A    between atoms: N_5  and  C_6
REMARK    4  A    between atoms: C_6  and  C_7
REMARK    5  A    between atoms: C_11  and  C_12
REMARK    6  A    between atoms: N_18  and  C_19
REMARK    7  A    between atoms: C_23  and  C_24
REMARK    8  A    between atoms: C_24  and  C_25
REMARK                            x       y       z     vdW  Elec       q    Type
REMARK                         _______ _______ _______ _____ _____    ______ ____
ROOT
ATOM      1  C   UNL     1       0.230  11.850  19.538  0.00  0.00    +0.000 A 
ATOM      2  C   UNL     1       0.925  11.068  18.613  0.00  0.00    +0.000 A 
ATOM      3  C   UNL     1       1.299   9.798  19.001  0.00  0.00    +0.000 A 
ATOM      4  C   UNL     1       1.023   9.273  20.261  0.00  0.00    +0.000 A 
ATOM      5  C   UNL     1       0.358  10.035  21.213  0.00  0.00    +0.000 A 
ATOM      6  C   UNL     1      -0.039  11.334  20.828  0.00  0.00    +0.000 A 
ATOM      7  C   UNL     1       1.530   7.871  20.324  0.00  0.00    +0.000 C 
ATOM      8  N   UNL     1       2.144   7.675  19.019  0.00  0.00    +0.000 N 
ATOM      9  C   UNL     1       2.019   8.802  18.214  0.00  0.00    +0.000 C 
ATOM     10  O   UNL     1       2.382   9.017  17.071  0.00  0.00    +0.000 OA
ENDROOT
BRANCH   8  11
ATOM     11  C   UNL     1       2.856   6.502  18.693  0.00  0.00    +0.000 A 
ATOM     12  C   UNL     1       2.246   5.247  18.719  0.00  0.00    +0.000 A 
ATOM     13  C   UNL     1       2.950   4.112  18.328  0.00  0.00    +0.000 A 
ATOM     14  C   UNL     1       4.269   4.226  17.896  0.00  0.00    +0.000 A 
ATOM     15  C   UNL     1       4.930   5.467  17.849  0.00  0.00    +0.000 A 
ATOM     16  C   UNL     1       4.192   6.586  18.279  0.00  0.00    +0.000 A 
BRANCH  15  17
ATOM     17  C   UNL     1       6.401   5.623  17.269  0.00  0.00    +0.000 C 
ATOM     18  C   UNL     1       6.689   4.998  15.888  0.00  0.00    +0.000 C 
ATOM     19  O   UNL     1       7.945   4.454  16.359  0.00  0.00    +0.000 OA
ATOM     20  C   UNL     1       7.518   4.660  17.732  0.00  0.00    +0.000 C 
BRANCH  17  21
ATOM     21  C   UNL     1       6.842   7.082  17.359  0.00  0.00    +0.000 C 
ATOM     22  F   UNL     1       7.834   7.184  18.289  0.00  0.00    +0.000 F 
ENDBRANCH  17  21
ENDBRANCH  15  17
ENDBRANCH   8  11
BRANCH   5  23
ATOM     23  C   UNL     1       0.056   9.533  22.598  0.00  0.00    +0.000 C 
ATOM     24  F   UNL     1      -0.765   8.447  22.622  0.00  0.00    +0.000 F 
ATOM     25  F   UNL     1       1.183   9.160  23.271  0.00  0.00    +0.000 F 
ATOM     26  F   UNL     1      -0.548  10.473  23.372  0.00  0.00    +0.000 F 
ENDBRANCH   5  23
BRANCH   1  27
ATOM     27  C   UNL     1      -0.216  13.239  19.149  0.00  0.00    +0.000 C 
BRANCH  27  28
ATOM     28  N   UNL     1       0.731  14.219  19.629  0.00  0.00    +0.000 N 
ATOM     29  H   UNL     1       0.810  14.367  20.633  0.00  0.00    +0.000 HD
BRANCH  28  33
ATOM     30  C   UNL     1       3.509  15.575  17.445  0.00  0.00    +0.000 C 
ATOM     31  C   UNL     1       2.709  14.652  18.298  0.00  0.00    +0.000 C 
ATOM     32  F   UNL     1       3.186  13.407  18.528  0.00  0.00    +0.000 F 
ATOM     33  C   UNL     1       1.537  15.002  18.845  0.00  0.00    +0.000 C 
ENDBRANCH  28  33
ENDBRANCH  27  28
ENDBRANCH   1  27
TORSDOF 7
ENDMDL
MODEL 7
REMARK VINA RESULT:      -8.6      2.849      8.491
REMARK  Name = 
REMARK  8 active torsions:
REMARK  status: ('A' for Active; 'I' for Inactive)
REMARK    1  A    between atoms: C_1  and  C_2
REMARK    2  A    between atoms: C_4  and  N_5
REMARK    3  A    between atoms: N_5  and  C_6
REMARK    4  A    between atoms: C_6  and  C_7
REMARK    5  A    between atoms: C_11  and  C_12
REMARK    6  A    between atoms: N_18  and  C_19
REMARK    7  A    between atoms: C_23  and  C_24
REMARK    8  A    between atoms: C_24  and  C_25
REMARK                            x       y       z     vdW  Elec       q    Type
REMARK                         _______ _______ _______ _____ _____    ______ ____
ROOT
ATOM      1  C   UNL     1       3.816   4.674  17.690  0.00  0.00    +0.000 A 
ATOM      2  C   UNL     1       3.466   6.024  17.763  0.00  0.00    +0.000 A 
ATOM      3  C   UNL     1       2.692   6.429  18.830  0.00  0.00    +0.000 A 
ATOM      4  C   UNL     1       2.242   5.559  19.820  0.00  0.00    +0.000 A 
ATOM      5  C   UNL     1       2.548   4.205  19.762  0.00  0.00    +0.000 A 
ATOM      6  C   UNL     1       3.348   3.776  18.680  0.00  0.00    +0.000 A 
ATOM      7  C   UNL     1       1.471   6.335  20.835  0.00  0.00    +0.000 C 
ATOM      8  N   UNL     1       1.493   7.692  20.309  0.00  0.00    +0.000 N 
ATOM      9  C   UNL     1       2.212   7.776  19.122  0.00  0.00    +0.000 C 
ATOM     10  O   UNL     1       2.466   8.726  18.403  0.00  0.00    +0.000 OA
ENDROOT
BRANCH   8  11
ATOM     11  C   UNL     1       0.773   8.743  20.914  0.00  0.00    +0.000 A 
ATOM     12  C   UNL     1       0.809   8.954  22.294  0.00  0.00    +0.000 A 
ATOM     13  C   UNL     1       0.144  10.037  22.859  0.00  0.00    +0.000 A 
ATOM     14  C   UNL     1      -0.555  10.927  22.047  0.00  0.00    +0.000 A 
ATOM     15  C   UNL     1      -0.621  10.761  20.651  0.00  0.00    +0.000 A 
ATOM     16  C   UNL     1       0.041   9.638  20.121  0.00  0.00    +0.000 A 
BRANCH  15  17
ATOM     17  C   UNL     1      -1.333  11.820  19.705  0.00  0.00    +0.000 C 
ATOM     18  C   UNL     1      -2.224  11.273  18.570  0.00  0.00    +0.000 C 
ATOM     19  O   UNL     1      -1.660  12.214  17.626  0.00  0.00    +0.000 OA
ATOM     20  C   UNL     1      -0.549  12.454  18.533  0.00  0.00    +0.000 C 
BRANCH  17  21
ATOM     21  C   UNL     1      -2.038  12.880  20.548  0.00  0.00    +0.000 C 
ATOM     22  F   UNL     1      -3.352  12.539  20.673  0.00  0.00    +0.000 F 
ENDBRANCH  17  21
ENDBRANCH  15  17
ENDBRANCH   8  11
BRANCH   5  23
ATOM     23  C   UNL     1       2.068   3.213  20.785  0.00  0.00    +0.000 C 
ATOM     24  F   UNL     1       0.711   3.124  20.871  0.00  0.00    +0.000 F 
ATOM     25  F   UNL     1       2.506   1.947  20.526  0.00  0.00    +0.000 F 
ATOM     26  F   UNL     1       2.500   3.510  22.039  0.00  0.00    +0.000 F 
ENDBRANCH   5  23
BRANCH   1  27
ATOM     27  C   UNL     1       4.679   4.190  16.551  0.00  0.00    +0.000 C 
BRANCH  27  28
ATOM     28  N   UNL     1       6.017   3.913  17.020  0.00  0.00    +0.000 N 
ATOM     29  H   UNL     1       6.481   3.069  16.691  0.00  0.00    +0.000 HD
BRANCH  28  33
ATOM     30  C   UNL     1       8.012   6.655  18.700  0.00  0.00    +0.000 C 
ATOM     31  C   UNL     1       7.261   5.888  17.667  0.00  0.00    +0.000 C 
ATOM     32  F   UNL     1       7.109   6.437  16.439  0.00  0.00    +0.000 F 
ATOM     33  C   UNL     1       6.730   4.681  17.902  0.00  0.00    +0.000 C 
ENDBRANCH  28  33
ENDBRANCH  27  28
ENDBRANCH   1  27
TORSDOF 7
ENDMDL
MODEL 8
REMARK VINA RESULT:      -8.6      1.223      1.596
REMARK  Name = 
REMARK  8 active torsions:
REMARK  status: ('A' for Active; 'I' for Inactive)
REMARK    1  A    between atoms: C_1  and  C_2
REMARK    2  A    between atoms: C_4  and  N_5
REMARK    3  A    between atoms: N_5  and  C_6
REMARK    4  A    between atoms: C_6  and  C_7
REMARK    5  A    between atoms: C_11  and  C_12
REMARK    6  A    between atoms: N_18  and  C_19
REMARK    7  A    between atoms: C_23  and  C_24
REMARK    8  A    between atoms: C_24  and  C_25
REMARK                            x       y       z     vdW  Elec       q    Type
REMARK                         _______ _______ _______ _____ _____    ______ ____
ROOT
ATOM      1  C   UNL     1      -0.391  11.448  19.334  0.00  0.00    +0.000 A 
ATOM      2  C   UNL     1       0.410  10.610  18.555  0.00  0.00    +0.000 A 
ATOM      3  C   UNL     1       0.929   9.481  19.154  0.00  0.00    +0.000 A 
ATOM      4  C   UNL     1       0.698   9.150  20.487  0.00  0.00    +0.000 A 
ATOM      5  C   UNL     1      -0.070   9.977  21.296  0.00  0.00    +0.000 A 
ATOM      6  C   UNL     1      -0.617  11.132  20.695  0.00  0.00    +0.000 A 
ATOM      7  C   UNL     1       1.371   7.852  20.788  0.00  0.00    +0.000 C 
ATOM      8  N   UNL     1       2.027   7.513  19.534  0.00  0.00    +0.000 N 
ATOM      9  C   UNL     1       1.779   8.461  18.547  0.00  0.00    +0.000 C 
ATOM     10  O   UNL     1       2.132   8.520  17.383  0.00  0.00    +0.000 OA
ENDROOT
BRANCH   8  11
ATOM     11  C   UNL     1       2.881   6.398  19.412  0.00  0.00    +0.000 A 
ATOM     12  C   UNL     1       2.575   5.174  20.009  0.00  0.00    +0.000 A 
ATOM     13  C   UNL     1       3.400   4.070  19.818  0.00  0.00    +0.000 A 
ATOM     14  C   UNL     1       4.534   4.178  19.017  0.00  0.00    +0.000 A 
ATOM     15  C   UNL     1       4.886   5.387  18.389  0.00  0.00    +0.000 A 
ATOM     16  C   UNL     1       4.042   6.487  18.630  0.00  0.00    +0.000 A 
BRANCH  15  17
ATOM     17  C   UNL     1       6.122   5.499  17.397  0.00  0.00    +0.000 C 
ATOM     18  C   UNL     1       6.520   4.231  16.614  0.00  0.00    +0.000 C 
ATOM     19  O   UNL     1       7.923   4.463  16.886  0.00  0.00    +0.000 OA
ATOM     20  C   UNL     1       7.563   5.389  17.946  0.00  0.00    +0.000 C 
BRANCH  17  21
ATOM     21  C   UNL     1       5.955   6.720  16.495  0.00  0.00    +0.000 C 
ATOM     22  F   UNL     1       5.063   6.420  15.509  0.00  0.00    +0.000 F 
ENDBRANCH  17  21
ENDBRANCH  15  17
ENDBRANCH   8  11
BRANCH   5  23
ATOM     23  C   UNL     1      -0.332   9.686  22.749  0.00  0.00    +0.000 C 
ATOM     24  F   UNL     1      -1.045  10.658  23.383  0.00  0.00    +0.000 F 
ATOM     25  F   UNL     1      -1.037   8.532  22.929  0.00  0.00    +0.000 F 
ATOM     26  F   UNL     1       0.815   9.540  23.464  0.00  0.00    +0.000 F 
ENDBRANCH   5  23
BRANCH   1  27
ATOM     27  C   UNL     1      -0.996  12.683  18.714  0.00  0.00    +0.000 C 
BRANCH  27  28
ATOM     28  N   UNL     1      -2.199  12.342  17.991  0.00  0.00    +0.000 N 
ATOM     29  H   UNL     1      -3.094  12.651  18.364  0.00  0.00    +0.000 HD
BRANCH  28  33
ATOM     30  C   UNL     1      -3.281  10.179  15.079  0.00  0.00    +0.000 C 
ATOM     31  C   UNL     1      -3.315  10.941  16.359  0.00  0.00    +0.000 C 
ATOM     32  F   UNL     1      -4.467  10.962  17.068  0.00  0.00    +0.000 F 
ATOM     33  C   UNL     1      -2.255  11.608  16.835  0.00  0.00    +0.000 C 
ENDBRANCH  28  33
ENDBRANCH  27  28
ENDBRANCH   1  27
TORSDOF 7
ENDMDL
MODEL 9
REMARK VINA RESULT:      -8.5      1.545      2.538
REMARK  Name = 
REMARK  8 active torsions:
REMARK  status: ('A' for Active; 'I' for Inactive)
REMARK    1  A    between atoms: C_1  and  C_2
REMARK    2  A    between atoms: C_4  and  N_5
REMARK    3  A    between atoms: N_5  and  C_6
REMARK    4  A    between atoms: C_6  and  C_7
REMARK    5  A    between atoms: C_11  and  C_12
REMARK    6  A    between atoms: N_18  and  C_19
REMARK    7  A    between atoms: C_23  and  C_24
REMARK    8  A    between atoms: C_24  and  C_25
REMARK                            x       y       z     vdW  Elec       q    Type
REMARK                         _______ _______ _______ _____ _____    ______ ____
ROOT
ATOM      1  C   UNL     1      -0.144  11.388  19.300  0.00  0.00    +0.000 A 
ATOM      2  C   UNL     1       0.671  10.554  18.531  0.00  0.00    +0.000 A 
ATOM      3  C   UNL     1       1.153   9.406  19.122  0.00  0.00    +0.000 A 
ATOM      4  C   UNL     1       0.871   9.049  20.439  0.00  0.00    +0.000 A 
ATOM      5  C   UNL     1       0.087   9.870  21.239  0.00  0.00    +0.000 A 
ATOM      6  C   UNL     1      -0.422  11.046  20.645  0.00  0.00    +0.000 A 
ATOM      7  C   UNL     1       1.514   7.736  20.735  0.00  0.00    +0.000 C 
ATOM      8  N   UNL     1       2.208   7.414  19.496  0.00  0.00    +0.000 N 
ATOM      9  C   UNL     1       2.008   8.386  18.523  0.00  0.00    +0.000 C 
ATOM     10  O   UNL     1       2.402   8.464  17.373  0.00  0.00    +0.000 OA
ENDROOT
BRANCH   8  11
ATOM     11  C   UNL     1       3.050   6.288  19.380  0.00  0.00    +0.000 A 
ATOM     12  C   UNL     1       2.608   5.007  19.714  0.00  0.00    +0.000 A 
ATOM     13  C   UNL     1       3.435   3.904  19.526  0.00  0.00    +0.000 A 
ATOM     14  C   UNL     1       4.709   4.073  18.990  0.00  0.00    +0.000 A 
ATOM     15  C   UNL     1       5.203   5.342  18.634  0.00  0.00    +0.000 A 
ATOM     16  C   UNL     1       4.346   6.434  18.866  0.00  0.00    +0.000 A 
BRANCH  15  17
ATOM     17  C   UNL     1       6.615   5.536  17.934  0.00  0.00    +0.000 C 
ATOM     18  C   UNL     1       6.739   6.661  16.885  0.00  0.00    +0.000 C 
ATOM     19  O   UNL     1       7.467   5.790  15.987  0.00  0.00    +0.000 OA
ATOM     20  C   UNL     1       7.015   4.635  16.743  0.00  0.00    +0.000 C 
BRANCH  17  21
ATOM     21  C   UNL     1       7.716   5.592  18.991  0.00  0.00    +0.000 C 
ATOM     22  F   UNL     1       8.222   6.857  19.030  0.00  0.00    +0.000 F 
ENDBRANCH  17  21
ENDBRANCH  15  17
ENDBRANCH   8  11
BRANCH   5  23
ATOM     23  C   UNL     1      -0.229   9.554  22.675  0.00  0.00    +0.000 C 
ATOM     24  F   UNL     1      -0.935   8.401  22.841  0.00  0.00    +0.000 F 
ATOM     25  F   UNL     1       0.896   9.411  23.434  0.00  0.00    +0.000 F 
ATOM     26  F   UNL     1      -0.964  10.528  23.273  0.00  0.00    +0.000 F 
ENDBRANCH   5  23
BRANCH   1  27
ATOM     27  C   UNL     1      -0.709  12.645  18.686  0.00  0.00    +0.000 C 
BRANCH  27  28
ATOM     28  N   UNL     1       0.352  13.442  18.113  0.00  0.00    +0.000 N 
ATOM     29  H   UNL     1       0.625  13.264  17.149  0.00  0.00    +0.000 HD
BRANCH  28  33
ATOM     30  C   UNL     1       2.852  15.390  20.181  0.00  0.00    +0.000 C 
ATOM     31  C   UNL     1       2.145  14.255  19.525  0.00  0.00    +0.000 C 
ATOM     32  F   UNL     1       2.627  13.003  19.704  0.00  0.00    +0.000 F 
ATOM     33  C   UNL     1       1.056  14.421  18.763  0.00  0.00    +0.000 C 
ENDBRANCH  28  33
ENDBRANCH  27  28
ENDBRANCH   1  27
TORSDOF 7
ENDMDL
