MODEL 1
REMARK VINA RESULT:      -8.3      0.000      0.000
REMARK  Name = 
REMARK  3 active torsions:
REMARK  status: ('A' for Active; 'I' for Inactive)
REMARK    1  A    between atoms: C_2  and  C_15
REMARK    2  A    between atoms: N_3  and  C_4
REMARK    3  A    between atoms: C_4  and  C_5
REMARK                            x       y       z     vdW  Elec       q    Type
REMARK                         _______ _______ _______ _____ _____    ______ ____
ROOT
ATOM      1  O   UNL     1       1.502   6.899  20.976  0.00  0.00    +0.000 OA
ATOM      2  C   UNL     1       1.887   7.215  19.857  0.00  0.00    +0.000 C 
ATOM      3  N   UNL     1       1.711   8.495  19.370  0.00  0.00    +0.000 N 
ATOM      4  H   UNL     1       2.054   8.684  18.432  0.00  0.00    +0.000 HD
ENDROOT
BRANCH   2   5
ATOM      5  C   UNL     1       2.590   6.259  18.912  0.00  0.00    +0.000 A 
ATOM      6  N   UNL     1       3.573   6.857  18.164  0.00  0.00    +0.000 NA
ATOM      7  C   UNL     1       4.235   6.071  17.292  0.00  0.00    +0.000 A 
ATOM      8  C   UNL     1       3.975   4.723  17.120  0.00  0.00    +0.000 A 
ATOM      9  C   UNL     1       2.974   4.117  17.886  0.00  0.00    +0.000 A 
ATOM     10  C   UNL     1       2.692   2.748  17.721  0.00  0.00    +0.000 A 
ATOM     11  C   UNL     1       1.701   2.120  18.474  0.00  0.00    +0.000 A 
ATOM     12  C   UNL     1       0.980   2.851  19.404  0.00  0.00    +0.000 A 
ATOM     13  C   UNL     1       1.247   4.209  19.577  0.00  0.00    +0.000 A 
ATOM     14  C   UNL     1       2.245   4.884  18.824  0.00  0.00    +0.000 A 
ENDBRANCH   2   5
BRANCH   3  15
ATOM     15  C   UNL     1       1.099   9.535  20.162  0.00  0.00    +0.000 C 
BRANCH  15  16
ATOM     16  C   UNL     1      -0.052  10.182  19.437  0.00  0.00    +0.000 A 
ATOM     17  C   UNL     1      -0.803  11.207  20.073  0.00  0.00    +0.000 A 
ATOM     18  C   UNL     1      -1.894  11.815  19.441  0.00  0.00    +0.000 A 
ATOM     19  C   UNL     1      -2.194  11.377  18.174  0.00  0.00    +0.000 A 
ATOM     20  N   UNL     1      -3.209  11.783  17.314  0.00  0.00    +0.000 N 
ATOM     21  C   UNL     1      -3.113  11.043  16.127  0.00  0.00    +0.000 A 
ATOM     22  O   UNL     1      -3.840  11.134  15.154  0.00  0.00    +0.000 OA
ATOM     23  N   UNL     1      -2.020  10.177  16.279  0.00  0.00    +0.000 N 
ATOM     24  C   UNL     1      -1.458  10.384  17.535  0.00  0.00    +0.000 A 
ATOM     25  C   UNL     1      -0.382   9.770  18.132  0.00  0.00    +0.000 A 
ATOM     26  H   UNL     1      -3.911  12.483  17.482  0.00  0.00    +0.000 HD
ATOM     27  H   UNL     1      -1.718   9.523  15.576  0.00  0.00    +0.000 HD
ENDBRANCH  15  16
ENDBRANCH   3  15
TORSDOF 3
ENDMDL
MODEL 2
REMARK VINA RESULT:      -8.2      2.729      7.625
REMARK  Name = 
REMARK  3 active torsions:
REMARK  status: ('A' for Active; 'I' for Inactive)
REMARK    1  A    between atoms: C_2  and  C_15
REMARK    2  A    between atoms: N_3  and  C_4
REMARK    3  A    between atoms: C_4  and  C_5
REMARK                            x       y       z     vdW  Elec       q    Type
REMARK                         _______ _______ _______ _____ _____    ______ ____
ROOT
ATOM      1  O   UNL     1       0.619   9.012  17.363  0.00  0.00    +0.000 OA
ATOM      2  C   UNL     1       1.287   9.342  18.335  0.00  0.00    +0.000 C 
ATOM      3  N   UNL     1       2.447   8.674  18.673  0.00  0.00    +0.000 N 
ATOM      4  H   UNL     1       2.947   9.003  19.495  0.00  0.00    +0.000 HD
ENDROOT
BRANCH   2   5
ATOM      5  C   UNL     1       0.923  10.500  19.247  0.00  0.00    +0.000 A 
ATOM      6  N   UNL     1       1.209  11.729  18.707  0.00  0.00    +0.000 NA
ATOM      7  C   UNL     1       0.923  12.805  19.464  0.00  0.00    +0.000 A 
ATOM      8  C   UNL     1       0.370  12.731  20.730  0.00  0.00    +0.000 A 
ATOM      9  C   UNL     1       0.078  11.477  21.276  0.00  0.00    +0.000 A 
ATOM     10  C   UNL     1      -0.482  11.382  22.564  0.00  0.00    +0.000 A 
ATOM     11  C   UNL     1      -0.783  10.144  23.130  0.00  0.00    +0.000 A 
ATOM     12  C   UNL     1      -0.534   8.984  22.414  0.00  0.00    +0.000 A 
ATOM     13  C   UNL     1       0.021   9.063  21.136  0.00  0.00    +0.000 A 
ATOM     14  C   UNL     1       0.348  10.306  20.531  0.00  0.00    +0.000 A 
ENDBRANCH   2   5
BRANCH   3  15
ATOM     15  C   UNL     1       2.954   7.579  17.882  0.00  0.00    +0.000 C 
BRANCH  15  16
ATOM     16  C   UNL     1       2.512   6.246  18.430  0.00  0.00    +0.000 A 
ATOM     17  C   UNL     1       1.977   5.263  17.554  0.00  0.00    +0.000 A 
ATOM     18  C   UNL     1       1.535   4.023  18.030  0.00  0.00    +0.000 A 
ATOM     19  C   UNL     1       1.652   3.804  19.380  0.00  0.00    +0.000 A 
ATOM     20  N   UNL     1       1.296   2.688  20.130  0.00  0.00    +0.000 N 
ATOM     21  C   UNL     1       1.607   2.934  21.476  0.00  0.00    +0.000 A 
ATOM     22  O   UNL     1       1.429   2.176  22.412  0.00  0.00    +0.000 OA
ATOM     23  N   UNL     1       2.160   4.222  21.532  0.00  0.00    +0.000 N 
ATOM     24  C   UNL     1       2.186   4.753  20.247  0.00  0.00    +0.000 A 
ATOM     25  C   UNL     1       2.629   5.978  19.807  0.00  0.00    +0.000 A 
ATOM     26  H   UNL     1       0.882   1.834  19.799  0.00  0.00    +0.000 HD
ATOM     27  H   UNL     1       2.474   4.663  22.380  0.00  0.00    +0.000 HD
ENDBRANCH  15  16
ENDBRANCH   3  15
TORSDOF 3
ENDMDL
MODEL 3
REMARK VINA RESULT:      -8.1      3.121      8.450
REMARK  Name = 
REMARK  3 active torsions:
REMARK  status: ('A' for Active; 'I' for Inactive)
REMARK    1  A    between atoms: C_2  and  C_15
REMARK    2  A    between atoms: N_3  and  C_4
REMARK    3  A    between atoms: C_4  and  C_5
REMARK                            x       y       z     vdW  Elec       q    Type
REMARK                         _______ _______ _______ _____ _____    ______ ____
ROOT
ATOM      1  O   UNL     1       1.746  10.774  18.660  0.00  0.00    +0.000 OA
ATOM      2  C   UNL     1       1.316   9.860  19.353  0.00  0.00    +0.000 C 
ATOM      3  N   UNL     1       1.470   8.539  18.979  0.00  0.00    +0.000 N 
ATOM      4  H   UNL     1       1.086   7.835  19.603  0.00  0.00    +0.000 HD
ENDROOT
BRANCH   2   5
ATOM      5  C   UNL     1       0.593  10.075  20.669  0.00  0.00    +0.000 A 
ATOM      6  N   UNL     1       1.048   9.266  21.679  0.00  0.00    +0.000 NA
ATOM      7  C   UNL     1       0.445   9.394  22.877  0.00  0.00    +0.000 A 
ATOM      8  C   UNL     1      -0.588  10.279  23.129  0.00  0.00    +0.000 A 
ATOM      9  C   UNL     1      -1.048  11.104  22.097  0.00  0.00    +0.000 A 
ATOM     10  C   UNL     1      -2.101  12.008  22.333  0.00  0.00    +0.000 A 
ATOM     11  C   UNL     1      -2.576  12.841  21.322  0.00  0.00    +0.000 A 
ATOM     12  C   UNL     1      -2.002  12.786  20.061  0.00  0.00    +0.000 A 
ATOM     13  C   UNL     1      -0.959  11.894  19.812  0.00  0.00    +0.000 A 
ATOM     14  C   UNL     1      -0.454  11.025  20.816  0.00  0.00    +0.000 A 
ENDBRANCH   2   5
BRANCH   3  15
ATOM     15  C   UNL     1       2.175   8.165  17.777  0.00  0.00    +0.000 C 
BRANCH  15  16
ATOM     16  C   UNL     1       3.222   7.116  18.051  0.00  0.00    +0.000 A 
ATOM     17  C   UNL     1       3.052   6.212  19.134  0.00  0.00    +0.000 A 
ATOM     18  C   UNL     1       4.014   5.241  19.434  0.00  0.00    +0.000 A 
ATOM     19  C   UNL     1       5.124   5.202  18.625  0.00  0.00    +0.000 A 
ATOM     20  N   UNL     1       6.232   4.364  18.681  0.00  0.00    +0.000 N 
ATOM     21  C   UNL     1       7.108   4.708  17.641  0.00  0.00    +0.000 A 
ATOM     22  O   UNL     1       8.178   4.183  17.389  0.00  0.00    +0.000 OA
ATOM     23  N   UNL     1       6.511   5.771  16.948  0.00  0.00    +0.000 N 
ATOM     24  C   UNL     1       5.296   6.073  17.553  0.00  0.00    +0.000 A 
ATOM     25  C   UNL     1       4.366   7.036  17.235  0.00  0.00    +0.000 A 
ATOM     26  H   UNL     1       6.410   3.628  19.342  0.00  0.00    +0.000 HD
ATOM     27  H   UNL     1       6.923   6.224  16.148  0.00  0.00    +0.000 HD
ENDBRANCH  15  16
ENDBRANCH   3  15
TORSDOF 3
ENDMDL
MODEL 4
REMARK VINA RESULT:      -8.1      3.116      8.044
REMARK  Name = 
REMARK  3 active torsions:
REMARK  status: ('A' for Active; 'I' for Inactive)
REMARK    1  A    between atoms: C_2  and  C_15
REMARK    2  A    between atoms: N_3  and  C_4
REMARK    3  A    between atoms: C_4  and  C_5
REMARK                            x       y       z     vdW  Elec       q    Type
REMARK                         _______ _______ _______ _____ _____    ______ ____
ROOT
ATOM      1  O   UNL     1       1.226   6.308  20.911  0.00  0.00    +0.000 OA
ATOM      2  C   UNL     1       1.841   7.134  20.247  0.00  0.00    +0.000 C 
ATOM      3  N   UNL     1       3.056   6.831  19.665  0.00  0.00    +0.000 N 
ATOM      4  H   UNL     1       3.509   7.568  19.131  0.00  0.00    +0.000 HD
ENDROOT
BRANCH   2   5
ATOM      5  C   UNL     1       1.341   8.544  19.993  0.00  0.00    +0.000 A 
ATOM      6  N   UNL     1       1.635   9.008  18.736  0.00  0.00    +0.000 NA
ATOM      7  C   UNL     1       1.231  10.259  18.442  0.00  0.00    +0.000 A 
ATOM      8  C   UNL     1       0.553  11.078  19.326  0.00  0.00    +0.000 A 
ATOM      9  C   UNL     1       0.253  10.601  20.607  0.00  0.00    +0.000 A 
ATOM     10  C   UNL     1      -0.433  11.421  21.522  0.00  0.00    +0.000 A 
ATOM     11  C   UNL     1      -0.745  10.968  22.803  0.00  0.00    +0.000 A 
ATOM     12  C   UNL     1      -0.379   9.687  23.185  0.00  0.00    +0.000 A 
ATOM     13  C   UNL     1       0.302   8.863  22.289  0.00  0.00    +0.000 A 
ATOM     14  C   UNL     1       0.643   9.293  20.978  0.00  0.00    +0.000 A 
ENDBRANCH   2   5
BRANCH   3  15
ATOM     15  C   UNL     1       3.647   5.519  19.774  0.00  0.00    +0.000 C 
BRANCH  15  16
ATOM     16  C   UNL     1       4.280   5.085  18.478  0.00  0.00    +0.000 A 
ATOM     17  C   UNL     1       3.888   3.860  17.874  0.00  0.00    +0.000 A 
ATOM     18  C   UNL     1       4.470   3.412  16.682  0.00  0.00    +0.000 A 
ATOM     19  C   UNL     1       5.432   4.219  16.125  0.00  0.00    +0.000 A 
ATOM     20  N   UNL     1       6.179   4.037  14.966  0.00  0.00    +0.000 N 
ATOM     21  C   UNL     1       7.039   5.134  14.809  0.00  0.00    +0.000 A 
ATOM     22  O   UNL     1       7.837   5.307  13.906  0.00  0.00    +0.000 OA
ATOM     23  N   UNL     1       6.801   5.990  15.894  0.00  0.00    +0.000 N 
ATOM     24  C   UNL     1       5.816   5.428  16.700  0.00  0.00    +0.000 A 
ATOM     25  C   UNL     1       5.260   5.892  17.869  0.00  0.00    +0.000 A 
ATOM     26  H   UNL     1       6.138   3.261  14.327  0.00  0.00    +0.000 HD
ATOM     27  H   UNL     1       7.283   6.862  16.040  0.00  0.00    +0.000 HD
ENDBRANCH  15  16
ENDBRANCH   3  15
TORSDOF 3
ENDMDL
MODEL 5
REMARK VINA RESULT:      -8.1      3.244      8.057
REMARK  Name = 
REMARK  3 active torsions:
REMARK  status: ('A' for Active; 'I' for Inactive)
REMARK    1  A    between atoms: C_2  and  C_15
REMARK    2  A    between atoms: N_3  and  C_4
REMARK    3  A    between atoms: C_4  and  C_5
REMARK                            x       y       z     vdW  Elec       q    Type
REMARK                         _______ _______ _______ _____ _____    ______ ____
ROOT
ATOM      1  O   UNL     1       1.618   6.231  20.653  0.00  0.00    +0.000 OA
ATOM      2  C   UNL     1       2.095   7.092  19.923  0.00  0.00    +0.000 C 
ATOM      3  N   UNL     1       3.241   6.859  19.188  0.00  0.00    +0.000 N 
ATOM      4  H   UNL     1       3.579   7.621  18.607  0.00  0.00    +0.000 HD
ENDROOT
BRANCH   2   5
ATOM      5  C   UNL     1       1.487   8.471  19.746  0.00  0.00    +0.000 A 
ATOM      6  N   UNL     1       1.653   8.982  18.484  0.00  0.00    +0.000 NA
ATOM      7  C   UNL     1       1.148  10.209  18.255  0.00  0.00    +0.000 A 
ATOM      8  C   UNL     1       0.488  10.961  19.210  0.00  0.00    +0.000 A 
ATOM      9  C   UNL     1       0.319  10.436  20.496  0.00  0.00    +0.000 A 
ATOM     10  C   UNL     1      -0.347  11.188  21.482  0.00  0.00    +0.000 A 
ATOM     11  C   UNL     1      -0.530  10.686  22.770  0.00  0.00    +0.000 A 
ATOM     12  C   UNL     1      -0.054   9.424  23.088  0.00  0.00    +0.000 A 
ATOM     13  C   UNL     1       0.609   8.668  22.121  0.00  0.00    +0.000 A 
ATOM     14  C   UNL     1       0.820   9.149  20.801  0.00  0.00    +0.000 A 
ENDBRANCH   2   5
BRANCH   3  15
ATOM     15  C   UNL     1       3.915   5.584  19.211  0.00  0.00    +0.000 C 
BRANCH  15  16
ATOM     16  C   UNL     1       4.916   5.464  18.090  0.00  0.00    +0.000 A 
ATOM     17  C   UNL     1       6.238   5.954  18.267  0.00  0.00    +0.000 A 
ATOM     18  C   UNL     1       7.188   5.883  17.241  0.00  0.00    +0.000 A 
ATOM     19  C   UNL     1       6.780   5.308  16.062  0.00  0.00    +0.000 A 
ATOM     20  N   UNL     1       7.488   5.107  14.883  0.00  0.00    +0.000 N 
ATOM     21  C   UNL     1       6.644   4.483  13.953  0.00  0.00    +0.000 A 
ATOM     22  O   UNL     1       6.932   4.158  12.815  0.00  0.00    +0.000 OA
ATOM     23  N   UNL     1       5.407   4.306  14.588  0.00  0.00    +0.000 N 
ATOM     24  C   UNL     1       5.491   4.813  15.881  0.00  0.00    +0.000 A 
ATOM     25  C   UNL     1       4.539   4.869  16.872  0.00  0.00    +0.000 A 
ATOM     26  H   UNL     1       8.444   5.357  14.692  0.00  0.00    +0.000 HD
ATOM     27  H   UNL     1       4.605   3.880  14.152  0.00  0.00    +0.000 HD
ENDBRANCH  15  16
ENDBRANCH   3  15
TORSDOF 3
ENDMDL
MODEL 6
REMARK VINA RESULT:      -8.1      1.344      1.866
REMARK  Name = 
REMARK  3 active torsions:
REMARK  status: ('A' for Active; 'I' for Inactive)
REMARK    1  A    between atoms: C_2  and  C_15
REMARK    2  A    between atoms: N_3  and  C_4
REMARK    3  A    between atoms: C_4  and  C_5
REMARK                            x       y       z     vdW  Elec       q    Type
REMARK                         _______ _______ _______ _____ _____    ______ ____
ROOT
ATOM      1  O   UNL     1       1.718   8.121  20.927  0.00  0.00    +0.000 OA
ATOM      2  C   UNL     1       1.836   8.024  19.711  0.00  0.00    +0.000 C 
ATOM      3  N   UNL     1       1.347   8.994  18.859  0.00  0.00    +0.000 N 
ATOM      4  H   UNL     1       1.481   8.844  17.863  0.00  0.00    +0.000 HD
ENDROOT
BRANCH   2   5
ATOM      5  C   UNL     1       2.524   6.856  19.028  0.00  0.00    +0.000 A 
ATOM      6  N   UNL     1       3.403   7.241  18.046  0.00  0.00    +0.000 NA
ATOM      7  C   UNL     1       4.044   6.256  17.387  0.00  0.00    +0.000 A 
ATOM      8  C   UNL     1       3.861   4.910  17.646  0.00  0.00    +0.000 A 
ATOM      9  C   UNL     1       2.966   4.522  18.648  0.00  0.00    +0.000 A 
ATOM     10  C   UNL     1       2.763   3.156  18.923  0.00  0.00    +0.000 A 
ATOM     11  C   UNL     1       1.879   2.745  19.918  0.00  0.00    +0.000 A 
ATOM     12  C   UNL     1       1.187   3.692  20.656  0.00  0.00    +0.000 A 
ATOM     13  C   UNL     1       1.376   5.049  20.394  0.00  0.00    +0.000 A 
ATOM     14  C   UNL     1       2.264   5.506  19.383  0.00  0.00    +0.000 A 
ENDBRANCH   2   5
BRANCH   3  15
ATOM     15  C   UNL     1       0.707  10.189  19.354  0.00  0.00    +0.000 C 
BRANCH  15  16
ATOM     16  C   UNL     1      -0.633  10.412  18.701  0.00  0.00    +0.000 A 
ATOM     17  C   UNL     1      -0.954   9.732  17.495  0.00  0.00    +0.000 A 
ATOM     18  C   UNL     1      -2.179   9.931  16.846  0.00  0.00    +0.000 A 
ATOM     19  C   UNL     1      -3.055  10.807  17.439  0.00  0.00    +0.000 A 
ATOM     20  N   UNL     1      -4.323  11.204  17.031  0.00  0.00    +0.000 N 
ATOM     21  C   UNL     1      -4.829  12.121  17.965  0.00  0.00    +0.000 A 
ATOM     22  O   UNL     1      -5.913  12.675  17.924  0.00  0.00    +0.000 OA
ATOM     23  N   UNL     1      -3.845  12.274  18.952  0.00  0.00    +0.000 N 
ATOM     24  C   UNL     1      -2.758  11.469  18.628  0.00  0.00    +0.000 A 
ATOM     25  C   UNL     1      -1.563  11.291  19.286  0.00  0.00    +0.000 A 
ATOM     26  H   UNL     1      -4.823  10.908  16.210  0.00  0.00    +0.000 HD
ATOM     27  H   UNL     1      -3.938  12.879  19.751  0.00  0.00    +0.000 HD
ENDBRANCH  15  16
ENDBRANCH   3  15
TORSDOF 3
ENDMDL
MODEL 7
REMARK VINA RESULT:      -8.1      2.811      8.035
REMARK  Name = 
REMARK  3 active torsions:
REMARK  status: ('A' for Active; 'I' for Inactive)
REMARK    1  A    between atoms: C_2  and  C_15
REMARK    2  A    between atoms: N_3  and  C_4
REMARK    3  A    between atoms: C_4  and  C_5
REMARK                            x       y       z     vdW  Elec       q    Type
REMARK                         _______ _______ _______ _____ _____    ______ ____
ROOT
ATOM      1  O   UNL     1       0.691   9.028  17.327  0.00  0.00    +0.000 OA
ATOM      2  C   UNL     1       1.340   9.345  18.317  0.00  0.00    +0.000 C 
ATOM      3  N   UNL     1       2.501   8.681  18.659  0.00  0.00    +0.000 N 
ATOM      4  H   UNL     1       2.985   8.998  19.495  0.00  0.00    +0.000 HD
ENDROOT
BRANCH   2   5
ATOM      5  C   UNL     1       0.949  10.479  19.247  0.00  0.00    +0.000 A 
ATOM      6  N   UNL     1       1.217  11.722  18.731  0.00  0.00    +0.000 NA
ATOM      7  C   UNL     1       0.907  12.779  19.506  0.00  0.00    +0.000 A 
ATOM      8  C   UNL     1       0.346  12.673  20.766  0.00  0.00    +0.000 A 
ATOM      9  C   UNL     1       0.072  11.404  21.287  0.00  0.00    +0.000 A 
ATOM     10  C   UNL     1      -0.495  11.275  22.569  0.00  0.00    +0.000 A 
ATOM     11  C   UNL     1      -0.779  10.022  23.110  0.00  0.00    +0.000 A 
ATOM     12  C   UNL     1      -0.504   8.880  22.375  0.00  0.00    +0.000 A 
ATOM     13  C   UNL     1       0.058   8.992  21.103  0.00  0.00    +0.000 A 
ATOM     14  C   UNL     1       0.368  10.251  20.523  0.00  0.00    +0.000 A 
ENDBRANCH   2   5
BRANCH   3  15
ATOM     15  C   UNL     1       3.032   7.608  17.854  0.00  0.00    +0.000 C 
BRANCH  15  16
ATOM     16  C   UNL     1       3.084   6.311  18.619  0.00  0.00    +0.000 A 
ATOM     17  C   UNL     1       2.049   5.991  19.539  0.00  0.00    +0.000 A 
ATOM     18  C   UNL     1       2.074   4.808  20.286  0.00  0.00    +0.000 A 
ATOM     19  C   UNL     1       3.143   3.971  20.078  0.00  0.00    +0.000 A 
ATOM     20  N   UNL     1       3.439   2.747  20.669  0.00  0.00    +0.000 N 
ATOM     21  C   UNL     1       4.644   2.269  20.134  0.00  0.00    +0.000 A 
ATOM     22  O   UNL     1       5.204   1.227  20.423  0.00  0.00    +0.000 OA
ATOM     23  N   UNL     1       5.077   3.224  19.203  0.00  0.00    +0.000 N 
ATOM     24  C   UNL     1       4.157   4.267  19.170  0.00  0.00    +0.000 A 
ATOM     25  C   UNL     1       4.156   5.421  18.423  0.00  0.00    +0.000 A 
ATOM     26  H   UNL     1       2.904   2.260  21.368  0.00  0.00    +0.000 HD
ATOM     27  H   UNL     1       5.924   3.142  18.664  0.00  0.00    +0.000 HD
ENDBRANCH  15  16
ENDBRANCH   3  15
TORSDOF 3
ENDMDL
MODEL 8
REMARK VINA RESULT:      -8.0      2.550      7.945
REMARK  Name = 
REMARK  3 active torsions:
REMARK  status: ('A' for Active; 'I' for Inactive)
REMARK    1  A    between atoms: C_2  and  C_15
REMARK    2  A    between atoms: N_3  and  C_4
REMARK    3  A    between atoms: C_4  and  C_5
REMARK                            x       y       z     vdW  Elec       q    Type
REMARK                         _______ _______ _______ _____ _____    ______ ____
ROOT
ATOM      1  O   UNL     1       2.419  10.904  17.654  0.00  0.00    +0.000 OA
ATOM      2  C   UNL     1       1.571  10.239  18.237  0.00  0.00    +0.000 C 
ATOM      3  N   UNL     1       1.639   8.860  18.276  0.00  0.00    +0.000 N 
ATOM      4  H   UNL     1       0.899   8.375  18.777  0.00  0.00    +0.000 HD
ENDROOT
BRANCH   2   5
ATOM      5  C   UNL     1       0.388  10.845  18.969  0.00  0.00    +0.000 A 
ATOM      6  N   UNL     1       0.736  11.480  20.135  0.00  0.00    +0.000 NA
ATOM      7  C   UNL     1      -0.265  12.034  20.846  0.00  0.00    +0.000 A 
ATOM      8  C   UNL     1      -1.594  11.993  20.466  0.00  0.00    +0.000 A 
ATOM      9  C   UNL     1      -1.945  11.347  19.276  0.00  0.00    +0.000 A 
ATOM     10  C   UNL     1      -3.293  11.291  18.875  0.00  0.00    +0.000 A 
ATOM     11  C   UNL     1      -3.668  10.656  17.692  0.00  0.00    +0.000 A 
ATOM     12  C   UNL     1      -2.700  10.070  16.892  0.00  0.00    +0.000 A 
ATOM     13  C   UNL     1      -1.360  10.116  17.277  0.00  0.00    +0.000 A 
ATOM     14  C   UNL     1      -0.941  10.749  18.478  0.00  0.00    +0.000 A 
ENDBRANCH   2   5
BRANCH   3  15
ATOM     15  C   UNL     1       2.726   8.133  17.667  0.00  0.00    +0.000 C 
BRANCH  15  16
ATOM     16  C   UNL     1       2.912   6.778  18.299  0.00  0.00    +0.000 A 
ATOM     17  C   UNL     1       3.759   5.819  17.681  0.00  0.00    +0.000 A 
ATOM     18  C   UNL     1       3.938   4.542  18.226  0.00  0.00    +0.000 A 
ATOM     19  C   UNL     1       3.260   4.268  19.389  0.00  0.00    +0.000 A 
ATOM     20  N   UNL     1       3.237   3.102  20.147  0.00  0.00    +0.000 N 
ATOM     21  C   UNL     1       2.396   3.302  21.252  0.00  0.00    +0.000 A 
ATOM     22  O   UNL     1       2.140   2.493  22.125  0.00  0.00    +0.000 OA
ATOM     23  N   UNL     1       1.908   4.612  21.154  0.00  0.00    +0.000 N 
ATOM     24  C   UNL     1       2.438   5.203  20.011  0.00  0.00    +0.000 A 
ATOM     25  C   UNL     1       2.246   6.464  19.499  0.00  0.00    +0.000 A 
ATOM     26  H   UNL     1       3.725   2.242  19.963  0.00  0.00    +0.000 HD
ATOM     27  H   UNL     1       1.274   5.029  21.817  0.00  0.00    +0.000 HD
ENDBRANCH  15  16
ENDBRANCH   3  15
TORSDOF 3
ENDMDL
MODEL 9
REMARK VINA RESULT:      -8.0      2.596      8.148
REMARK  Name = 
REMARK  3 active torsions:
REMARK  status: ('A' for Active; 'I' for Inactive)
REMARK    1  A    between atoms: C_2  and  C_15
REMARK    2  A    between atoms: N_3  and  C_4
REMARK    3  A    between atoms: C_4  and  C_5
REMARK                            x       y       z     vdW  Elec       q    Type
REMARK                         _______ _______ _______ _____ _____    ______ ____
ROOT
ATOM      1  O   UNL     1       2.582  10.531  17.504  0.00  0.00    +0.000 OA
ATOM      2  C   UNL     1       1.767   9.889  18.156  0.00  0.00    +0.000 C 
ATOM      3  N   UNL     1       1.867   8.518  18.285  0.00  0.00    +0.000 N 
ATOM      4  H   UNL     1       1.153   8.053  18.839  0.00  0.00    +0.000 HD
ENDROOT
BRANCH   2   5
ATOM      5  C   UNL     1       0.593  10.520  18.882  0.00  0.00    +0.000 A 
ATOM      6  N   UNL     1       0.941  11.111  20.070  0.00  0.00    +0.000 NA
ATOM      7  C   UNL     1      -0.053  11.683  20.777  0.00  0.00    +0.000 A 
ATOM      8  C   UNL     1      -1.375  11.700  20.372  0.00  0.00    +0.000 A 
ATOM      9  C   UNL     1      -1.726  11.098  19.159  0.00  0.00    +0.000 A 
ATOM     10  C   UNL     1      -3.067  11.102  18.732  0.00  0.00    +0.000 A 
ATOM     11  C   UNL     1      -3.442  10.511  17.527  0.00  0.00    +0.000 A 
ATOM     12  C   UNL     1      -2.480   9.911  16.729  0.00  0.00    +0.000 A 
ATOM     13  C   UNL     1      -1.147   9.898  17.140  0.00  0.00    +0.000 A 
ATOM     14  C   UNL     1      -0.730  10.485  18.365  0.00  0.00    +0.000 A 
ENDBRANCH   2   5
BRANCH   3  15
ATOM     15  C   UNL     1       2.951   7.774  17.692  0.00  0.00    +0.000 C 
BRANCH  15  16
ATOM     16  C   UNL     1       2.961   6.340  18.157  0.00  0.00    +0.000 A 
ATOM     17  C   UNL     1       1.770   5.568  18.094  0.00  0.00    +0.000 A 
ATOM     18  C   UNL     1       1.733   4.241  18.539  0.00  0.00    +0.000 A 
ATOM     19  C   UNL     1       2.907   3.724  19.030  0.00  0.00    +0.000 A 
ATOM     20  N   UNL     1       3.171   2.458  19.541  0.00  0.00    +0.000 N 
ATOM     21  C   UNL     1       4.520   2.400  19.921  0.00  0.00    +0.000 A 
ATOM     22  O   UNL     1       5.096   1.445  20.409  0.00  0.00    +0.000 OA
ATOM     23  N   UNL     1       5.074   3.655  19.631  0.00  0.00    +0.000 N 
ATOM     24  C   UNL     1       4.083   4.465  19.085  0.00  0.00    +0.000 A 
ATOM     25  C   UNL     1       4.148   5.770  18.654  0.00  0.00    +0.000 A 
ATOM     26  H   UNL     1       2.528   1.691  19.639  0.00  0.00    +0.000 HD
ATOM     27  H   UNL     1       6.035   3.900  19.804  0.00  0.00    +0.000 HD
ENDBRANCH  15  16
ENDBRANCH   3  15
TORSDOF 3
ENDMDL
