MODEL 1
REMARK VINA RESULT:      -8.3      0.000      0.000
REMARK  Name = 
REMARK  5 active torsions:
REMARK  status: ('A' for Active; 'I' for Inactive)
REMARK    1  A    between atoms: C_2  and  C_17
REMARK    2  A    between atoms: N_3  and  C_4
REMARK    3  A    between atoms: C_4  and  C_5
REMARK    4  A    between atoms: C_4  and  C_11
REMARK    5  A    between atoms: C_19  and  C_20
REMARK                            x       y       z     vdW  Elec       q    Type
REMARK                         _______ _______ _______ _____ _____    ______ ____
ROOT
ATOM      1  O   UNL     1       1.698   8.651  18.829  0.00  0.00    +0.000 OA
ATOM      2  C   UNL     1       1.895   8.041  19.875  0.00  0.00    +0.000 C 
ATOM      3  N   UNL     1       2.425   6.778  19.931  0.00  0.00    +0.000 N 
ATOM      4  H   UNL     1       2.581   6.300  20.807  0.00  0.00    +0.000 HD
ENDROOT
BRANCH   2   5
ATOM      5  C   UNL     1       1.495   8.613  21.190  0.00  0.00    +0.000 C 
ATOM      6  C   UNL     1       0.073   8.406  21.662  0.00  0.00    +0.000 C 
ATOM      7  C   UNL     1       0.558   9.799  21.351  0.00  0.00    +0.000 C 
BRANCH   7   8
ATOM      8  C   UNL     1       0.057  10.590  20.164  0.00  0.00    +0.000 A 
ATOM      9  C   UNL     1      -1.082  10.221  19.428  0.00  0.00    +0.000 A 
ATOM     10  C   UNL     1      -1.556  11.007  18.369  0.00  0.00    +0.000 A 
ATOM     11  C   UNL     1      -0.907  12.191  18.030  0.00  0.00    +0.000 A 
ATOM     12  C   UNL     1       0.215  12.588  18.750  0.00  0.00    +0.000 A 
ATOM     13  C   UNL     1       0.680  11.794  19.797  0.00  0.00    +0.000 A 
ATOM     14  F   UNL     1       1.745  12.220  20.497  0.00  0.00    +0.000 F 
ENDBRANCH   7   8
ENDBRANCH   2   5
BRANCH   3  15
ATOM     15  C   UNL     1       2.755   6.035  18.726  0.00  0.00    +0.000 C 
BRANCH  15  16
ATOM     16  C   UNL     1       4.250   6.119  18.441  0.00  0.00    +0.000 A 
ATOM     17  C   UNL     1       4.774   6.830  17.349  0.00  0.00    +0.000 A 
ATOM     18  C   UNL     1       6.153   6.910  17.148  0.00  0.00    +0.000 A 
ATOM     19  C   UNL     1       7.028   6.259  18.016  0.00  0.00    +0.000 A 
ATOM     20  C   UNL     1       6.523   5.510  19.076  0.00  0.00    +0.000 A 
ATOM     21  C   UNL     1       5.145   5.437  19.283  0.00  0.00    +0.000 A 
ENDBRANCH  15  16
BRANCH  15  22
ATOM     22  C   UNL     1       2.203   4.602  18.776  0.00  0.00    +0.000 A 
ATOM     23  C   UNL     1       1.346   4.236  19.818  0.00  0.00    +0.000 A 
ATOM     24  C   UNL     1       0.843   2.939  19.863  0.00  0.00    +0.000 A 
ATOM     25  C   UNL     1       1.196   2.039  18.866  0.00  0.00    +0.000 A 
ATOM     26  C   UNL     1       2.038   2.479  17.858  0.00  0.00    +0.000 A 
ATOM     27  N   UNL     1       2.549   3.731  17.785  0.00  0.00    +0.000 NA
ENDBRANCH  15  22
ENDBRANCH   3  15
TORSDOF 5
ENDMDL
MODEL 2
REMARK VINA RESULT:      -8.2      0.545      1.335
REMARK  Name = 
REMARK  5 active torsions:
REMARK  status: ('A' for Active; 'I' for Inactive)
REMARK    1  A    between atoms: C_2  and  C_17
REMARK    2  A    between atoms: N_3  and  C_4
REMARK    3  A    between atoms: C_4  and  C_5
REMARK    4  A    between atoms: C_4  and  C_11
REMARK    5  A    between atoms: C_19  and  C_20
REMARK                            x       y       z     vdW  Elec       q    Type
REMARK                         _______ _______ _______ _____ _____    ______ ____
ROOT
ATOM      1  O   UNL     1       1.766   8.661  18.858  0.00  0.00    +0.000 OA
ATOM      2  C   UNL     1       1.904   8.023  19.898  0.00  0.00    +0.000 C 
ATOM      3  N   UNL     1       2.383   6.740  19.945  0.00  0.00    +0.000 N 
ATOM      4  H   UNL     1       2.490   6.239  20.816  0.00  0.00    +0.000 HD
ENDROOT
BRANCH   2   5
ATOM      5  C   UNL     1       1.481   8.585  21.209  0.00  0.00    +0.000 C 
ATOM      6  C   UNL     1       0.052   8.372  21.657  0.00  0.00    +0.000 C 
ATOM      7  C   UNL     1       0.540   9.768  21.364  0.00  0.00    +0.000 C 
BRANCH   7   8
ATOM      8  C   UNL     1       0.056  10.567  20.175  0.00  0.00    +0.000 A 
ATOM      9  C   UNL     1      -1.072  10.202  19.419  0.00  0.00    +0.000 A 
ATOM     10  C   UNL     1      -1.530  10.995  18.359  0.00  0.00    +0.000 A 
ATOM     11  C   UNL     1      -0.876  12.182  18.037  0.00  0.00    +0.000 A 
ATOM     12  C   UNL     1       0.236  12.574  18.776  0.00  0.00    +0.000 A 
ATOM     13  C   UNL     1       0.685  11.772  19.825  0.00  0.00    +0.000 A 
ATOM     14  F   UNL     1       1.739  12.194  20.543  0.00  0.00    +0.000 F 
ENDBRANCH   7   8
ENDBRANCH   2   5
BRANCH   3  15
ATOM     15  C   UNL     1       2.725   6.008  18.737  0.00  0.00    +0.000 C 
BRANCH  15  16
ATOM     16  C   UNL     1       4.224   6.088  18.472  0.00  0.00    +0.000 A 
ATOM     17  C   UNL     1       5.173   5.459  19.293  0.00  0.00    +0.000 A 
ATOM     18  C   UNL     1       6.535   5.530  18.991  0.00  0.00    +0.000 A 
ATOM     19  C   UNL     1       6.970   6.252  17.881  0.00  0.00    +0.000 A 
ATOM     20  C   UNL     1       6.046   6.922  17.083  0.00  0.00    +0.000 A 
ATOM     21  C   UNL     1       4.685   6.844  17.379  0.00  0.00    +0.000 A 
ENDBRANCH  15  16
BRANCH  15  22
ATOM     22  C   UNL     1       2.166   4.577  18.765  0.00  0.00    +0.000 A 
ATOM     23  C   UNL     1       2.572   3.665  17.786  0.00  0.00    +0.000 A 
ATOM     24  C   UNL     1       2.067   2.368  17.812  0.00  0.00    +0.000 A 
ATOM     25  C   UNL     1       1.180   2.004  18.817  0.00  0.00    +0.000 A 
ATOM     26  C   UNL     1       0.836   2.959  19.761  0.00  0.00    +0.000 A 
ATOM     27  N   UNL     1       1.303   4.230  19.763  0.00  0.00    +0.000 NA
ENDBRANCH  15  22
ENDBRANCH   3  15
TORSDOF 5
ENDMDL
MODEL 3
REMARK VINA RESULT:      -7.9      3.533      6.240
REMARK  Name = 
REMARK  5 active torsions:
REMARK  status: ('A' for Active; 'I' for Inactive)
REMARK    1  A    between atoms: C_2  and  C_17
REMARK    2  A    between atoms: N_3  and  C_4
REMARK    3  A    between atoms: C_4  and  C_5
REMARK    4  A    between atoms: C_4  and  C_11
REMARK    5  A    between atoms: C_19  and  C_20
REMARK                            x       y       z     vdW  Elec       q    Type
REMARK                         _______ _______ _______ _____ _____    ______ ____
ROOT
ATOM      1  O   UNL     1       5.571   3.850  18.758  0.00  0.00    +0.000 OA
ATOM      2  C   UNL     1       4.880   3.416  17.841  0.00  0.00    +0.000 C 
ATOM      3  N   UNL     1       5.227   3.505  16.519  0.00  0.00    +0.000 N 
ATOM      4  H   UNL     1       4.641   3.135  15.784  0.00  0.00    +0.000 HD
ENDROOT
BRANCH   2   5
ATOM      5  C   UNL     1       3.545   2.811  18.101  0.00  0.00    +0.000 C 
ATOM      6  C   UNL     1       2.451   3.015  17.077  0.00  0.00    +0.000 C 
ATOM      7  C   UNL     1       2.302   3.612  18.453  0.00  0.00    +0.000 C 
BRANCH   7   8
ATOM      8  C   UNL     1       2.354   5.102  18.704  0.00  0.00    +0.000 A 
ATOM      9  C   UNL     1       2.339   6.051  17.667  0.00  0.00    +0.000 A 
ATOM     10  C   UNL     1       2.329   7.427  17.933  0.00  0.00    +0.000 A 
ATOM     11  C   UNL     1       2.321   7.886  19.248  0.00  0.00    +0.000 A 
ATOM     12  C   UNL     1       2.323   6.969  20.294  0.00  0.00    +0.000 A 
ATOM     13  C   UNL     1       2.339   5.603  20.015  0.00  0.00    +0.000 A 
ATOM     14  F   UNL     1       2.305   4.742  21.045  0.00  0.00    +0.000 F 
ENDBRANCH   7   8
ENDBRANCH   2   5
BRANCH   3  15
ATOM     15  C   UNL     1       6.444   4.177  16.093  0.00  0.00    +0.000 C 
BRANCH  15  16
ATOM     16  C   UNL     1       6.556   4.164  14.574  0.00  0.00    +0.000 A 
ATOM     17  C   UNL     1       7.501   4.934  13.877  0.00  0.00    +0.000 A 
ATOM     18  C   UNL     1       7.591   4.863  12.485  0.00  0.00    +0.000 A 
ATOM     19  C   UNL     1       6.722   4.045  11.767  0.00  0.00    +0.000 A 
ATOM     20  C   UNL     1       5.747   3.311  12.438  0.00  0.00    +0.000 A 
ATOM     21  C   UNL     1       5.662   3.374  13.829  0.00  0.00    +0.000 A 
ENDBRANCH  15  16
BRANCH  15  22
ATOM     22  C   UNL     1       6.570   5.573  16.723  0.00  0.00    +0.000 A 
ATOM     23  C   UNL     1       5.558   6.513  16.508  0.00  0.00    +0.000 A 
ATOM     24  C   UNL     1       5.671   7.778  17.080  0.00  0.00    +0.000 A 
ATOM     25  C   UNL     1       6.781   8.074  17.860  0.00  0.00    +0.000 A 
ATOM     26  C   UNL     1       7.735   7.085  18.040  0.00  0.00    +0.000 A 
ATOM     27  N   UNL     1       7.660   5.848  17.495  0.00  0.00    +0.000 NA
ENDBRANCH  15  22
ENDBRANCH   3  15
TORSDOF 5
ENDMDL
MODEL 4
REMARK VINA RESULT:      -7.9      3.048      7.543
REMARK  Name = 
REMARK  5 active torsions:
REMARK  status: ('A' for Active; 'I' for Inactive)
REMARK    1  A    between atoms: C_2  and  C_17
REMARK    2  A    between atoms: N_3  and  C_4
REMARK    3  A    between atoms: C_4  and  C_5
REMARK    4  A    between atoms: C_4  and  C_11
REMARK    5  A    between atoms: C_19  and  C_20
REMARK                            x       y       z     vdW  Elec       q    Type
REMARK                         _______ _______ _______ _____ _____    ______ ____
ROOT
ATOM      1  O   UNL     1       4.516   7.170  16.465  0.00  0.00    +0.000 OA
ATOM      2  C   UNL     1       4.900   6.570  17.465  0.00  0.00    +0.000 C 
ATOM      3  N   UNL     1       4.055   6.005  18.383  0.00  0.00    +0.000 N 
ATOM      4  H   UNL     1       4.397   5.512  19.196  0.00  0.00    +0.000 HD
ENDROOT
BRANCH   2   5
ATOM      5  C   UNL     1       6.347   6.473  17.799  0.00  0.00    +0.000 C 
ATOM      6  C   UNL     1       7.319   7.359  17.052  0.00  0.00    +0.000 C 
ATOM      7  C   UNL     1       7.393   5.863  16.879  0.00  0.00    +0.000 C 
BRANCH   7   8
ATOM      8  C   UNL     1       7.018   5.173  15.588  0.00  0.00    +0.000 A 
ATOM      9  C   UNL     1       7.553   5.544  14.342  0.00  0.00    +0.000 A 
ATOM     10  C   UNL     1       7.231   4.846  13.170  0.00  0.00    +0.000 A 
ATOM     11  C   UNL     1       6.374   3.749  13.220  0.00  0.00    +0.000 A 
ATOM     12  C   UNL     1       5.841   3.352  14.442  0.00  0.00    +0.000 A 
ATOM     13  C   UNL     1       6.164   4.058  15.599  0.00  0.00    +0.000 A 
ATOM     14  F   UNL     1       5.662   3.630  16.769  0.00  0.00    +0.000 F 
ENDBRANCH   7   8
ENDBRANCH   2   5
BRANCH   3  15
ATOM     15  C   UNL     1       2.610   6.118  18.263  0.00  0.00    +0.000 C 
BRANCH  15  16
ATOM     16  C   UNL     1       1.930   4.878  18.830  0.00  0.00    +0.000 A 
ATOM     17  C   UNL     1       1.418   3.855  18.016  0.00  0.00    +0.000 A 
ATOM     18  C   UNL     1       0.834   2.720  18.582  0.00  0.00    +0.000 A 
ATOM     19  C   UNL     1       0.728   2.601  19.966  0.00  0.00    +0.000 A 
ATOM     20  C   UNL     1       1.186   3.628  20.787  0.00  0.00    +0.000 A 
ATOM     21  C   UNL     1       1.778   4.759  20.223  0.00  0.00    +0.000 A 
ENDBRANCH  15  16
BRANCH  15  22
ATOM     22  C   UNL     1       2.096   7.442  18.848  0.00  0.00    +0.000 A 
ATOM     23  C   UNL     1       1.788   8.497  17.983  0.00  0.00    +0.000 A 
ATOM     24  C   UNL     1       1.321   9.697  18.512  0.00  0.00    +0.000 A 
ATOM     25  C   UNL     1       1.160   9.817  19.887  0.00  0.00    +0.000 A 
ATOM     26  C   UNL     1       1.473   8.723  20.678  0.00  0.00    +0.000 A 
ATOM     27  N   UNL     1       1.934   7.544  20.198  0.00  0.00    +0.000 NA
ENDBRANCH  15  22
ENDBRANCH   3  15
TORSDOF 5
ENDMDL
MODEL 5
REMARK VINA RESULT:      -7.9      2.721      6.426
REMARK  Name = 
REMARK  5 active torsions:
REMARK  status: ('A' for Active; 'I' for Inactive)
REMARK    1  A    between atoms: C_2  and  C_17
REMARK    2  A    between atoms: N_3  and  C_4
REMARK    3  A    between atoms: C_4  and  C_5
REMARK    4  A    between atoms: C_4  and  C_11
REMARK    5  A    between atoms: C_19  and  C_20
REMARK                            x       y       z     vdW  Elec       q    Type
REMARK                         _______ _______ _______ _____ _____    ______ ____
ROOT
ATOM      1  O   UNL     1       5.465   3.659  19.753  0.00  0.00    +0.000 OA
ATOM      2  C   UNL     1       5.812   4.819  19.552  0.00  0.00    +0.000 C 
ATOM      3  N   UNL     1       4.943   5.878  19.522  0.00  0.00    +0.000 N 
ATOM      4  H   UNL     1       5.257   6.824  19.359  0.00  0.00    +0.000 HD
ENDROOT
BRANCH   2   5
ATOM      5  C   UNL     1       7.228   5.158  19.244  0.00  0.00    +0.000 C 
ATOM      6  C   UNL     1       7.545   6.559  18.768  0.00  0.00    +0.000 C 
ATOM      7  C   UNL     1       7.761   5.391  17.840  0.00  0.00    +0.000 C 
BRANCH   7   8
ATOM      8  C   UNL     1       6.911   5.158  16.612  0.00  0.00    +0.000 A 
ATOM      9  C   UNL     1       6.882   3.932  15.925  0.00  0.00    +0.000 A 
ATOM     10  C   UNL     1       6.039   3.729  14.825  0.00  0.00    +0.000 A 
ATOM     11  C   UNL     1       5.192   4.747  14.393  0.00  0.00    +0.000 A 
ATOM     12  C   UNL     1       5.190   5.967  15.062  0.00  0.00    +0.000 A 
ATOM     13  C   UNL     1       6.039   6.158  16.151  0.00  0.00    +0.000 A 
ATOM     14  F   UNL     1       5.990   7.333  16.799  0.00  0.00    +0.000 F 
ENDBRANCH   7   8
ENDBRANCH   2   5
BRANCH   3  15
ATOM     15  C   UNL     1       3.510   5.695  19.685  0.00  0.00    +0.000 C 
BRANCH  15  16
ATOM     16  C   UNL     1       2.763   6.965  19.296  0.00  0.00    +0.000 A 
ATOM     17  C   UNL     1       2.898   7.566  18.034  0.00  0.00    +0.000 A 
ATOM     18  C   UNL     1       2.165   8.710  17.709  0.00  0.00    +0.000 A 
ATOM     19  C   UNL     1       1.310   9.285  18.647  0.00  0.00    +0.000 A 
ATOM     20  C   UNL     1       1.201   8.729  19.919  0.00  0.00    +0.000 A 
ATOM     21  C   UNL     1       1.926   7.581  20.241  0.00  0.00    +0.000 A 
ENDBRANCH  15  16
BRANCH  15  22
ATOM     22  C   UNL     1       3.017   4.429  18.967  0.00  0.00    +0.000 A 
ATOM     23  C   UNL     1       3.218   4.302  17.590  0.00  0.00    +0.000 A 
ATOM     24  C   UNL     1       2.773   3.154  16.939  0.00  0.00    +0.000 A 
ATOM     25  C   UNL     1       2.149   2.155  17.675  0.00  0.00    +0.000 A 
ATOM     26  C   UNL     1       1.999   2.346  19.039  0.00  0.00    +0.000 A 
ATOM     27  N   UNL     1       2.415   3.451  19.703  0.00  0.00    +0.000 NA
ENDBRANCH  15  22
ENDBRANCH   3  15
TORSDOF 5
ENDMDL
MODEL 6
REMARK VINA RESULT:      -7.9      0.978      1.308
REMARK  Name = 
REMARK  5 active torsions:
REMARK  status: ('A' for Active; 'I' for Inactive)
REMARK    1  A    between atoms: C_2  and  C_17
REMARK    2  A    between atoms: N_3  and  C_4
REMARK    3  A    between atoms: C_4  and  C_5
REMARK    4  A    between atoms: C_4  and  C_11
REMARK    5  A    between atoms: C_19  and  C_20
REMARK                            x       y       z     vdW  Elec       q    Type
REMARK                         _______ _______ _______ _____ _____    ______ ____
ROOT
ATOM      1  O   UNL     1       1.495   8.857  18.279  0.00  0.00    +0.000 OA
ATOM      2  C   UNL     1       1.718   8.461  19.419  0.00  0.00    +0.000 C 
ATOM      3  N   UNL     1       2.240   7.227  19.707  0.00  0.00    +0.000 N 
ATOM      4  H   UNL     1       2.418   6.928  20.656  0.00  0.00    +0.000 HD
ENDROOT
BRANCH   2   5
ATOM      5  C   UNL     1       1.361   9.285  20.606  0.00  0.00    +0.000 C 
ATOM      6  C   UNL     1       0.098   8.943  21.366  0.00  0.00    +0.000 C 
ATOM      7  C   UNL     1       0.197  10.262  20.643  0.00  0.00    +0.000 C 
BRANCH   7   8
ATOM      8  C   UNL     1      -0.620  10.581  19.412  0.00  0.00    +0.000 A 
ATOM      9  C   UNL     1      -1.619   9.724  18.918  0.00  0.00    +0.000 A 
ATOM     10  C   UNL     1      -2.401  10.074  17.809  0.00  0.00    +0.000 A 
ATOM     11  C   UNL     1      -2.210  11.298  17.174  0.00  0.00    +0.000 A 
ATOM     12  C   UNL     1      -1.237  12.172  17.650  0.00  0.00    +0.000 A 
ATOM     13  C   UNL     1      -0.461  11.809  18.751  0.00  0.00    +0.000 A 
ATOM     14  F   UNL     1       0.445  12.687  19.209  0.00  0.00    +0.000 F 
ENDBRANCH   7   8
ENDBRANCH   2   5
BRANCH   3  15
ATOM     15  C   UNL     1       2.530   6.258  18.663  0.00  0.00    +0.000 C 
BRANCH  15  16
ATOM     16  C   UNL     1       4.021   6.238  18.354  0.00  0.00    +0.000 A 
ATOM     17  C   UNL     1       4.577   6.919  17.259  0.00  0.00    +0.000 A 
ATOM     18  C   UNL     1       5.955   6.903  17.035  0.00  0.00    +0.000 A 
ATOM     19  C   UNL     1       6.795   6.184  17.884  0.00  0.00    +0.000 A 
ATOM     20  C   UNL     1       6.256   5.463  18.946  0.00  0.00    +0.000 A 
ATOM     21  C   UNL     1       4.880   5.487  19.175  0.00  0.00    +0.000 A 
ENDBRANCH  15  16
BRANCH  15  22
ATOM     22  C   UNL     1       1.935   4.879  18.991  0.00  0.00    +0.000 A 
ATOM     23  C   UNL     1       1.837   3.920  17.979  0.00  0.00    +0.000 A 
ATOM     24  C   UNL     1       1.300   2.669  18.275  0.00  0.00    +0.000 A 
ATOM     25  C   UNL     1       0.884   2.399  19.573  0.00  0.00    +0.000 A 
ATOM     26  C   UNL     1       1.027   3.396  20.525  0.00  0.00    +0.000 A 
ATOM     27  N   UNL     1       1.540   4.623  20.271  0.00  0.00    +0.000 NA
ENDBRANCH  15  22
ENDBRANCH   3  15
TORSDOF 5
ENDMDL
MODEL 7
REMARK VINA RESULT:      -7.8      2.799      6.541
REMARK  Name = 
REMARK  5 active torsions:
REMARK  status: ('A' for Active; 'I' for Inactive)
REMARK    1  A    between atoms: C_2  and  C_17
REMARK    2  A    between atoms: N_3  and  C_4
REMARK    3  A    between atoms: C_4  and  C_5
REMARK    4  A    between atoms: C_4  and  C_11
REMARK    5  A    between atoms: C_19  and  C_20
REMARK                            x       y       z     vdW  Elec       q    Type
REMARK                         _______ _______ _______ _____ _____    ______ ____
ROOT
ATOM      1  O   UNL     1       4.657   3.881  18.555  0.00  0.00    +0.000 OA
ATOM      2  C   UNL     1       4.485   4.807  17.768  0.00  0.00    +0.000 C 
ATOM      3  N   UNL     1       3.721   5.909  18.046  0.00  0.00    +0.000 N 
ATOM      4  H   UNL     1       3.599   6.660  17.381  0.00  0.00    +0.000 HD
ENDROOT
BRANCH   2   5
ATOM      5  C   UNL     1       5.049   4.764  16.391  0.00  0.00    +0.000 C 
ATOM      6  C   UNL     1       6.293   3.938  16.149  0.00  0.00    +0.000 C 
ATOM      7  C   UNL     1       6.350   5.436  15.984  0.00  0.00    +0.000 C 
BRANCH   7   8
ATOM      8  C   UNL     1       7.119   6.330  16.929  0.00  0.00    +0.000 A 
ATOM      9  C   UNL     1       7.184   7.726  16.775  0.00  0.00    +0.000 A 
ATOM     10  C   UNL     1       7.856   8.534  17.702  0.00  0.00    +0.000 A 
ATOM     11  C   UNL     1       8.470   7.964  18.814  0.00  0.00    +0.000 A 
ATOM     12  C   UNL     1       8.411   6.586  18.998  0.00  0.00    +0.000 A 
ATOM     13  C   UNL     1       7.745   5.793  18.066  0.00  0.00    +0.000 A 
ATOM     14  F   UNL     1       7.674   4.470  18.288  0.00  0.00    +0.000 F 
ENDBRANCH   7   8
ENDBRANCH   2   5
BRANCH   3  15
ATOM     15  C   UNL     1       3.004   6.044  19.304  0.00  0.00    +0.000 C 
BRANCH  15  16
ATOM     16  C   UNL     1       2.226   7.354  19.337  0.00  0.00    +0.000 A 
ATOM     17  C   UNL     1       2.089   8.181  18.211  0.00  0.00    +0.000 A 
ATOM     18  C   UNL     1       1.336   9.355  18.278  0.00  0.00    +0.000 A 
ATOM     19  C   UNL     1       0.732   9.734  19.476  0.00  0.00    +0.000 A 
ATOM     20  C   UNL     1       0.897   8.949  20.614  0.00  0.00    +0.000 A 
ATOM     21  C   UNL     1       1.642   7.772  20.546  0.00  0.00    +0.000 A 
ENDBRANCH  15  16
BRANCH  15  22
ATOM     22  C   UNL     1       2.156   4.799  19.608  0.00  0.00    +0.000 A 
ATOM     23  C   UNL     1       2.136   4.286  20.908  0.00  0.00    +0.000 A 
ATOM     24  C   UNL     1       1.367   3.159  21.184  0.00  0.00    +0.000 A 
ATOM     25  C   UNL     1       0.626   2.575  20.164  0.00  0.00    +0.000 A 
ATOM     26  C   UNL     1       0.685   3.150  18.904  0.00  0.00    +0.000 A 
ATOM     27  N   UNL     1       1.426   4.241  18.599  0.00  0.00    +0.000 NA
ENDBRANCH  15  22
ENDBRANCH   3  15
TORSDOF 5
ENDMDL
MODEL 8
REMARK VINA RESULT:      -7.8      2.829      6.585
REMARK  Name = 
REMARK  5 active torsions:
REMARK  status: ('A' for Active; 'I' for Inactive)
REMARK    1  A    between atoms: C_2  and  C_17
REMARK    2  A    between atoms: N_3  and  C_4
REMARK    3  A    between atoms: C_4  and  C_5
REMARK    4  A    between atoms: C_4  and  C_11
REMARK    5  A    between atoms: C_19  and  C_20
REMARK                            x       y       z     vdW  Elec       q    Type
REMARK                         _______ _______ _______ _____ _____    ______ ____
ROOT
ATOM      1  O   UNL     1       4.436   3.746  18.702  0.00  0.00    +0.000 OA
ATOM      2  C   UNL     1       4.266   4.697  17.945  0.00  0.00    +0.000 C 
ATOM      3  N   UNL     1       3.618   5.849  18.304  0.00  0.00    +0.000 N 
ATOM      4  H   UNL     1       3.497   6.619  17.662  0.00  0.00    +0.000 HD
ENDROOT
BRANCH   2   5
ATOM      5  C   UNL     1       4.701   4.637  16.523  0.00  0.00    +0.000 C 
ATOM      6  C   UNL     1       5.923   3.814  16.178  0.00  0.00    +0.000 C 
ATOM      7  C   UNL     1       5.955   5.310  15.988  0.00  0.00    +0.000 C 
BRANCH   7   8
ATOM      8  C   UNL     1       6.802   6.222  16.845  0.00  0.00    +0.000 A 
ATOM      9  C   UNL     1       6.875   7.611  16.640  0.00  0.00    +0.000 A 
ATOM     10  C   UNL     1       7.623   8.437  17.489  0.00  0.00    +0.000 A 
ATOM     11  C   UNL     1       8.307   7.894  18.573  0.00  0.00    +0.000 A 
ATOM     12  C   UNL     1       8.242   6.524  18.807  0.00  0.00    +0.000 A 
ATOM     13  C   UNL     1       7.499   5.711  17.952  0.00  0.00    +0.000 A 
ATOM     14  F   UNL     1       7.426   4.398  18.223  0.00  0.00    +0.000 F 
ENDBRANCH   7   8
ENDBRANCH   2   5
BRANCH   3  15
ATOM     15  C   UNL     1       3.029   6.014  19.623  0.00  0.00    +0.000 C 
BRANCH  15  16
ATOM     16  C   UNL     1       2.205   7.294  19.682  0.00  0.00    +0.000 A 
ATOM     17  C   UNL     1       1.458   7.663  20.813  0.00  0.00    +0.000 A 
ATOM     18  C   UNL     1       0.747   8.865  20.836  0.00  0.00    +0.000 A 
ATOM     19  C   UNL     1       0.749   9.702  19.722  0.00  0.00    +0.000 A 
ATOM     20  C   UNL     1       1.444   9.328  18.575  0.00  0.00    +0.000 A 
ATOM     21  C   UNL     1       2.163   8.133  18.554  0.00  0.00    +0.000 A 
ENDBRANCH  15  16
BRANCH  15  22
ATOM     22  C   UNL     1       2.267   4.754  20.064  0.00  0.00    +0.000 A 
ATOM     23  C   UNL     1       1.341   4.174  19.191  0.00  0.00    +0.000 A 
ATOM     24  C   UNL     1       0.653   3.032  19.589  0.00  0.00    +0.000 A 
ATOM     25  C   UNL     1       0.908   2.486  20.840  0.00  0.00    +0.000 A 
ATOM     26  C   UNL     1       1.850   3.108  21.644  0.00  0.00    +0.000 A 
ATOM     27  N   UNL     1       2.534   4.222  21.291  0.00  0.00    +0.000 NA
ENDBRANCH  15  22
ENDBRANCH   3  15
TORSDOF 5
ENDMDL
MODEL 9
REMARK VINA RESULT:      -7.7      1.571      4.187
REMARK  Name = 
REMARK  5 active torsions:
REMARK  status: ('A' for Active; 'I' for Inactive)
REMARK    1  A    between atoms: C_2  and  C_17
REMARK    2  A    between atoms: N_3  and  C_4
REMARK    3  A    between atoms: C_4  and  C_5
REMARK    4  A    between atoms: C_4  and  C_11
REMARK    5  A    between atoms: C_19  and  C_20
REMARK                            x       y       z     vdW  Elec       q    Type
REMARK                         _______ _______ _______ _____ _____    ______ ____
ROOT
ATOM      1  O   UNL     1       2.189   8.161  20.097  0.00  0.00    +0.000 OA
ATOM      2  C   UNL     1       2.055   8.025  18.884  0.00  0.00    +0.000 C 
ATOM      3  N   UNL     1       2.591   6.985  18.172  0.00  0.00    +0.000 N 
ATOM      4  H   UNL     1       2.461   6.895  17.174  0.00  0.00    +0.000 HD
ENDROOT
BRANCH   2   5
ATOM      5  C   UNL     1       1.344   9.046  18.068  0.00  0.00    +0.000 C 
ATOM      6  C   UNL     1       1.785  10.489  18.177  0.00  0.00    +0.000 C 
ATOM      7  C   UNL     1       0.408  10.095  18.645  0.00  0.00    +0.000 C 
BRANCH   7   8
ATOM      8  C   UNL     1       0.012  10.098  20.104  0.00  0.00    +0.000 A 
ATOM      9  C   UNL     1      -0.305   8.925  20.811  0.00  0.00    +0.000 A 
ATOM     10  C   UNL     1      -0.611   8.954  22.178  0.00  0.00    +0.000 A 
ATOM     11  C   UNL     1      -0.595  10.160  22.875  0.00  0.00    +0.000 A 
ATOM     12  C   UNL     1      -0.273  11.335  22.203  0.00  0.00    +0.000 A 
ATOM     13  C   UNL     1       0.023  11.293  20.841  0.00  0.00    +0.000 A 
ATOM     14  F   UNL     1       0.365  12.438  20.228  0.00  0.00    +0.000 F 
ENDBRANCH   7   8
ENDBRANCH   2   5
BRANCH   3  15
ATOM     15  C   UNL     1       3.414   5.969  18.806  0.00  0.00    +0.000 C 
BRANCH  15  16
ATOM     16  C   UNL     1       2.563   4.776  19.223  0.00  0.00    +0.000 A 
ATOM     17  C   UNL     1       2.366   4.418  20.566  0.00  0.00    +0.000 A 
ATOM     18  C   UNL     1       1.548   3.337  20.902  0.00  0.00    +0.000 A 
ATOM     19  C   UNL     1       0.937   2.583  19.903  0.00  0.00    +0.000 A 
ATOM     20  C   UNL     1       1.160   2.894  18.564  0.00  0.00    +0.000 A 
ATOM     21  C   UNL     1       1.970   3.979  18.228  0.00  0.00    +0.000 A 
ENDBRANCH  15  16
BRANCH  15  22
ATOM     22  C   UNL     1       4.630   5.604  17.939  0.00  0.00    +0.000 A 
ATOM     23  C   UNL     1       4.695   6.071  16.623  0.00  0.00    +0.000 A 
ATOM     24  C   UNL     1       5.797   5.742  15.838  0.00  0.00    +0.000 A 
ATOM     25  C   UNL     1       6.812   4.966  16.383  0.00  0.00    +0.000 A 
ATOM     26  C   UNL     1       6.683   4.553  17.699  0.00  0.00    +0.000 A 
ATOM     27  N   UNL     1       5.624   4.849  18.489  0.00  0.00    +0.000 NA
ENDBRANCH  15  22
ENDBRANCH   3  15
TORSDOF 5
ENDMDL
