MODEL 1
REMARK VINA RESULT:      -8.4      0.000      0.000
REMARK  Name = 
REMARK  6 active torsions:
REMARK  status: ('A' for Active; 'I' for Inactive)
REMARK    1  A    between atoms: C_1  and  C_2
REMARK    2  A    between atoms: C_6  and  C_7
REMARK    3  A    between atoms: C_7  and  C_8
REMARK    4  A    between atoms: N_10  and  C_11
REMARK    5  A    between atoms: N_15  and  C_16
REMARK    6  A    between atoms: C_16  and  C_17
REMARK                            x       y       z     vdW  Elec       q    Type
REMARK                         _______ _______ _______ _____ _____    ______ ____
ROOT
ATOM      1  C   UNL     1       1.814   9.519  17.915  0.00  0.00    +0.000 C 
ATOM      2  O   UNL     1       2.191  10.647  17.555  0.00  0.00    +0.000 OA
ATOM      3  N   UNL     1       0.476   9.243  18.169  0.00  0.00    +0.000 N 
ATOM      4  H   UNL     1       0.307   8.555  18.896  0.00  0.00    +0.000 HD
ENDROOT
BRANCH   3   5
ATOM      5  C   UNL     1      -0.505  10.329  18.069  0.00  0.00    +0.000 C 
ATOM      6  C   UNL     1      -1.726   9.948  17.212  0.00  0.00    +0.000 C 
ATOM      7  C   UNL     1      -3.048  10.334  17.852  0.00  0.00    +0.000 C 
ATOM      8  C   UNL     1      -2.975  11.758  18.382  0.00  0.00    +0.000 C 
ATOM      9  N   UNL     1      -1.892  11.925  19.339  0.00  0.00    +0.000 N 
ATOM     10  C   UNL     1      -0.900  10.946  19.436  0.00  0.00    +0.000 C 
ATOM     11  O   UNL     1      -0.295  10.690  20.475  0.00  0.00    +0.000 OA
BRANCH   9  12
ATOM     12  C   UNL     1      -2.029  12.986  20.333  0.00  0.00    +0.000 C 
BRANCH  12  13
ATOM     13  C   UNL     1      -3.056  12.719  21.418  0.00  0.00    +0.000 A 
ATOM     14  C   UNL     1      -4.427  12.940  21.207  0.00  0.00    +0.000 A 
ATOM     15  C   UNL     1      -5.316  12.947  22.291  0.00  0.00    +0.000 A 
ATOM     16  C   UNL     1      -4.844  12.707  23.578  0.00  0.00    +0.000 A 
ATOM     17  F   UNL     1      -5.688  12.788  24.617  0.00  0.00    +0.000 F 
ATOM     18  C   UNL     1      -3.510  12.405  23.800  0.00  0.00    +0.000 A 
ATOM     19  C   UNL     1      -2.632  12.416  22.722  0.00  0.00    +0.000 A 
ATOM     20  F   UNL     1      -1.334  12.169  22.960  0.00  0.00    +0.000 F 
ENDBRANCH  12  13
ENDBRANCH   9  12
ENDBRANCH   3   5
BRANCH   1  21
ATOM     21  C   UNL     1       2.791   8.358  18.001  0.00  0.00    +0.000 C 
BRANCH  21  27
ATOM     22  C   UNL     1       1.576   1.639  19.347  0.00  0.00    +0.000 C 
ATOM     23  C   UNL     1       1.757   3.121  19.162  0.00  0.00    +0.000 A 
ATOM     24  C   UNL     1       2.071   3.642  17.905  0.00  0.00    +0.000 A 
ATOM     25  C   UNL     1       2.264   5.020  17.708  0.00  0.00    +0.000 A 
ATOM     26  C   UNL     1       2.172   5.902  18.804  0.00  0.00    +0.000 A 
ATOM     27  C   UNL     1       2.378   7.314  18.995  0.00  0.00    +0.000 A 
ATOM     28  C   UNL     1       2.078   7.580  20.318  0.00  0.00    +0.000 A 
ATOM     29  N   UNL     1       1.751   6.407  20.935  0.00  0.00    +0.000 N 
ATOM     30  C   UNL     1       1.822   5.362  20.044  0.00  0.00    +0.000 A 
ATOM     31  C   UNL     1       1.605   3.988  20.251  0.00  0.00    +0.000 A 
ATOM     32  H   UNL     1       1.501   6.308  21.909  0.00  0.00    +0.000 HD
ENDBRANCH  21  27
ENDBRANCH   1  21
TORSDOF 5
ENDMDL
MODEL 2
REMARK VINA RESULT:      -8.4      3.178      4.901
REMARK  Name = 
REMARK  6 active torsions:
REMARK  status: ('A' for Active; 'I' for Inactive)
REMARK    1  A    between atoms: C_1  and  C_2
REMARK    2  A    between atoms: C_6  and  C_7
REMARK    3  A    between atoms: C_7  and  C_8
REMARK    4  A    between atoms: N_10  and  C_11
REMARK    5  A    between atoms: N_15  and  C_16
REMARK    6  A    between atoms: C_16  and  C_17
REMARK                            x       y       z     vdW  Elec       q    Type
REMARK                         _______ _______ _______ _____ _____    ______ ____
ROOT
ATOM      1  C   UNL     1       2.117   5.894  20.310  0.00  0.00    +0.000 C 
ATOM      2  O   UNL     1       1.003   5.452  20.639  0.00  0.00    +0.000 OA
ATOM      3  N   UNL     1       2.344   7.256  20.149  0.00  0.00    +0.000 N 
ATOM      4  H   UNL     1       3.025   7.500  19.438  0.00  0.00    +0.000 HD
ENDROOT
BRANCH   3   5
ATOM      5  C   UNL     1       1.222   8.187  20.314  0.00  0.00    +0.000 C 
ATOM      6  C   UNL     1       0.956   8.539  21.789  0.00  0.00    +0.000 C 
ATOM      7  C   UNL     1       0.751  10.026  22.020  0.00  0.00    +0.000 C 
ATOM      8  C   UNL     1      -0.201  10.590  20.977  0.00  0.00    +0.000 C 
ATOM      9  N   UNL     1       0.279  10.358  19.623  0.00  0.00    +0.000 N 
ATOM     10  C   UNL     1       1.308   9.440  19.403  0.00  0.00    +0.000 C 
ATOM     11  O   UNL     1       2.124   9.536  18.489  0.00  0.00    +0.000 OA
BRANCH   9  12
ATOM     12  C   UNL     1      -0.163  11.284  18.583  0.00  0.00    +0.000 C 
BRANCH  12  13
ATOM     13  C   UNL     1      -1.642  11.216  18.251  0.00  0.00    +0.000 A 
ATOM     14  C   UNL     1      -2.570  12.098  18.828  0.00  0.00    +0.000 A 
ATOM     15  C   UNL     1      -3.945  11.848  18.720  0.00  0.00    +0.000 A 
ATOM     16  C   UNL     1      -4.395  10.735  18.015  0.00  0.00    +0.000 A 
ATOM     17  F   UNL     1      -5.708  10.463  17.978  0.00  0.00    +0.000 F 
ATOM     18  C   UNL     1      -3.502   9.896  17.368  0.00  0.00    +0.000 A 
ATOM     19  C   UNL     1      -2.139  10.142  17.494  0.00  0.00    +0.000 A 
ATOM     20  F   UNL     1      -1.285   9.293  16.903  0.00  0.00    +0.000 F 
ENDBRANCH  12  13
ENDBRANCH   9  12
ENDBRANCH   3   5
BRANCH   1  21
ATOM     21  C   UNL     1       3.313   4.968  20.160  0.00  0.00    +0.000 C 
BRANCH  21  27
ATOM     22  C   UNL     1       7.183   4.972  14.376  0.00  0.00    +0.000 C 
ATOM     23  C   UNL     1       6.241   4.934  15.547  0.00  0.00    +0.000 A 
ATOM     24  C   UNL     1       6.484   5.723  16.674  0.00  0.00    +0.000 A 
ATOM     25  C   UNL     1       5.630   5.693  17.790  0.00  0.00    +0.000 A 
ATOM     26  C   UNL     1       4.518   4.826  17.795  0.00  0.00    +0.000 A 
ATOM     27  C   UNL     1       3.503   4.476  18.756  0.00  0.00    +0.000 A 
ATOM     28  C   UNL     1       2.655   3.585  18.125  0.00  0.00    +0.000 A 
ATOM     29  N   UNL     1       3.128   3.350  16.867  0.00  0.00    +0.000 N 
ATOM     30  C   UNL     1       4.276   4.073  16.644  0.00  0.00    +0.000 A 
ATOM     31  C   UNL     1       5.109   4.110  15.512  0.00  0.00    +0.000 A 
ATOM     32  H   UNL     1       2.708   2.726  16.191  0.00  0.00    +0.000 HD
ENDBRANCH  21  27
ENDBRANCH   1  21
TORSDOF 5
ENDMDL
MODEL 3
REMARK VINA RESULT:      -8.4      3.475      9.217
REMARK  Name = 
REMARK  6 active torsions:
REMARK  status: ('A' for Active; 'I' for Inactive)
REMARK    1  A    between atoms: C_1  and  C_2
REMARK    2  A    between atoms: C_6  and  C_7
REMARK    3  A    between atoms: C_7  and  C_8
REMARK    4  A    between atoms: N_10  and  C_11
REMARK    5  A    between atoms: N_15  and  C_16
REMARK    6  A    between atoms: C_16  and  C_17
REMARK                            x       y       z     vdW  Elec       q    Type
REMARK                         _______ _______ _______ _____ _____    ______ ____
ROOT
ATOM      1  C   UNL     1      -0.039  11.336  21.454  0.00  0.00    +0.000 C 
ATOM      2  O   UNL     1       1.101  11.696  21.116  0.00  0.00    +0.000 OA
ATOM      3  N   UNL     1      -0.632  10.196  20.924  0.00  0.00    +0.000 N 
ATOM      4  H   UNL     1      -1.641  10.238  20.825  0.00  0.00    +0.000 HD
ENDROOT
BRANCH   3   5
ATOM      5  C   UNL     1       0.086   9.435  19.895  0.00  0.00    +0.000 C 
ATOM      6  C   UNL     1       0.461  10.296  18.675  0.00  0.00    +0.000 C 
ATOM      7  C   UNL     1       1.895  10.093  18.220  0.00  0.00    +0.000 C 
ATOM      8  C   UNL     1       2.219   8.608  18.162  0.00  0.00    +0.000 C 
ATOM      9  N   UNL     1       2.007   7.957  19.446  0.00  0.00    +0.000 N 
ATOM     10  C   UNL     1       1.283   8.615  20.442  0.00  0.00    +0.000 C 
ATOM     11  O   UNL     1       1.479   8.455  21.646  0.00  0.00    +0.000 OA
BRANCH   9  12
ATOM     12  C   UNL     1       2.780   6.749  19.724  0.00  0.00    +0.000 C 
BRANCH  12  13
ATOM     13  C   UNL     1       2.068   5.446  19.411  0.00  0.00    +0.000 A 
ATOM     14  C   UNL     1       1.287   4.782  20.371  0.00  0.00    +0.000 A 
ATOM     15  C   UNL     1       0.867   3.464  20.151  0.00  0.00    +0.000 A 
ATOM     16  C   UNL     1       1.202   2.816  18.965  0.00  0.00    +0.000 A 
ATOM     17  F   UNL     1       0.859   1.531  18.793  0.00  0.00    +0.000 F 
ATOM     18  C   UNL     1       1.901   3.478  17.968  0.00  0.00    +0.000 A 
ATOM     19  C   UNL     1       2.328   4.781  18.201  0.00  0.00    +0.000 A 
ATOM     20  F   UNL     1       3.047   5.392  17.247  0.00  0.00    +0.000 F 
ENDBRANCH  12  13
ENDBRANCH   9  12
ENDBRANCH   3   5
BRANCH   1  21
ATOM     21  C   UNL     1      -0.805  12.076  22.539  0.00  0.00    +0.000 C 
BRANCH  21  27
ATOM     22  C   UNL     1      -7.437  13.336  24.230  0.00  0.00    +0.000 C 
ATOM     23  C   UNL     1      -6.047  13.049  23.735  0.00  0.00    +0.000 A 
ATOM     24  C   UNL     1      -5.091  12.499  24.594  0.00  0.00    +0.000 A 
ATOM     25  C   UNL     1      -3.779  12.239  24.162  0.00  0.00    +0.000 A 
ATOM     26  C   UNL     1      -3.399  12.566  22.844  0.00  0.00    +0.000 A 
ATOM     27  C   UNL     1      -2.169  12.519  22.098  0.00  0.00    +0.000 A 
ATOM     28  C   UNL     1      -2.470  12.940  20.816  0.00  0.00    +0.000 A 
ATOM     29  N   UNL     1      -3.792  13.276  20.767  0.00  0.00    +0.000 N 
ATOM     30  C   UNL     1      -4.381  13.081  21.995  0.00  0.00    +0.000 A 
ATOM     31  C   UNL     1      -5.703  13.327  22.406  0.00  0.00    +0.000 A 
ATOM     32  H   UNL     1      -4.276  13.629  19.953  0.00  0.00    +0.000 HD
ENDBRANCH  21  27
ENDBRANCH   1  21
TORSDOF 5
ENDMDL
MODEL 4
REMARK VINA RESULT:      -8.3      3.431      5.400
REMARK  Name = 
REMARK  6 active torsions:
REMARK  status: ('A' for Active; 'I' for Inactive)
REMARK    1  A    between atoms: C_1  and  C_2
REMARK    2  A    between atoms: C_6  and  C_7
REMARK    3  A    between atoms: C_7  and  C_8
REMARK    4  A    between atoms: N_10  and  C_11
REMARK    5  A    between atoms: N_15  and  C_16
REMARK    6  A    between atoms: C_16  and  C_17
REMARK                            x       y       z     vdW  Elec       q    Type
REMARK                         _______ _______ _______ _____ _____    ______ ____
ROOT
ATOM      1  C   UNL     1       2.701   4.931  19.554  0.00  0.00    +0.000 C 
ATOM      2  O   UNL     1       1.552   4.497  19.370  0.00  0.00    +0.000 OA
ATOM      3  N   UNL     1       2.935   6.257  19.900  0.00  0.00    +0.000 N 
ATOM      4  H   UNL     1       3.801   6.650  19.547  0.00  0.00    +0.000 HD
ENDROOT
BRANCH   3   5
ATOM      5  C   UNL     1       1.797   7.179  19.988  0.00  0.00    +0.000 C 
ATOM      6  C   UNL     1       1.440   7.543  21.441  0.00  0.00    +0.000 C 
ATOM      7  C   UNL     1       1.209   9.030  21.644  0.00  0.00    +0.000 C 
ATOM      8  C   UNL     1       0.315   9.574  20.540  0.00  0.00    +0.000 C 
ATOM      9  N   UNL     1       0.877   9.333  19.220  0.00  0.00    +0.000 N 
ATOM     10  C   UNL     1       1.926   8.423  19.071  0.00  0.00    +0.000 C 
ATOM     11  O   UNL     1       2.794   8.518  18.206  0.00  0.00    +0.000 OA
BRANCH   9  12
ATOM     12  C   UNL     1       0.488  10.244  18.146  0.00  0.00    +0.000 C 
BRANCH  12  13
ATOM     13  C   UNL     1      -1.008  10.406  17.953  0.00  0.00    +0.000 A 
ATOM     14  C   UNL     1      -1.728   9.602  17.056  0.00  0.00    +0.000 A 
ATOM     15  C   UNL     1      -3.039   9.943  16.696  0.00  0.00    +0.000 A 
ATOM     16  C   UNL     1      -3.641  11.069  17.251  0.00  0.00    +0.000 A 
ATOM     17  F   UNL     1      -4.868  11.430  16.847  0.00  0.00    +0.000 F 
ATOM     18  C   UNL     1      -2.980  11.832  18.201  0.00  0.00    +0.000 A 
ATOM     19  C   UNL     1      -1.674  11.495  18.540  0.00  0.00    +0.000 A 
ATOM     20  F   UNL     1      -1.030  12.271  19.425  0.00  0.00    +0.000 F 
ENDBRANCH  12  13
ENDBRANCH   9  12
ENDBRANCH   3   5
BRANCH   1  21
ATOM     21  C   UNL     1       3.906   4.004  19.504  0.00  0.00    +0.000 C 
BRANCH  21  27
ATOM     22  C   UNL     1       7.176   4.975  13.439  0.00  0.00    +0.000 C 
ATOM     23  C   UNL     1       6.590   4.787  14.810  0.00  0.00    +0.000 A 
ATOM     24  C   UNL     1       5.453   3.995  14.990  0.00  0.00    +0.000 A 
ATOM     25  C   UNL     1       4.874   3.818  16.258  0.00  0.00    +0.000 A 
ATOM     26  C   UNL     1       5.426   4.477  17.377  0.00  0.00    +0.000 A 
ATOM     27  C   UNL     1       5.071   4.594  18.767  0.00  0.00    +0.000 A 
ATOM     28  C   UNL     1       6.059   5.355  19.363  0.00  0.00    +0.000 A 
ATOM     29  N   UNL     1       6.954   5.734  18.404  0.00  0.00    +0.000 N 
ATOM     30  C   UNL     1       6.582   5.235  17.178  0.00  0.00    +0.000 A 
ATOM     31  C   UNL     1       7.185   5.402  15.919  0.00  0.00    +0.000 A 
ATOM     32  H   UNL     1       7.770   6.310  18.560  0.00  0.00    +0.000 HD
ENDBRANCH  21  27
ENDBRANCH   1  21
TORSDOF 5
ENDMDL
MODEL 5
REMARK VINA RESULT:      -8.3      2.885      5.003
REMARK  Name = 
REMARK  6 active torsions:
REMARK  status: ('A' for Active; 'I' for Inactive)
REMARK    1  A    between atoms: C_1  and  C_2
REMARK    2  A    between atoms: C_6  and  C_7
REMARK    3  A    between atoms: C_7  and  C_8
REMARK    4  A    between atoms: N_10  and  C_11
REMARK    5  A    between atoms: N_15  and  C_16
REMARK    6  A    between atoms: C_16  and  C_17
REMARK                            x       y       z     vdW  Elec       q    Type
REMARK                         _______ _______ _______ _____ _____    ______ ____
ROOT
ATOM      1  C   UNL     1       1.651   5.626  20.697  0.00  0.00    +0.000 C 
ATOM      2  O   UNL     1       0.504   5.290  20.358  0.00  0.00    +0.000 OA
ATOM      3  N   UNL     1       1.957   6.939  21.034  0.00  0.00    +0.000 N 
ATOM      4  H   UNL     1       2.898   7.238  20.801  0.00  0.00    +0.000 HD
ENDROOT
BRANCH   3   5
ATOM      5  C   UNL     1       0.911   7.963  20.927  0.00  0.00    +0.000 C 
ATOM      6  C   UNL     1       0.533   8.569  22.290  0.00  0.00    +0.000 C 
ATOM      7  C   UNL     1       0.439  10.085  22.264  0.00  0.00    +0.000 C 
ATOM      8  C   UNL     1      -0.353  10.537  21.047  0.00  0.00    +0.000 C 
ATOM      9  N   UNL     1       0.236  10.053  19.807  0.00  0.00    +0.000 N 
ATOM     10  C   UNL     1       1.197   9.041  19.848  0.00  0.00    +0.000 C 
ATOM     11  O   UNL     1       2.104   8.928  19.027  0.00  0.00    +0.000 OA
BRANCH   9  12
ATOM     12  C   UNL     1      -0.019  10.826  18.594  0.00  0.00    +0.000 C 
BRANCH  12  13
ATOM     13  C   UNL     1      -1.428  10.707  18.042  0.00  0.00    +0.000 A 
ATOM     14  C   UNL     1      -1.765   9.739  17.082  0.00  0.00    +0.000 A 
ATOM     15  C   UNL     1      -2.984   9.821  16.396  0.00  0.00    +0.000 A 
ATOM     16  C   UNL     1      -3.877  10.849  16.685  0.00  0.00    +0.000 A 
ATOM     17  F   UNL     1      -5.008  10.962  15.972  0.00  0.00    +0.000 F 
ATOM     18  C   UNL     1      -3.603  11.767  17.685  0.00  0.00    +0.000 A 
ATOM     19  C   UNL     1      -2.384  11.689  18.351  0.00  0.00    +0.000 A 
ATOM     20  F   UNL     1      -2.111  12.614  19.283  0.00  0.00    +0.000 F 
ENDBRANCH  12  13
ENDBRANCH   9  12
ENDBRANCH   3   5
BRANCH   1  21
ATOM     21  C   UNL     1       2.756   4.594  20.852  0.00  0.00    +0.000 C 
BRANCH  21  27
ATOM     22  C   UNL     1       5.951   5.337  14.714  0.00  0.00    +0.000 C 
ATOM     23  C   UNL     1       5.191   5.073  15.984  0.00  0.00    +0.000 A 
ATOM     24  C   UNL     1       4.977   6.101  16.906  0.00  0.00    +0.000 A 
ATOM     25  C   UNL     1       4.287   5.877  18.110  0.00  0.00    +0.000 A 
ATOM     26  C   UNL     1       3.823   4.581  18.418  0.00  0.00    +0.000 A 
ATOM     27  C   UNL     1       3.170   3.976  19.550  0.00  0.00    +0.000 A 
ATOM     28  C   UNL     1       2.934   2.657  19.209  0.00  0.00    +0.000 A 
ATOM     29  N   UNL     1       3.447   2.430  17.965  0.00  0.00    +0.000 N 
ATOM     30  C   UNL     1       4.017   3.578  17.466  0.00  0.00    +0.000 A 
ATOM     31  C   UNL     1       4.687   3.793  16.248  0.00  0.00    +0.000 A 
ATOM     32  H   UNL     1       3.427   1.546  17.475  0.00  0.00    +0.000 HD
ENDBRANCH  21  27
ENDBRANCH   1  21
TORSDOF 5
ENDMDL
MODEL 6
REMARK VINA RESULT:      -8.2      3.457      9.352
REMARK  Name = 
REMARK  6 active torsions:
REMARK  status: ('A' for Active; 'I' for Inactive)
REMARK    1  A    between atoms: C_1  and  C_2
REMARK    2  A    between atoms: C_6  and  C_7
REMARK    3  A    between atoms: C_7  and  C_8
REMARK    4  A    between atoms: N_10  and  C_11
REMARK    5  A    between atoms: N_15  and  C_16
REMARK    6  A    between atoms: C_16  and  C_17
REMARK                            x       y       z     vdW  Elec       q    Type
REMARK                         _______ _______ _______ _____ _____    ______ ____
ROOT
ATOM      1  C   UNL     1      -0.750  11.051  19.446  0.00  0.00    +0.000 C 
ATOM      2  O   UNL     1      -1.615  10.373  18.866  0.00  0.00    +0.000 OA
ATOM      3  N   UNL     1       0.561  10.606  19.574  0.00  0.00    +0.000 N 
ATOM      4  H   UNL     1       1.036  10.900  20.421  0.00  0.00    +0.000 HD
ENDROOT
BRANCH   3   5
ATOM      5  C   UNL     1       0.913   9.277  19.064  0.00  0.00    +0.000 C 
ATOM      6  C   UNL     1       1.735   9.339  17.764  0.00  0.00    +0.000 C 
ATOM      7  C   UNL     1       2.938   8.412  17.773  0.00  0.00    +0.000 C 
ATOM      8  C   UNL     1       2.534   7.038  18.288  0.00  0.00    +0.000 C 
ATOM      9  N   UNL     1       1.949   7.109  19.619  0.00  0.00    +0.000 N 
ATOM     10  C   UNL     1       1.545   8.344  20.130  0.00  0.00    +0.000 C 
ATOM     11  O   UNL     1       1.555   8.621  21.328  0.00  0.00    +0.000 OA
BRANCH   9  12
ATOM     12  C   UNL     1       2.045   5.919  20.460  0.00  0.00    +0.000 C 
BRANCH  12  13
ATOM     13  C   UNL     1       2.417   4.643  19.727  0.00  0.00    +0.000 A 
ATOM     14  C   UNL     1       1.453   3.681  19.383  0.00  0.00    +0.000 A 
ATOM     15  C   UNL     1       1.849   2.407  18.956  0.00  0.00    +0.000 A 
ATOM     16  C   UNL     1       3.202   2.100  18.845  0.00  0.00    +0.000 A 
ATOM     17  F   UNL     1       3.573   0.856  18.506  0.00  0.00    +0.000 F 
ATOM     18  C   UNL     1       4.170   3.058  19.099  0.00  0.00    +0.000 A 
ATOM     19  C   UNL     1       3.770   4.316  19.538  0.00  0.00    +0.000 A 
ATOM     20  F   UNL     1       4.720   5.217  19.827  0.00  0.00    +0.000 F 
ENDBRANCH  12  13
ENDBRANCH   9  12
ENDBRANCH   3   5
BRANCH   1  21
ATOM     21  C   UNL     1      -1.063  12.446  19.961  0.00  0.00    +0.000 C 
BRANCH  21  27
ATOM     22  C   UNL     1      -6.683  12.922  24.038  0.00  0.00    +0.000 C 
ATOM     23  C   UNL     1      -5.395  12.859  23.266  0.00  0.00    +0.000 A 
ATOM     24  C   UNL     1      -5.393  13.032  21.879  0.00  0.00    +0.000 A 
ATOM     25  C   UNL     1      -4.206  12.958  21.130  0.00  0.00    +0.000 A 
ATOM     26  C   UNL     1      -2.987  12.671  21.780  0.00  0.00    +0.000 A 
ATOM     27  C   UNL     1      -1.632  12.447  21.349  0.00  0.00    +0.000 A 
ATOM     28  C   UNL     1      -0.881  12.258  22.494  0.00  0.00    +0.000 A 
ATOM     29  N   UNL     1      -1.713  12.311  23.574  0.00  0.00    +0.000 N 
ATOM     30  C   UNL     1      -3.008  12.538  23.170  0.00  0.00    +0.000 A 
ATOM     31  C   UNL     1      -4.185  12.630  23.934  0.00  0.00    +0.000 A 
ATOM     32  H   UNL     1      -1.431  12.190  24.537  0.00  0.00    +0.000 HD
ENDBRANCH  21  27
ENDBRANCH   1  21
TORSDOF 5
ENDMDL
MODEL 7
REMARK VINA RESULT:      -8.1      7.560     11.155
REMARK  Name = 
REMARK  6 active torsions:
REMARK  status: ('A' for Active; 'I' for Inactive)
REMARK    1  A    between atoms: C_1  and  C_2
REMARK    2  A    between atoms: C_6  and  C_7
REMARK    3  A    between atoms: C_7  and  C_8
REMARK    4  A    between atoms: N_10  and  C_11
REMARK    5  A    between atoms: N_15  and  C_16
REMARK    6  A    between atoms: C_16  and  C_17
REMARK                            x       y       z     vdW  Elec       q    Type
REMARK                         _______ _______ _______ _____ _____    ______ ____
ROOT
ATOM      1  C   UNL     1       8.348   9.003  17.998  0.00  0.00    +0.000 C 
ATOM      2  O   UNL     1       8.910   8.457  18.962  0.00  0.00    +0.000 OA
ATOM      3  N   UNL     1       7.510   8.293  17.145  0.00  0.00    +0.000 N 
ATOM      4  H   UNL     1       7.510   8.605  16.180  0.00  0.00    +0.000 HD
ENDROOT
BRANCH   3   5
ATOM      5  C   UNL     1       7.335   6.852  17.357  0.00  0.00    +0.000 C 
ATOM      6  C   UNL     1       7.810   6.396  18.748  0.00  0.00    +0.000 C 
ATOM      7  C   UNL     1       6.826   5.470  19.441  0.00  0.00    +0.000 C 
ATOM      8  C   UNL     1       6.346   4.399  18.473  0.00  0.00    +0.000 C 
ATOM      9  N   UNL     1       5.736   4.977  17.285  0.00  0.00    +0.000 N 
ATOM     10  C   UNL     1       5.916   6.334  17.007  0.00  0.00    +0.000 C 
ATOM     11  O   UNL     1       5.089   7.024  16.414  0.00  0.00    +0.000 OA
BRANCH   9  12
ATOM     12  C   UNL     1       4.750   4.168  16.573  0.00  0.00    +0.000 C 
BRANCH  12  13
ATOM     13  C   UNL     1       3.611   3.645  17.430  0.00  0.00    +0.000 A 
ATOM     14  C   UNL     1       3.476   2.279  17.724  0.00  0.00    +0.000 A 
ATOM     15  C   UNL     1       2.286   1.790  18.280  0.00  0.00    +0.000 A 
ATOM     16  C   UNL     1       1.243   2.666  18.567  0.00  0.00    +0.000 A 
ATOM     17  F   UNL     1       0.081   2.181  19.030  0.00  0.00    +0.000 F 
ATOM     18  C   UNL     1       1.383   4.029  18.362  0.00  0.00    +0.000 A 
ATOM     19  C   UNL     1       2.562   4.504  17.796  0.00  0.00    +0.000 A 
ATOM     20  F   UNL     1       2.664   5.820  17.558  0.00  0.00    +0.000 F 
ENDBRANCH  12  13
ENDBRANCH   9  12
ENDBRANCH   3   5
BRANCH   1  21
ATOM     21  C   UNL     1       8.475  10.499  17.760  0.00  0.00    +0.000 C 
BRANCH  21  27
ATOM     22  C   UNL     1      12.333  15.980  19.631  0.00  0.00    +0.000 C 
ATOM     23  C   UNL     1      11.558  14.727  19.330  0.00  0.00    +0.000 A 
ATOM     24  C   UNL     1      11.099  14.475  18.034  0.00  0.00    +0.000 A 
ATOM     25  C   UNL     1      10.355  13.322  17.730  0.00  0.00    +0.000 A 
ATOM     26  C   UNL     1      10.033  12.407  18.754  0.00  0.00    +0.000 A 
ATOM     27  C   UNL     1       9.251  11.201  18.834  0.00  0.00    +0.000 A 
ATOM     28  C   UNL     1       9.367  10.742  20.132  0.00  0.00    +0.000 A 
ATOM     29  N   UNL     1      10.132  11.624  20.840  0.00  0.00    +0.000 N 
ATOM     30  C   UNL     1      10.533  12.663  20.033  0.00  0.00    +0.000 A 
ATOM     31  C   UNL     1      11.296  13.801  20.348  0.00  0.00    +0.000 A 
ATOM     32  H   UNL     1      10.366  11.541  21.819  0.00  0.00    +0.000 HD
ENDBRANCH  21  27
ENDBRANCH   1  21
TORSDOF 5
ENDMDL
MODEL 8
REMARK VINA RESULT:      -8.1      4.223      9.809
REMARK  Name = 
REMARK  6 active torsions:
REMARK  status: ('A' for Active; 'I' for Inactive)
REMARK    1  A    between atoms: C_1  and  C_2
REMARK    2  A    between atoms: C_6  and  C_7
REMARK    3  A    between atoms: C_7  and  C_8
REMARK    4  A    between atoms: N_10  and  C_11
REMARK    5  A    between atoms: N_15  and  C_16
REMARK    6  A    between atoms: C_16  and  C_17
REMARK                            x       y       z     vdW  Elec       q    Type
REMARK                         _______ _______ _______ _____ _____    ______ ____
ROOT
ATOM      1  C   UNL     1       1.424   6.835  20.730  0.00  0.00    +0.000 C 
ATOM      2  O   UNL     1       2.572   7.302  20.645  0.00  0.00    +0.000 OA
ATOM      3  N   UNL     1       1.156   5.500  20.451  0.00  0.00    +0.000 N 
ATOM      4  H   UNL     1       0.242   5.316  20.050  0.00  0.00    +0.000 HD
ENDROOT
BRANCH   3   5
ATOM      5  C   UNL     1       2.249   4.638  19.986  0.00  0.00    +0.000 C 
ATOM      6  C   UNL     1       2.065   3.169  20.407  0.00  0.00    +0.000 C 
ATOM      7  C   UNL     1       2.323   2.188  19.276  0.00  0.00    +0.000 C 
ATOM      8  C   UNL     1       3.605   2.558  18.547  0.00  0.00    +0.000 C 
ATOM      9  N   UNL     1       3.561   3.917  18.027  0.00  0.00    +0.000 N 
ATOM     10  C   UNL     1       2.573   4.796  18.477  0.00  0.00    +0.000 C 
ATOM     11  O   UNL     1       2.102   5.701  17.792  0.00  0.00    +0.000 OA
BRANCH   9  12
ATOM     12  C   UNL     1       4.394   4.222  16.867  0.00  0.00    +0.000 C 
BRANCH  12  13
ATOM     13  C   UNL     1       5.631   5.048  17.165  0.00  0.00    +0.000 A 
ATOM     14  C   UNL     1       6.682   4.547  17.951  0.00  0.00    +0.000 A 
ATOM     15  C   UNL     1       7.676   5.409  18.434  0.00  0.00    +0.000 A 
ATOM     16  C   UNL     1       7.638   6.762  18.111  0.00  0.00    +0.000 A 
ATOM     17  F   UNL     1       8.551   7.593  18.637  0.00  0.00    +0.000 F 
ATOM     18  C   UNL     1       6.658   7.265  17.271  0.00  0.00    +0.000 A 
ATOM     19  C   UNL     1       5.666   6.406  16.809  0.00  0.00    +0.000 A 
ATOM     20  F   UNL     1       4.696   6.917  16.036  0.00  0.00    +0.000 F 
ENDBRANCH  12  13
ENDBRANCH   9  12
ENDBRANCH   3   5
BRANCH   1  21
ATOM     21  C   UNL     1       0.269   7.683  21.237  0.00  0.00    +0.000 C 
BRANCH  21  27
ATOM     22  C   UNL     1      -0.974  14.363  22.742  0.00  0.00    +0.000 C 
ATOM     23  C   UNL     1      -0.702  12.957  22.285  0.00  0.00    +0.000 A 
ATOM     24  C   UNL     1      -1.120  11.870  23.057  0.00  0.00    +0.000 A 
ATOM     25  C   UNL     1      -0.862  10.546  22.663  0.00  0.00    +0.000 A 
ATOM     26  C   UNL     1      -0.137  10.298  21.479  0.00  0.00    +0.000 A 
ATOM     27  C   UNL     1       0.368   9.121  20.821  0.00  0.00    +0.000 A 
ATOM     28  C   UNL     1       0.963   9.549  19.650  0.00  0.00    +0.000 A 
ATOM     29  N   UNL     1       0.884  10.910  19.593  0.00  0.00    +0.000 N 
ATOM     30  C   UNL     1       0.239  11.399  20.706  0.00  0.00    +0.000 A 
ATOM     31  C   UNL     1      -0.031  12.728  21.077  0.00  0.00    +0.000 A 
ATOM     32  H   UNL     1       1.253  11.488  18.850  0.00  0.00    +0.000 HD
ENDBRANCH  21  27
ENDBRANCH   1  21
TORSDOF 5
ENDMDL
MODEL 9
REMARK VINA RESULT:      -8.0      4.112      9.831
REMARK  Name = 
REMARK  6 active torsions:
REMARK  status: ('A' for Active; 'I' for Inactive)
REMARK    1  A    between atoms: C_1  and  C_2
REMARK    2  A    between atoms: C_6  and  C_7
REMARK    3  A    between atoms: C_7  and  C_8
REMARK    4  A    between atoms: N_10  and  C_11
REMARK    5  A    between atoms: N_15  and  C_16
REMARK    6  A    between atoms: C_16  and  C_17
REMARK                            x       y       z     vdW  Elec       q    Type
REMARK                         _______ _______ _______ _____ _____    ______ ____
ROOT
ATOM      1  C   UNL     1       1.168   7.855  21.055  0.00  0.00    +0.000 C 
ATOM      2  O   UNL     1       2.230   8.187  21.607  0.00  0.00    +0.000 OA
ATOM      3  N   UNL     1       1.034   6.634  20.404  0.00  0.00    +0.000 N 
ATOM      4  H   UNL     1       0.413   6.637  19.601  0.00  0.00    +0.000 HD
ENDROOT
BRANCH   3   5
ATOM      5  C   UNL     1       2.197   5.744  20.316  0.00  0.00    +0.000 C 
ATOM      6  C   UNL     1       2.055   4.494  21.203  0.00  0.00    +0.000 C 
ATOM      7  C   UNL     1       2.439   3.210  20.490  0.00  0.00    +0.000 C 
ATOM      8  C   UNL     1       3.751   3.400  19.743  0.00  0.00    +0.000 C 
ATOM      9  N   UNL     1       3.677   4.497  18.789  0.00  0.00    +0.000 N 
ATOM     10  C   UNL     1       2.619   5.405  18.863  0.00  0.00    +0.000 C 
ATOM     11  O   UNL     1       2.154   5.991  17.887  0.00  0.00    +0.000 OA
BRANCH   9  12
ATOM     12  C   UNL     1       4.574   4.449  17.638  0.00  0.00    +0.000 C 
BRANCH  12  13
ATOM     13  C   UNL     1       5.823   5.302  17.763  0.00  0.00    +0.000 A 
ATOM     14  C   UNL     1       6.839   4.993  18.682  0.00  0.00    +0.000 A 
ATOM     15  C   UNL     1       7.841   5.930  18.968  0.00  0.00    +0.000 A 
ATOM     16  C   UNL     1       7.846   7.162  18.319  0.00  0.00    +0.000 A 
ATOM     17  F   UNL     1       8.765   8.081  18.652  0.00  0.00    +0.000 F 
ATOM     18  C   UNL     1       6.902   7.457  17.349  0.00  0.00    +0.000 A 
ATOM     19  C   UNL     1       5.902   6.528  17.082  0.00  0.00    +0.000 A 
ATOM     20  F   UNL     1       4.967   6.848  16.175  0.00  0.00    +0.000 F 
ENDBRANCH  12  13
ENDBRANCH   9  12
ENDBRANCH   3   5
BRANCH   1  21
ATOM     21  C   UNL     1      -0.071   8.732  21.148  0.00  0.00    +0.000 C 
BRANCH  21  27
ATOM     22  C   UNL     1      -1.321  15.509  20.182  0.00  0.00    +0.000 C 
ATOM     23  C   UNL     1      -1.057  14.031  20.255  0.00  0.00    +0.000 A 
ATOM     24  C   UNL     1      -1.405  13.307  21.398  0.00  0.00    +0.000 A 
ATOM     25  C   UNL     1      -1.151  11.928  21.500  0.00  0.00    +0.000 A 
ATOM     26  C   UNL     1      -0.503  11.257  20.442  0.00  0.00    +0.000 A 
ATOM     27  C   UNL     1      -0.024   9.916  20.229  0.00  0.00    +0.000 A 
ATOM     28  C   UNL     1       0.485   9.880  18.944  0.00  0.00    +0.000 A 
ATOM     29  N   UNL     1       0.380  11.126  18.398  0.00  0.00    +0.000 N 
ATOM     30  C   UNL     1      -0.197  11.994  19.296  0.00  0.00    +0.000 A 
ATOM     31  C   UNL     1      -0.464  13.369  19.172  0.00  0.00    +0.000 A 
ATOM     32  H   UNL     1       0.688  11.387  17.472  0.00  0.00    +0.000 HD
ENDBRANCH  21  27
ENDBRANCH   1  21
TORSDOF 5
ENDMDL
