MODEL 1
REMARK VINA RESULT:      -9.5      0.000      0.000
REMARK  Name = 
REMARK  4 active torsions:
REMARK  status: ('A' for Active; 'I' for Inactive)
REMARK    1  A    between atoms: C_7  and  C_8
REMARK    2  A    between atoms: N_14  and  C_15
REMARK    3  A    between atoms: C_19  and  N_20
REMARK    4  A    between atoms: C_24  and  O_25
REMARK                            x       y       z     vdW  Elec       q    Type
REMARK                         _______ _______ _______ _____ _____    ______ ____
ROOT
ATOM      1  O   UNL     1       2.658   8.217  17.463  0.00  0.00    +0.000 OA
ATOM      2  C   UNL     1       2.177   8.184  18.580  0.00  0.00    +0.000 C 
ATOM      3  C   UNL     1       1.390   9.300  19.114  0.00  0.00    +0.000 A 
ATOM      4  C   UNL     1       1.069  10.496  18.499  0.00  0.00    +0.000 A 
ATOM      5  C   UNL     1       0.321  11.415  19.234  0.00  0.00    +0.000 A 
ATOM      6  C   UNL     1      -0.074  11.123  20.554  0.00  0.00    +0.000 A 
ATOM      7  C   UNL     1       0.265   9.903  21.169  0.00  0.00    +0.000 A 
ATOM      8  C   UNL     1       1.000   8.992  20.411  0.00  0.00    +0.000 A 
ATOM      9  C   UNL     1       1.501   7.632  20.771  0.00  0.00    +0.000 C 
ATOM     10  N   UNL     1       2.226   7.204  19.579  0.00  0.00    +0.000 N 
ENDROOT
BRANCH  10  11
ATOM     11  C   UNL     1       2.967   5.991  19.529  0.00  0.00    +0.000 A 
ATOM     12  C   UNL     1       2.568   4.860  20.253  0.00  0.00    +0.000 A 
ATOM     13  C   UNL     1       3.235   3.640  20.120  0.00  0.00    +0.000 A 
ATOM     14  C   UNL     1       4.316   3.523  19.253  0.00  0.00    +0.000 A 
ATOM     15  C   UNL     1       4.759   4.644  18.544  0.00  0.00    +0.000 A 
ATOM     16  C   UNL     1       4.100   5.876  18.703  0.00  0.00    +0.000 A 
BRANCH  15  17
ATOM     17  N   UNL     1       5.825   4.511  17.616  0.00  0.00    +0.000 N 
ATOM     18  C   UNL     1       5.710   4.186  16.285  0.00  0.00    +0.000 A 
ATOM     19  N   UNL     1       6.880   4.234  15.692  0.00  0.00    +0.000 NA
ATOM     20  N   UNL     1       7.811   4.565  16.645  0.00  0.00    +0.000 NA
ATOM     21  C   UNL     1       7.177   4.717  17.786  0.00  0.00    +0.000 A 
BRANCH  21  22
ATOM     22  O   UNL     1       7.759   4.940  18.957  0.00  0.00    +0.000 OA
ATOM     23  F   UNL     1       8.227   6.267  19.063  0.00  0.00    +0.000 F 
ENDBRANCH  21  22
ENDBRANCH  15  17
ENDBRANCH  10  11
BRANCH   7  24
ATOM     24  C   UNL     1      -0.134   9.599  22.586  0.00  0.00    +0.000 C 
ATOM     25  F   UNL     1      -0.942   8.511  22.709  0.00  0.00    +0.000 F 
ATOM     26  F   UNL     1       0.943   9.363  23.385  0.00  0.00    +0.000 F 
ATOM     27  F   UNL     1      -0.802  10.634  23.166  0.00  0.00    +0.000 F 
ENDBRANCH   7  24
TORSDOF 4
ENDMDL
MODEL 2
REMARK VINA RESULT:      -9.3      1.497      1.771
REMARK  Name = 
REMARK  4 active torsions:
REMARK  status: ('A' for Active; 'I' for Inactive)
REMARK    1  A    between atoms: C_7  and  C_8
REMARK    2  A    between atoms: N_14  and  C_15
REMARK    3  A    between atoms: C_19  and  N_20
REMARK    4  A    between atoms: C_24  and  O_25
REMARK                            x       y       z     vdW  Elec       q    Type
REMARK                         _______ _______ _______ _____ _____    ______ ____
ROOT
ATOM      1  O   UNL     1       2.468   8.782  17.183  0.00  0.00    +0.000 OA
ATOM      2  C   UNL     1       2.032   8.610  18.306  0.00  0.00    +0.000 C 
ATOM      3  C   UNL     1       1.389   9.692  19.058  0.00  0.00    +0.000 A 
ATOM      4  C   UNL     1       1.170  10.999  18.665  0.00  0.00    +0.000 A 
ATOM      5  C   UNL     1       0.554  11.850  19.581  0.00  0.00    +0.000 A 
ATOM      6  C   UNL     1       0.186  11.382  20.857  0.00  0.00    +0.000 A 
ATOM      7  C   UNL     1       0.420  10.049  21.246  0.00  0.00    +0.000 A 
ATOM      8  C   UNL     1       1.023   9.211  20.309  0.00  0.00    +0.000 A 
ATOM      9  C   UNL     1       1.393   7.767  20.414  0.00  0.00    +0.000 C 
ATOM     10  N   UNL     1       2.019   7.477  19.128  0.00  0.00    +0.000 N 
ENDROOT
BRANCH  10  11
ATOM     11  C   UNL     1       2.626   6.222  18.840  0.00  0.00    +0.000 A 
ATOM     12  C   UNL     1       1.926   5.019  18.993  0.00  0.00    +0.000 A 
ATOM     13  C   UNL     1       2.487   3.799  18.609  0.00  0.00    +0.000 A 
ATOM     14  C   UNL     1       3.762   3.757  18.056  0.00  0.00    +0.000 A 
ATOM     15  C   UNL     1       4.498   4.939  17.923  0.00  0.00    +0.000 A 
ATOM     16  C   UNL     1       3.938   6.160  18.337  0.00  0.00    +0.000 A 
BRANCH  15  17
ATOM     17  N   UNL     1       5.776   4.904  17.305  0.00  0.00    +0.000 N 
ATOM     18  C   UNL     1       6.969   4.601  17.918  0.00  0.00    +0.000 A 
ATOM     19  N   UNL     1       7.947   4.572  17.043  0.00  0.00    +0.000 NA
ATOM     20  N   UNL     1       7.414   4.894  15.819  0.00  0.00    +0.000 NA
ATOM     21  C   UNL     1       6.126   5.101  15.986  0.00  0.00    +0.000 A 
BRANCH  21  22
ATOM     22  O   UNL     1       5.295   5.531  15.047  0.00  0.00    +0.000 OA
ATOM     23  F   UNL     1       4.941   6.883  15.241  0.00  0.00    +0.000 F 
ENDBRANCH  21  22
ENDBRANCH  15  17
ENDBRANCH  10  11
BRANCH   7  24
ATOM     24  C   UNL     1       0.050   9.552  22.616  0.00  0.00    +0.000 C 
ATOM     25  F   UNL     1       1.112   9.124  23.351  0.00  0.00    +0.000 F 
ATOM     26  F   UNL     1      -0.567  10.509  23.361  0.00  0.00    +0.000 F 
ATOM     27  F   UNL     1      -0.820   8.505  22.565  0.00  0.00    +0.000 F 
ENDBRANCH   7  24
TORSDOF 4
ENDMDL
MODEL 3
REMARK VINA RESULT:      -9.2      1.007      1.259
REMARK  Name = 
REMARK  4 active torsions:
REMARK  status: ('A' for Active; 'I' for Inactive)
REMARK    1  A    between atoms: C_7  and  C_8
REMARK    2  A    between atoms: N_14  and  C_15
REMARK    3  A    between atoms: C_19  and  N_20
REMARK    4  A    between atoms: C_24  and  O_25
REMARK                            x       y       z     vdW  Elec       q    Type
REMARK                         _______ _______ _______ _____ _____    ______ ____
ROOT
ATOM      1  O   UNL     1       2.180   9.099  17.310  0.00  0.00    +0.000 OA
ATOM      2  C   UNL     1       1.793   8.903  18.446  0.00  0.00    +0.000 C 
ATOM      3  C   UNL     1       1.021   9.909  19.184  0.00  0.00    +0.000 A 
ATOM      4  C   UNL     1       0.617  11.160  18.760  0.00  0.00    +0.000 A 
ATOM      5  C   UNL     1      -0.093  11.947  19.666  0.00  0.00    +0.000 A 
ATOM      6  C   UNL     1      -0.369  11.471  20.962  0.00  0.00    +0.000 A 
ATOM      7  C   UNL     1       0.054  10.196  21.382  0.00  0.00    +0.000 A 
ATOM      8  C   UNL     1       0.749   9.420  20.455  0.00  0.00    +0.000 A 
ATOM      9  C   UNL     1       1.316   8.045  20.592  0.00  0.00    +0.000 C 
ATOM     10  N   UNL     1       1.952   7.804  19.300  0.00  0.00    +0.000 N 
ENDROOT
BRANCH  10  11
ATOM     11  C   UNL     1       2.720   6.637  19.033  0.00  0.00    +0.000 A 
ATOM     12  C   UNL     1       2.351   5.386  19.542  0.00  0.00    +0.000 A 
ATOM     13  C   UNL     1       3.046   4.226  19.192  0.00  0.00    +0.000 A 
ATOM     14  C   UNL     1       4.124   4.291  18.316  0.00  0.00    +0.000 A 
ATOM     15  C   UNL     1       4.537   5.532  17.819  0.00  0.00    +0.000 A 
ATOM     16  C   UNL     1       3.850   6.698  18.197  0.00  0.00    +0.000 A 
BRANCH  15  17
ATOM     17  N   UNL     1       5.600   5.592  16.880  0.00  0.00    +0.000 N 
ATOM     18  C   UNL     1       5.539   5.225  15.556  0.00  0.00    +0.000 A 
ATOM     19  N   UNL     1       6.672   5.490  14.948  0.00  0.00    +0.000 NA
ATOM     20  N   UNL     1       7.528   6.016  15.884  0.00  0.00    +0.000 NA
ATOM     21  C   UNL     1       6.887   6.062  17.030  0.00  0.00    +0.000 A 
BRANCH  21  22
ATOM     22  O   UNL     1       7.425   6.417  18.190  0.00  0.00    +0.000 OA
ATOM     23  F   UNL     1       8.214   7.580  18.065  0.00  0.00    +0.000 F 
ENDBRANCH  21  22
ENDBRANCH  15  17
ENDBRANCH  10  11
BRANCH   7  24
ATOM     24  C   UNL     1      -0.218   9.694  22.773  0.00  0.00    +0.000 C 
ATOM     25  F   UNL     1       0.906   9.441  23.496  0.00  0.00    +0.000 F 
ATOM     26  F   UNL     1      -0.949  10.579  23.506  0.00  0.00    +0.000 F 
ATOM     27  F   UNL     1      -0.935   8.536  22.771  0.00  0.00    +0.000 F 
ENDBRANCH   7  24
TORSDOF 4
ENDMDL
MODEL 4
REMARK VINA RESULT:      -8.9      1.843      2.097
REMARK  Name = 
REMARK  4 active torsions:
REMARK  status: ('A' for Active; 'I' for Inactive)
REMARK    1  A    between atoms: C_7  and  C_8
REMARK    2  A    between atoms: N_14  and  C_15
REMARK    3  A    between atoms: C_19  and  N_20
REMARK    4  A    between atoms: C_24  and  O_25
REMARK                            x       y       z     vdW  Elec       q    Type
REMARK                         _______ _______ _______ _____ _____    ______ ____
ROOT
ATOM      1  O   UNL     1       2.186   9.406  17.237  0.00  0.00    +0.000 OA
ATOM      2  C   UNL     1       1.783   9.133  18.351  0.00  0.00    +0.000 C 
ATOM      3  C   UNL     1       1.071  10.113  19.177  0.00  0.00    +0.000 A 
ATOM      4  C   UNL     1       0.745  11.420  18.868  0.00  0.00    +0.000 A 
ATOM      5  C   UNL     1       0.080  12.164  19.842  0.00  0.00    +0.000 A 
ATOM      6  C   UNL     1      -0.230  11.591  21.091  0.00  0.00    +0.000 A 
ATOM      7  C   UNL     1       0.113  10.260  21.394  0.00  0.00    +0.000 A 
ATOM      8  C   UNL     1       0.764   9.530  20.399  0.00  0.00    +0.000 A 
ATOM      9  C   UNL     1       1.246   8.116  20.411  0.00  0.00    +0.000 C 
ATOM     10  N   UNL     1       1.872   7.954  19.102  0.00  0.00    +0.000 N 
ENDROOT
BRANCH  10  11
ATOM     11  C   UNL     1       2.569   6.771  18.730  0.00  0.00    +0.000 A 
ATOM     12  C   UNL     1       2.010   5.502  18.924  0.00  0.00    +0.000 A 
ATOM     13  C   UNL     1       2.650   4.349  18.461  0.00  0.00    +0.000 A 
ATOM     14  C   UNL     1       3.862   4.442  17.787  0.00  0.00    +0.000 A 
ATOM     15  C   UNL     1       4.461   5.694  17.610  0.00  0.00    +0.000 A 
ATOM     16  C   UNL     1       3.825   6.847  18.102  0.00  0.00    +0.000 A 
BRANCH  15  17
ATOM     17  N   UNL     1       5.669   5.795  16.872  0.00  0.00    +0.000 N 
ATOM     18  C   UNL     1       6.670   6.717  17.071  0.00  0.00    +0.000 A 
ATOM     19  N   UNL     1       7.687   6.477  16.276  0.00  0.00    +0.000 NA
ATOM     20  N   UNL     1       7.356   5.395  15.499  0.00  0.00    +0.000 NA
ATOM     21  C   UNL     1       6.152   5.003  15.852  0.00  0.00    +0.000 A 
BRANCH  21  22
ATOM     22  O   UNL     1       5.456   4.046  15.253  0.00  0.00    +0.000 OA
ATOM     23  F   UNL     1       5.220   4.344  13.894  0.00  0.00    +0.000 F 
ENDBRANCH  21  22
ENDBRANCH  15  17
ENDBRANCH  10  11
BRANCH   7  24
ATOM     24  C   UNL     1      -0.195   9.653  22.734  0.00  0.00    +0.000 C 
ATOM     25  F   UNL     1      -0.932  10.458  23.547  0.00  0.00    +0.000 F 
ATOM     26  F   UNL     1      -0.888   8.487  22.624  0.00  0.00    +0.000 F 
ATOM     27  F   UNL     1       0.935   9.346  23.431  0.00  0.00    +0.000 F 
ENDBRANCH   7  24
TORSDOF 4
ENDMDL
MODEL 5
REMARK VINA RESULT:      -8.5      2.453      3.046
REMARK  Name = 
REMARK  4 active torsions:
REMARK  status: ('A' for Active; 'I' for Inactive)
REMARK    1  A    between atoms: C_7  and  C_8
REMARK    2  A    between atoms: N_14  and  C_15
REMARK    3  A    between atoms: C_19  and  N_20
REMARK    4  A    between atoms: C_24  and  O_25
REMARK                            x       y       z     vdW  Elec       q    Type
REMARK                         _______ _______ _______ _____ _____    ______ ____
ROOT
ATOM      1  O   UNL     1       2.079   5.423  21.193  0.00  0.00    +0.000 OA
ATOM      2  C   UNL     1       2.063   6.329  20.381  0.00  0.00    +0.000 C 
ATOM      3  C   UNL     1       1.470   7.634  20.692  0.00  0.00    +0.000 A 
ATOM      4  C   UNL     1       0.874   8.048  21.868  0.00  0.00    +0.000 A 
ATOM      5  C   UNL     1       0.360   9.343  21.907  0.00  0.00    +0.000 A 
ATOM      6  C   UNL     1       0.443  10.179  20.777  0.00  0.00    +0.000 A 
ATOM      7  C   UNL     1       1.048   9.742  19.583  0.00  0.00    +0.000 A 
ATOM      8  C   UNL     1       1.570   8.449  19.572  0.00  0.00    +0.000 A 
ATOM      9  C   UNL     1       2.267   7.708  18.477  0.00  0.00    +0.000 C 
ATOM     10  N   UNL     1       2.532   6.397  19.064  0.00  0.00    +0.000 N 
ENDROOT
BRANCH  10  11
ATOM     11  C   UNL     1       3.094   5.326  18.315  0.00  0.00    +0.000 A 
ATOM     12  C   UNL     1       2.511   4.053  18.310  0.00  0.00    +0.000 A 
ATOM     13  C   UNL     1       3.003   3.033  17.492  0.00  0.00    +0.000 A 
ATOM     14  C   UNL     1       4.088   3.267  16.654  0.00  0.00    +0.000 A 
ATOM     15  C   UNL     1       4.712   4.519  16.664  0.00  0.00    +0.000 A 
ATOM     16  C   UNL     1       4.229   5.532  17.510  0.00  0.00    +0.000 A 
BRANCH  15  17
ATOM     17  N   UNL     1       5.781   4.776  15.767  0.00  0.00    +0.000 N 
ATOM     18  C   UNL     1       5.751   4.632  14.400  0.00  0.00    +0.000 A 
ATOM     19  N   UNL     1       6.878   5.039  13.864  0.00  0.00    +0.000 NA
ATOM     20  N   UNL     1       7.701   5.435  14.889  0.00  0.00    +0.000 NA
ATOM     21  C   UNL     1       7.047   5.265  16.016  0.00  0.00    +0.000 A 
BRANCH  21  22
ATOM     22  O   UNL     1       7.556   5.444  17.227  0.00  0.00    +0.000 OA
ATOM     23  F   UNL     1       7.906   4.218  17.833  0.00  0.00    +0.000 F 
ENDBRANCH  21  22
ENDBRANCH  15  17
ENDBRANCH  10  11
BRANCH   7  24
ATOM     24  C   UNL     1       1.118  10.624  18.367  0.00  0.00    +0.000 C 
ATOM     25  F   UNL     1       2.360  10.709  17.820  0.00  0.00    +0.000 F 
ATOM     26  F   UNL     1       0.293  10.195  17.373  0.00  0.00    +0.000 F 
ATOM     27  F   UNL     1       0.736  11.903  18.637  0.00  0.00    +0.000 F 
ENDBRANCH   7  24
TORSDOF 4
ENDMDL
MODEL 6
REMARK VINA RESULT:      -8.4      1.375      1.625
REMARK  Name = 
REMARK  4 active torsions:
REMARK  status: ('A' for Active; 'I' for Inactive)
REMARK    1  A    between atoms: C_7  and  C_8
REMARK    2  A    between atoms: N_14  and  C_15
REMARK    3  A    between atoms: C_19  and  N_20
REMARK    4  A    between atoms: C_24  and  O_25
REMARK                            x       y       z     vdW  Elec       q    Type
REMARK                         _______ _______ _______ _____ _____    ______ ____
ROOT
ATOM      1  O   UNL     1       2.267   9.256  17.181  0.00  0.00    +0.000 OA
ATOM      2  C   UNL     1       1.868   8.988  18.299  0.00  0.00    +0.000 C 
ATOM      3  C   UNL     1       1.248  10.000  19.161  0.00  0.00    +0.000 A 
ATOM      4  C   UNL     1       1.014  11.334  18.887  0.00  0.00    +0.000 A 
ATOM      5  C   UNL     1       0.427  12.102  19.891  0.00  0.00    +0.000 A 
ATOM      6  C   UNL     1       0.101  11.526  21.134  0.00  0.00    +0.000 A 
ATOM      7  C   UNL     1       0.350  10.166  21.401  0.00  0.00    +0.000 A 
ATOM      8  C   UNL     1       0.924   9.413  20.377  0.00  0.00    +0.000 A 
ATOM      9  C   UNL     1       1.300   7.967  20.348  0.00  0.00    +0.000 C 
ATOM     10  N   UNL     1       1.885   7.789  19.022  0.00  0.00    +0.000 N 
ENDROOT
BRANCH  10  11
ATOM     11  C   UNL     1       2.484   6.567  18.610  0.00  0.00    +0.000 A 
ATOM     12  C   UNL     1       1.739   5.386  18.506  0.00  0.00    +0.000 A 
ATOM     13  C   UNL     1       2.304   4.213  18.000  0.00  0.00    +0.000 A 
ATOM     14  C   UNL     1       3.629   4.198  17.578  0.00  0.00    +0.000 A 
ATOM     15  C   UNL     1       4.407   5.354  17.703  0.00  0.00    +0.000 A 
ATOM     16  C   UNL     1       3.840   6.523  18.239  0.00  0.00    +0.000 A 
BRANCH  15  17
ATOM     17  N   UNL     1       5.742   5.355  17.220  0.00  0.00    +0.000 N 
ATOM     18  C   UNL     1       6.559   4.259  17.081  0.00  0.00    +0.000 A 
ATOM     19  N   UNL     1       7.699   4.596  16.523  0.00  0.00    +0.000 NA
ATOM     20  N   UNL     1       7.668   5.952  16.311  0.00  0.00    +0.000 NA
ATOM     21  C   UNL     1       6.507   6.396  16.738  0.00  0.00    +0.000 A 
BRANCH  21  22
ATOM     22  O   UNL     1       6.153   7.673  16.790  0.00  0.00    +0.000 OA
ATOM     23  F   UNL     1       7.030   8.426  17.599  0.00  0.00    +0.000 F 
ENDBRANCH  21  22
ENDBRANCH  15  17
ENDBRANCH  10  11
BRANCH   7  24
ATOM     24  C   UNL     1       0.026   9.553  22.735  0.00  0.00    +0.000 C 
ATOM     25  F   UNL     1      -0.621  10.395  23.585  0.00  0.00    +0.000 F 
ATOM     26  F   UNL     1      -0.764   8.452  22.617  0.00  0.00    +0.000 F 
ATOM     27  F   UNL     1       1.143   9.137  23.394  0.00  0.00    +0.000 F 
ENDBRANCH   7  24
TORSDOF 4
ENDMDL
MODEL 7
REMARK VINA RESULT:      -8.4      1.350      1.548
REMARK  Name = 
REMARK  4 active torsions:
REMARK  status: ('A' for Active; 'I' for Inactive)
REMARK    1  A    between atoms: C_7  and  C_8
REMARK    2  A    between atoms: N_14  and  C_15
REMARK    3  A    between atoms: C_19  and  N_20
REMARK    4  A    between atoms: C_24  and  O_25
REMARK                            x       y       z     vdW  Elec       q    Type
REMARK                         _______ _______ _______ _____ _____    ______ ____
ROOT
ATOM      1  O   UNL     1       2.337   9.398  17.155  0.00  0.00    +0.000 OA
ATOM      2  C   UNL     1       1.899   9.111  18.253  0.00  0.00    +0.000 C 
ATOM      3  C   UNL     1       1.326  10.124  19.145  0.00  0.00    +0.000 A 
ATOM      4  C   UNL     1       1.182  11.480  18.924  0.00  0.00    +0.000 A 
ATOM      5  C   UNL     1       0.623  12.242  19.948  0.00  0.00    +0.000 A 
ATOM      6  C   UNL     1       0.236  11.637  21.160  0.00  0.00    +0.000 A 
ATOM      7  C   UNL     1       0.394  10.255  21.374  0.00  0.00    +0.000 A 
ATOM      8  C   UNL     1       0.941   9.509  20.330  0.00  0.00    +0.000 A 
ATOM      9  C   UNL     1       1.226   8.045  20.247  0.00  0.00    +0.000 C 
ATOM     10  N   UNL     1       1.826   7.885  18.925  0.00  0.00    +0.000 N 
ENDROOT
BRANCH  10  11
ATOM     11  C   UNL     1       2.355   6.644  18.473  0.00  0.00    +0.000 A 
ATOM     12  C   UNL     1       1.544   5.513  18.327  0.00  0.00    +0.000 A 
ATOM     13  C   UNL     1       2.044   4.327  17.782  0.00  0.00    +0.000 A 
ATOM     14  C   UNL     1       3.368   4.250  17.364  0.00  0.00    +0.000 A 
ATOM     15  C   UNL     1       4.211   5.354  17.531  0.00  0.00    +0.000 A 
ATOM     16  C   UNL     1       3.708   6.535  18.105  0.00  0.00    +0.000 A 
BRANCH  15  17
ATOM     17  N   UNL     1       5.546   5.296  17.052  0.00  0.00    +0.000 N 
ATOM     18  C   UNL     1       5.958   5.525  15.760  0.00  0.00    +0.000 A 
ATOM     19  N   UNL     1       7.268   5.478  15.675  0.00  0.00    +0.000 NA
ATOM     20  N   UNL     1       7.750   5.177  16.925  0.00  0.00    +0.000 NA
ATOM     21  C   UNL     1       6.721   5.060  17.733  0.00  0.00    +0.000 A 
BRANCH  21  22
ATOM     22  O   UNL     1       6.787   4.675  19.001  0.00  0.00    +0.000 OA
ATOM     23  F   UNL     1       5.806   3.708  19.305  0.00  0.00    +0.000 F 
ENDBRANCH  21  22
ENDBRANCH  15  17
ENDBRANCH  10  11
BRANCH   7  24
ATOM     24  C   UNL     1       0.005   9.610  22.675  0.00  0.00    +0.000 C 
ATOM     25  F   UNL     1      -0.656  10.441  23.525  0.00  0.00    +0.000 F 
ATOM     26  F   UNL     1      -0.805   8.531  22.492  0.00  0.00    +0.000 F 
ATOM     27  F   UNL     1       1.085   9.148  23.363  0.00  0.00    +0.000 F 
ENDBRANCH   7  24
TORSDOF 4
ENDMDL
MODEL 8
REMARK VINA RESULT:      -8.4      2.347      2.855
REMARK  Name = 
REMARK  4 active torsions:
REMARK  status: ('A' for Active; 'I' for Inactive)
REMARK    1  A    between atoms: C_7  and  C_8
REMARK    2  A    between atoms: N_14  and  C_15
REMARK    3  A    between atoms: C_19  and  N_20
REMARK    4  A    between atoms: C_24  and  O_25
REMARK                            x       y       z     vdW  Elec       q    Type
REMARK                         _______ _______ _______ _____ _____    ______ ____
ROOT
ATOM      1  O   UNL     1       1.785   5.805  21.400  0.00  0.00    +0.000 OA
ATOM      2  C   UNL     1       1.795   6.711  20.588  0.00  0.00    +0.000 C 
ATOM      3  C   UNL     1       1.282   8.045  20.915  0.00  0.00    +0.000 A 
ATOM      4  C   UNL     1       0.743   8.489  22.107  0.00  0.00    +0.000 A 
ATOM      5  C   UNL     1       0.300   9.810  22.159  0.00  0.00    +0.000 A 
ATOM      6  C   UNL     1       0.397  10.642  21.027  0.00  0.00    +0.000 A 
ATOM      7  C   UNL     1       0.944  10.174  19.817  0.00  0.00    +0.000 A 
ATOM      8  C   UNL     1       1.395   8.855  19.792  0.00  0.00    +0.000 A 
ATOM      9  C   UNL     1       2.020   8.078  18.679  0.00  0.00    +0.000 C 
ATOM     10  N   UNL     1       2.231   6.755  19.258  0.00  0.00    +0.000 N 
ENDROOT
BRANCH  10  11
ATOM     11  C   UNL     1       2.714   5.655  18.495  0.00  0.00    +0.000 A 
ATOM     12  C   UNL     1       1.904   4.548  18.215  0.00  0.00    +0.000 A 
ATOM     13  C   UNL     1       2.344   3.520  17.378  0.00  0.00    +0.000 A 
ATOM     14  C   UNL     1       3.605   3.581  16.795  0.00  0.00    +0.000 A 
ATOM     15  C   UNL     1       4.449   4.659  17.085  0.00  0.00    +0.000 A 
ATOM     16  C   UNL     1       4.010   5.676  17.950  0.00  0.00    +0.000 A 
BRANCH  15  17
ATOM     17  N   UNL     1       5.713   4.751  16.445  0.00  0.00    +0.000 N 
ATOM     18  C   UNL     1       5.935   5.010  15.113  0.00  0.00    +0.000 A 
ATOM     19  N   UNL     1       7.220   5.115  14.868  0.00  0.00    +0.000 NA
ATOM     20  N   UNL     1       7.884   4.890  16.048  0.00  0.00    +0.000 NA
ATOM     21  C   UNL     1       6.982   4.664  16.977  0.00  0.00    +0.000 A 
BRANCH  21  22
ATOM     22  O   UNL     1       7.248   4.306  18.226  0.00  0.00    +0.000 OA
ATOM     23  F   UNL     1       7.179   5.405  19.109  0.00  0.00    +0.000 F 
ENDBRANCH  21  22
ENDBRANCH  15  17
ENDBRANCH  10  11
BRANCH   7  24
ATOM     24  C   UNL     1       1.027  11.052  18.599  0.00  0.00    +0.000 C 
ATOM     25  F   UNL     1       0.724  12.356  18.838  0.00  0.00    +0.000 F 
ATOM     26  F   UNL     1       2.270  11.046  18.045  0.00  0.00    +0.000 F 
ATOM     27  F   UNL     1       0.182  10.643  17.612  0.00  0.00    +0.000 F 
ENDBRANCH   7  24
TORSDOF 4
ENDMDL
MODEL 9
REMARK VINA RESULT:      -8.4      2.625      3.165
REMARK  Name = 
REMARK  4 active torsions:
REMARK  status: ('A' for Active; 'I' for Inactive)
REMARK    1  A    between atoms: C_7  and  C_8
REMARK    2  A    between atoms: N_14  and  C_15
REMARK    3  A    between atoms: C_19  and  N_20
REMARK    4  A    between atoms: C_24  and  O_25
REMARK                            x       y       z     vdW  Elec       q    Type
REMARK                         _______ _______ _______ _____ _____    ______ ____
ROOT
ATOM      1  O   UNL     1       1.602   6.000  21.499  0.00  0.00    +0.000 OA
ATOM      2  C   UNL     1       1.631   6.914  20.697  0.00  0.00    +0.000 C 
ATOM      3  C   UNL     1       1.108   8.244  21.023  0.00  0.00    +0.000 A 
ATOM      4  C   UNL     1       0.537   8.676  22.205  0.00  0.00    +0.000 A 
ATOM      5  C   UNL     1       0.091   9.996  22.259  0.00  0.00    +0.000 A 
ATOM      6  C   UNL     1       0.215  10.838  21.137  0.00  0.00    +0.000 A 
ATOM      7  C   UNL     1       0.794  10.383  19.937  0.00  0.00    +0.000 A 
ATOM      8  C   UNL     1       1.247   9.065  19.911  0.00  0.00    +0.000 A 
ATOM      9  C   UNL     1       1.902   8.300  18.807  0.00  0.00    +0.000 C 
ATOM     10  N   UNL     1       2.100   6.971  19.379  0.00  0.00    +0.000 N 
ENDROOT
BRANCH  10  11
ATOM     11  C   UNL     1       2.603   5.880  18.617  0.00  0.00    +0.000 A 
ATOM     12  C   UNL     1       1.773   4.831  18.205  0.00  0.00    +0.000 A 
ATOM     13  C   UNL     1       2.245   3.816  17.369  0.00  0.00    +0.000 A 
ATOM     14  C   UNL     1       3.562   3.833  16.921  0.00  0.00    +0.000 A 
ATOM     15  C   UNL     1       4.424   4.849  17.345  0.00  0.00    +0.000 A 
ATOM     16  C   UNL     1       3.949   5.852  18.208  0.00  0.00    +0.000 A 
BRANCH  15  17
ATOM     17  N   UNL     1       5.750   4.899  16.842  0.00  0.00    +0.000 N 
ATOM     18  C   UNL     1       6.884   4.470  17.490  0.00  0.00    +0.000 A 
ATOM     19  N   UNL     1       7.934   4.576  16.710  0.00  0.00    +0.000 NA
ATOM     20  N   UNL     1       7.512   5.120  15.523  0.00  0.00    +0.000 NA
ATOM     21  C   UNL     1       6.216   5.319  15.614  0.00  0.00    +0.000 A 
BRANCH  21  22
ATOM     22  O   UNL     1       5.472   5.924  14.698  0.00  0.00    +0.000 OA
ATOM     23  F   UNL     1       4.881   7.103  15.200  0.00  0.00    +0.000 F 
ENDBRANCH  21  22
ENDBRANCH  15  17
ENDBRANCH  10  11
BRANCH   7  24
ATOM     24  C   UNL     1       0.906  11.273  18.730  0.00  0.00    +0.000 C 
ATOM     25  F   UNL     1       0.139  10.874  17.679  0.00  0.00    +0.000 F 
ATOM     26  F   UNL     1       0.541  12.556  19.001  0.00  0.00    +0.000 F 
ATOM     27  F   UNL     1       2.182  11.343  18.261  0.00  0.00    +0.000 F 
ENDBRANCH   7  24
TORSDOF 4
ENDMDL
