MODEL 1
REMARK VINA RESULT:      -8.5      0.000      0.000
REMARK  Name = 
REMARK  4 active torsions:
REMARK  status: ('A' for Active; 'I' for Inactive)
REMARK    1  A    between atoms: C_1  and  C_2
REMARK    2  A    between atoms: C_4  and  N_5
REMARK    3  A    between atoms: C_6  and  C_8
REMARK    4  A    between atoms: N_20  and  C_21
REMARK                            x       y       z     vdW  Elec       q    Type
REMARK                         _______ _______ _______ _____ _____    ______ ____
ROOT
ATOM      1  N   UNL     1       4.309   6.055  17.599  0.00  0.00    +0.000 N 
ATOM      2  C   UNL     1       5.168   5.444  18.582  0.00  0.00    +0.000 C 
ATOM      3  O   UNL     1       4.908   5.582  19.766  0.00  0.00    +0.000 OA
ATOM      4  H   UNL     1       4.410   5.903  16.605  0.00  0.00    +0.000 HD
ENDROOT
BRANCH   2   5
ATOM      5  C   UNL     1       6.401   4.739  18.014  0.00  0.00    +0.000 C 
ATOM      6  C   UNL     1       7.685   5.425  18.470  0.00  0.00    +0.000 C 
ATOM      7  C   UNL     1       7.908   6.704  17.706  0.00  0.00    +0.000 C 
ATOM      8  O   UNL     1       8.249   7.740  18.264  0.00  0.00    +0.000 OA
ATOM      9  N   UNL     1       7.776   6.596  16.351  0.00  0.00    +0.000 N 
ATOM     10  C   UNL     1       7.153   5.511  15.726  0.00  0.00    +0.000 A 
ATOM     11  C   UNL     1       7.251   5.368  14.344  0.00  0.00    +0.000 A 
ATOM     12  C   UNL     1       6.611   4.298  13.733  0.00  0.00    +0.000 A 
ATOM     13  F   UNL     1       6.735   4.128  12.410  0.00  0.00    +0.000 F 
ATOM     14  C   UNL     1       5.848   3.396  14.471  0.00  0.00    +0.000 A 
ATOM     15  C   UNL     1       5.751   3.546  15.858  0.00  0.00    +0.000 A 
ATOM     16  C   UNL     1       6.426   4.592  16.504  0.00  0.00    +0.000 A 
ATOM     17  H   UNL     1       8.100   7.383  15.796  0.00  0.00    +0.000 HD
ENDBRANCH   2   5
BRANCH   1  21
ATOM     18  C   UNL     1       1.218   9.879  18.264  0.00  0.00    +0.000 C 
ATOM     19  C   UNL     1       1.857   8.537  18.267  0.00  0.00    +0.000 A 
ATOM     20  C   UNL     1       3.122   8.180  17.745  0.00  0.00    +0.000 A 
ATOM     21  C   UNL     1       3.238   6.839  18.006  0.00  0.00    +0.000 A 
ATOM     22  N   UNL     1       2.115   6.466  18.730  0.00  0.00    +0.000 N 
ATOM     23  N   UNL     1       1.223   7.486  18.807  0.00  0.00    +0.000 NA
BRANCH  22  24
ATOM     24  C   UNL     1       1.900   5.252  19.434  0.00  0.00    +0.000 A 
ATOM     25  C   UNL     1       2.060   5.194  20.829  0.00  0.00    +0.000 A 
ATOM     26  C   UNL     1       1.856   3.989  21.504  0.00  0.00    +0.000 A 
ATOM     27  C   UNL     1       1.507   2.848  20.788  0.00  0.00    +0.000 A 
ATOM     28  F   UNL     1       1.338   1.689  21.438  0.00  0.00    +0.000 F 
ATOM     29  C   UNL     1       1.325   2.901  19.411  0.00  0.00    +0.000 A 
ATOM     30  C   UNL     1       1.497   4.108  18.729  0.00  0.00    +0.000 A 
ENDBRANCH  22  24
ENDBRANCH   1  21
TORSDOF 3
ENDMDL
MODEL 2
REMARK VINA RESULT:      -8.4      2.266      3.832
REMARK  Name = 
REMARK  4 active torsions:
REMARK  status: ('A' for Active; 'I' for Inactive)
REMARK    1  A    between atoms: C_1  and  C_2
REMARK    2  A    between atoms: C_4  and  N_5
REMARK    3  A    between atoms: C_6  and  C_8
REMARK    4  A    between atoms: N_20  and  C_21
REMARK                            x       y       z     vdW  Elec       q    Type
REMARK                         _______ _______ _______ _____ _____    ______ ____
ROOT
ATOM      1  N   UNL     1       4.696   4.130  18.540  0.00  0.00    +0.000 N 
ATOM      2  C   UNL     1       5.985   4.665  18.903  0.00  0.00    +0.000 C 
ATOM      3  O   UNL     1       6.182   5.007  20.057  0.00  0.00    +0.000 OA
ATOM      4  H   UNL     1       4.495   3.740  17.630  0.00  0.00    +0.000 HD
ENDROOT
BRANCH   2   5
ATOM      5  C   UNL     1       6.966   4.829  17.741  0.00  0.00    +0.000 C 
ATOM      6  C   UNL     1       7.635   6.200  17.776  0.00  0.00    +0.000 C 
ATOM      7  C   UNL     1       6.688   7.268  17.293  0.00  0.00    +0.000 C 
ATOM      8  O   UNL     1       6.564   8.336  17.879  0.00  0.00    +0.000 OA
ATOM      9  N   UNL     1       6.045   6.982  16.122  0.00  0.00    +0.000 N 
ATOM     10  C   UNL     1       5.978   5.695  15.580  0.00  0.00    +0.000 A 
ATOM     11  C   UNL     1       5.499   5.522  14.284  0.00  0.00    +0.000 A 
ATOM     12  C   UNL     1       5.417   4.237  13.764  0.00  0.00    +0.000 A 
ATOM     13  F   UNL     1       4.999   4.064  12.503  0.00  0.00    +0.000 F 
ATOM     14  C   UNL     1       5.770   3.126  14.527  0.00  0.00    +0.000 A 
ATOM     15  C   UNL     1       6.248   3.305  15.830  0.00  0.00    +0.000 A 
ATOM     16  C   UNL     1       6.383   4.596  16.360  0.00  0.00    +0.000 A 
ATOM     17  H   UNL     1       5.550   7.748  15.673  0.00  0.00    +0.000 HD
ENDBRANCH   2   5
BRANCH   1  21
ATOM     18  C   UNL     1       1.602   2.528  22.072  0.00  0.00    +0.000 C 
ATOM     19  C   UNL     1       2.335   3.354  21.078  0.00  0.00    +0.000 A 
ATOM     20  C   UNL     1       3.347   2.936  20.184  0.00  0.00    +0.000 A 
ATOM     21  C   UNL     1       3.681   4.068  19.485  0.00  0.00    +0.000 A 
ATOM     22  N   UNL     1       2.826   5.074  19.908  0.00  0.00    +0.000 N 
ATOM     23  N   UNL     1       2.065   4.661  20.953  0.00  0.00    +0.000 NA
BRANCH  22  24
ATOM     24  C   UNL     1       2.620   6.346  19.310  0.00  0.00    +0.000 A 
ATOM     25  C   UNL     1       3.060   6.602  18.000  0.00  0.00    +0.000 A 
ATOM     26  C   UNL     1       2.860   7.861  17.431  0.00  0.00    +0.000 A 
ATOM     27  C   UNL     1       2.235   8.860  18.171  0.00  0.00    +0.000 A 
ATOM     28  F   UNL     1       2.068  10.074  17.630  0.00  0.00    +0.000 F 
ATOM     29  C   UNL     1       1.775   8.610  19.459  0.00  0.00    +0.000 A 
ATOM     30  C   UNL     1       1.944   7.344  20.027  0.00  0.00    +0.000 A 
ENDBRANCH  22  24
ENDBRANCH   1  21
TORSDOF 3
ENDMDL
MODEL 3
REMARK VINA RESULT:      -8.3      3.979      7.549
REMARK  Name = 
REMARK  4 active torsions:
REMARK  status: ('A' for Active; 'I' for Inactive)
REMARK    1  A    between atoms: C_1  and  C_2
REMARK    2  A    between atoms: C_4  and  N_5
REMARK    3  A    between atoms: C_6  and  C_8
REMARK    4  A    between atoms: N_20  and  C_21
REMARK                            x       y       z     vdW  Elec       q    Type
REMARK                         _______ _______ _______ _____ _____    ______ ____
ROOT
ATOM      1  N   UNL     1       1.943   8.096  19.057  0.00  0.00    +0.000 N 
ATOM      2  C   UNL     1       1.531   9.373  18.528  0.00  0.00    +0.000 C 
ATOM      3  O   UNL     1       1.923   9.712  17.423  0.00  0.00    +0.000 OA
ATOM      4  H   UNL     1       1.581   7.713  19.919  0.00  0.00    +0.000 HD
ENDROOT
BRANCH   2   5
ATOM      5  C   UNL     1       0.690  10.226  19.479  0.00  0.00    +0.000 C 
ATOM      6  C   UNL     1      -0.784   9.841  19.404  0.00  0.00    +0.000 C 
ATOM      7  C   UNL     1      -1.416  10.389  18.151  0.00  0.00    +0.000 C 
ATOM      8  O   UNL     1      -2.154   9.709  17.449  0.00  0.00    +0.000 OA
ATOM      9  N   UNL     1      -1.164  11.709  17.908  0.00  0.00    +0.000 N 
ATOM     10  C   UNL     1      -0.143  12.423  18.541  0.00  0.00    +0.000 A 
ATOM     11  C   UNL     1      -0.089  13.808  18.406  0.00  0.00    +0.000 A 
ATOM     12  C   UNL     1       0.942  14.504  19.023  0.00  0.00    +0.000 A 
ATOM     13  F   UNL     1       0.978  15.840  18.934  0.00  0.00    +0.000 F 
ATOM     14  C   UNL     1       1.935  13.838  19.738  0.00  0.00    +0.000 A 
ATOM     15  C   UNL     1       1.878  12.447  19.869  0.00  0.00    +0.000 A 
ATOM     16  C   UNL     1       0.821  11.727  19.294  0.00  0.00    +0.000 A 
ATOM     17  H   UNL     1      -1.721  12.155  17.185  0.00  0.00    +0.000 HD
ENDBRANCH   2   5
BRANCH   1  21
ATOM     18  C   UNL     1       5.306   6.532  15.763  0.00  0.00    +0.000 C 
ATOM     19  C   UNL     1       4.341   6.625  16.889  0.00  0.00    +0.000 A 
ATOM     20  C   UNL     1       3.524   7.725  17.238  0.00  0.00    +0.000 A 
ATOM     21  C   UNL     1       2.822   7.300  18.337  0.00  0.00    +0.000 A 
ATOM     22  N   UNL     1       3.165   5.973  18.551  0.00  0.00    +0.000 N 
ATOM     23  N   UNL     1       4.169   5.589  17.721  0.00  0.00    +0.000 NA
BRANCH  22  24
ATOM     24  C   UNL     1       2.526   5.038  19.408  0.00  0.00    +0.000 A 
ATOM     25  C   UNL     1       2.867   4.963  20.769  0.00  0.00    +0.000 A 
ATOM     26  C   UNL     1       2.236   4.031  21.595  0.00  0.00    +0.000 A 
ATOM     27  C   UNL     1       1.281   3.172  21.061  0.00  0.00    +0.000 A 
ATOM     28  F   UNL     1       0.698   2.263  21.852  0.00  0.00    +0.000 F 
ATOM     29  C   UNL     1       0.920   3.254  19.721  0.00  0.00    +0.000 A 
ATOM     30  C   UNL     1       1.523   4.204  18.892  0.00  0.00    +0.000 A 
ENDBRANCH  22  24
ENDBRANCH   1  21
TORSDOF 3
ENDMDL
MODEL 4
REMARK VINA RESULT:      -8.3      3.557      7.850
REMARK  Name = 
REMARK  4 active torsions:
REMARK  status: ('A' for Active; 'I' for Inactive)
REMARK    1  A    between atoms: C_1  and  C_2
REMARK    2  A    between atoms: C_4  and  N_5
REMARK    3  A    between atoms: C_6  and  C_8
REMARK    4  A    between atoms: N_20  and  C_21
REMARK                            x       y       z     vdW  Elec       q    Type
REMARK                         _______ _______ _______ _____ _____    ______ ____
ROOT
ATOM      1  N   UNL     1       2.120   7.760  18.469  0.00  0.00    +0.000 N 
ATOM      2  C   UNL     1       1.420   8.793  19.191  0.00  0.00    +0.000 C 
ATOM      3  O   UNL     1       1.115   8.600  20.357  0.00  0.00    +0.000 OA
ATOM      4  H   UNL     1       2.485   7.889  17.535  0.00  0.00    +0.000 HD
ENDROOT
BRANCH   2   5
ATOM      5  C   UNL     1       1.048  10.023  18.362  0.00  0.00    +0.000 C 
ATOM      6  C   UNL     1       1.760  11.270  18.878  0.00  0.00    +0.000 C 
ATOM      7  C   UNL     1       1.112  11.770  20.143  0.00  0.00    +0.000 C 
ATOM      8  O   UNL     1       1.772  12.115  21.115  0.00  0.00    +0.000 OA
ATOM      9  N   UNL     1      -0.248  11.878  20.089  0.00  0.00    +0.000 N 
ATOM     10  C   UNL     1      -1.027  11.264  19.103  0.00  0.00    +0.000 A 
ATOM     11  C   UNL     1      -2.374  11.599  18.988  0.00  0.00    +0.000 A 
ATOM     12  C   UNL     1      -3.142  10.968  18.018  0.00  0.00    +0.000 A 
ATOM     13  F   UNL     1      -4.428  11.314  17.871  0.00  0.00    +0.000 F 
ATOM     14  C   UNL     1      -2.598   9.987  17.192  0.00  0.00    +0.000 A 
ATOM     15  C   UNL     1      -1.245   9.653  17.314  0.00  0.00    +0.000 A 
ATOM     16  C   UNL     1      -0.438  10.310  18.254  0.00  0.00    +0.000 A 
ATOM     17  H   UNL     1      -0.697  12.384  20.847  0.00  0.00    +0.000 HD
ENDBRANCH   2   5
BRANCH   1  21
ATOM     18  C   UNL     1       2.143   3.981  21.682  0.00  0.00    +0.000 C 
ATOM     19  C   UNL     1       2.360   4.859  20.503  0.00  0.00    +0.000 A 
ATOM     20  C   UNL     1       1.922   6.191  20.325  0.00  0.00    +0.000 A 
ATOM     21  C   UNL     1       2.385   6.544  19.083  0.00  0.00    +0.000 A 
ATOM     22  N   UNL     1       3.133   5.477  18.609  0.00  0.00    +0.000 N 
ATOM     23  N   UNL     1       3.038   4.407  19.439  0.00  0.00    +0.000 NA
BRANCH  22  24
ATOM     24  C   UNL     1       4.007   5.459  17.489  0.00  0.00    +0.000 A 
ATOM     25  C   UNL     1       4.575   6.649  17.004  0.00  0.00    +0.000 A 
ATOM     26  C   UNL     1       5.423   6.616  15.895  0.00  0.00    +0.000 A 
ATOM     27  C   UNL     1       5.690   5.403  15.269  0.00  0.00    +0.000 A 
ATOM     28  F   UNL     1       6.483   5.380  14.190  0.00  0.00    +0.000 F 
ATOM     29  C   UNL     1       5.150   4.217  15.754  0.00  0.00    +0.000 A 
ATOM     30  C   UNL     1       4.325   4.235  16.882  0.00  0.00    +0.000 A 
ENDBRANCH  22  24
ENDBRANCH   1  21
TORSDOF 3
ENDMDL
MODEL 5
REMARK VINA RESULT:      -8.1      3.644      7.670
REMARK  Name = 
REMARK  4 active torsions:
REMARK  status: ('A' for Active; 'I' for Inactive)
REMARK    1  A    between atoms: C_1  and  C_2
REMARK    2  A    between atoms: C_4  and  N_5
REMARK    3  A    between atoms: C_6  and  C_8
REMARK    4  A    between atoms: N_20  and  C_21
REMARK                            x       y       z     vdW  Elec       q    Type
REMARK                         _______ _______ _______ _____ _____    ______ ____
ROOT
ATOM      1  N   UNL     1       2.195   6.662  20.265  0.00  0.00    +0.000 N 
ATOM      2  C   UNL     1       1.797   7.837  19.528  0.00  0.00    +0.000 C 
ATOM      3  O   UNL     1       1.476   7.722  18.356  0.00  0.00    +0.000 OA
ATOM      4  H   UNL     1       2.380   6.669  21.258  0.00  0.00    +0.000 HD
ENDROOT
BRANCH   2   5
ATOM      5  C   UNL     1       1.909   9.152  20.300  0.00  0.00    +0.000 C 
ATOM      6  C   UNL     1       1.365   9.005  21.718  0.00  0.00    +0.000 C 
ATOM      7  C   UNL     1      -0.141   8.989  21.712  0.00  0.00    +0.000 C 
ATOM      8  O   UNL     1      -0.782   8.180  22.372  0.00  0.00    +0.000 OA
ATOM      9  N   UNL     1      -0.726   9.986  20.984  0.00  0.00    +0.000 N 
ATOM     10  C   UNL     1      -0.034  10.750  20.039  0.00  0.00    +0.000 A 
ATOM     11  C   UNL     1      -0.638  11.883  19.500  0.00  0.00    +0.000 A 
ATOM     12  C   UNL     1       0.051  12.622  18.547  0.00  0.00    +0.000 A 
ATOM     13  F   UNL     1      -0.503  13.738  18.055  0.00  0.00    +0.000 F 
ATOM     14  C   UNL     1       1.310  12.228  18.100  0.00  0.00    +0.000 A 
ATOM     15  C   UNL     1       1.911  11.087  18.643  0.00  0.00    +0.000 A 
ATOM     16  C   UNL     1       1.255  10.351  19.639  0.00  0.00    +0.000 A 
ATOM     17  H   UNL     1      -1.725  10.119  21.110  0.00  0.00    +0.000 HD
ENDBRANCH   2   5
BRANCH   1  21
ATOM     18  C   UNL     1       1.146   2.087  18.659  0.00  0.00    +0.000 C 
ATOM     19  C   UNL     1       1.773   3.414  18.890  0.00  0.00    +0.000 A 
ATOM     20  C   UNL     1       1.352   4.424  19.786  0.00  0.00    +0.000 A 
ATOM     21  C   UNL     1       2.266   5.434  19.622  0.00  0.00    +0.000 A 
ATOM     22  N   UNL     1       3.222   4.977  18.727  0.00  0.00    +0.000 N 
ATOM     23  N   UNL     1       2.867   3.775  18.206  0.00  0.00    +0.000 NA
BRANCH  22  24
ATOM     24  C   UNL     1       4.484   5.558  18.434  0.00  0.00    +0.000 A 
ATOM     25  C   UNL     1       5.624   5.212  19.180  0.00  0.00    +0.000 A 
ATOM     26  C   UNL     1       6.855   5.802  18.885  0.00  0.00    +0.000 A 
ATOM     27  C   UNL     1       6.943   6.739  17.861  0.00  0.00    +0.000 A 
ATOM     28  F   UNL     1       8.120   7.320  17.599  0.00  0.00    +0.000 F 
ATOM     29  C   UNL     1       5.825   7.071  17.102  0.00  0.00    +0.000 A 
ATOM     30  C   UNL     1       4.595   6.464  17.369  0.00  0.00    +0.000 A 
ENDBRANCH  22  24
ENDBRANCH   1  21
TORSDOF 3
ENDMDL
MODEL 6
REMARK VINA RESULT:      -8.0      3.727      7.953
REMARK  Name = 
REMARK  4 active torsions:
REMARK  status: ('A' for Active; 'I' for Inactive)
REMARK    1  A    between atoms: C_1  and  C_2
REMARK    2  A    between atoms: C_4  and  N_5
REMARK    3  A    between atoms: C_6  and  C_8
REMARK    4  A    between atoms: N_20  and  C_21
REMARK                            x       y       z     vdW  Elec       q    Type
REMARK                         _______ _______ _______ _____ _____    ______ ____
ROOT
ATOM      1  N   UNL     1       2.108   7.741  19.495  0.00  0.00    +0.000 N 
ATOM      2  C   UNL     1       1.199   8.569  20.250  0.00  0.00    +0.000 C 
ATOM      3  O   UNL     1       0.613   8.087  21.206  0.00  0.00    +0.000 OA
ATOM      4  H   UNL     1       2.696   8.098  18.755  0.00  0.00    +0.000 HD
ENDROOT
BRANCH   2   5
ATOM      5  C   UNL     1       1.001   9.980  19.698  0.00  0.00    +0.000 C 
ATOM      6  C   UNL     1       1.174  11.029  20.792  0.00  0.00    +0.000 C 
ATOM      7  C   UNL     1      -0.037  11.071  21.687  0.00  0.00    +0.000 C 
ATOM      8  O   UNL     1       0.061  11.119  22.907  0.00  0.00    +0.000 OA
ATOM      9  N   UNL     1      -1.235  11.131  21.034  0.00  0.00    +0.000 N 
ATOM     10  C   UNL     1      -1.383  10.828  19.676  0.00  0.00    +0.000 A 
ATOM     11  C   UNL     1      -2.583  11.122  19.035  0.00  0.00    +0.000 A 
ATOM     12  C   UNL     1      -2.725  10.798  17.692  0.00  0.00    +0.000 A 
ATOM     13  F   UNL     1      -3.860  11.115  17.056  0.00  0.00    +0.000 F 
ATOM     14  C   UNL     1      -1.705  10.156  16.993  0.00  0.00    +0.000 A 
ATOM     15  C   UNL     1      -0.502   9.861  17.643  0.00  0.00    +0.000 A 
ATOM     16  C   UNL     1      -0.318  10.220  18.986  0.00  0.00    +0.000 A 
ATOM     17  H   UNL     1      -2.053  11.349  21.595  0.00  0.00    +0.000 HD
ENDBRANCH   2   5
BRANCH   1  21
ATOM     18  C   UNL     1       1.388   3.223  21.413  0.00  0.00    +0.000 C 
ATOM     19  C   UNL     1       1.909   4.390  20.654  0.00  0.00    +0.000 A 
ATOM     20  C   UNL     1       1.439   5.723  20.689  0.00  0.00    +0.000 A 
ATOM     21  C   UNL     1       2.258   6.401  19.823  0.00  0.00    +0.000 A 
ATOM     22  N   UNL     1       3.214   5.500  19.378  0.00  0.00    +0.000 N 
ATOM     23  N   UNL     1       2.942   4.244  19.814  0.00  0.00    +0.000 NA
BRANCH  22  24
ATOM     24  C   UNL     1       4.411   5.786  18.668  0.00  0.00    +0.000 A 
ATOM     25  C   UNL     1       5.665   5.472  19.221  0.00  0.00    +0.000 A 
ATOM     26  C   UNL     1       6.832   5.769  18.515  0.00  0.00    +0.000 A 
ATOM     27  C   UNL     1       6.746   6.387  17.271  0.00  0.00    +0.000 A 
ATOM     28  F   UNL     1       7.870   6.693  16.609  0.00  0.00    +0.000 F 
ATOM     29  C   UNL     1       5.510   6.681  16.706  0.00  0.00    +0.000 A 
ATOM     30  C   UNL     1       4.335   6.360  17.391  0.00  0.00    +0.000 A 
ENDBRANCH  22  24
ENDBRANCH   1  21
TORSDOF 3
ENDMDL
MODEL 7
REMARK VINA RESULT:      -8.0      8.961     12.980
REMARK  Name = 
REMARK  4 active torsions:
REMARK  status: ('A' for Active; 'I' for Inactive)
REMARK    1  A    between atoms: C_1  and  C_2
REMARK    2  A    between atoms: C_4  and  N_5
REMARK    3  A    between atoms: C_6  and  C_8
REMARK    4  A    between atoms: N_20  and  C_21
REMARK                            x       y       z     vdW  Elec       q    Type
REMARK                         _______ _______ _______ _____ _____    ______ ____
ROOT
ATOM      1  N   UNL     1      -4.402  13.505  20.030  0.00  0.00    +0.000 N 
ATOM      2  C   UNL     1      -5.453  12.910  20.819  0.00  0.00    +0.000 C 
ATOM      3  O   UNL     1      -5.159  12.268  21.814  0.00  0.00    +0.000 OA
ATOM      4  H   UNL     1      -4.578  14.125  19.253  0.00  0.00    +0.000 HD
ENDROOT
BRANCH   2   5
ATOM      5  C   UNL     1      -6.863  13.085  20.253  0.00  0.00    +0.000 C 
ATOM      6  C   UNL     1      -7.544  11.736  20.047  0.00  0.00    +0.000 C 
ATOM      7  C   UNL     1      -7.002  11.044  18.824  0.00  0.00    +0.000 C 
ATOM      8  O   UNL     1      -6.707   9.855  18.830  0.00  0.00    +0.000 OA
ATOM      9  N   UNL     1      -6.939  11.821  17.702  0.00  0.00    +0.000 N 
ATOM     10  C   UNL     1      -7.028  13.217  17.732  0.00  0.00    +0.000 A 
ATOM     11  C   UNL     1      -7.176  13.919  16.539  0.00  0.00    +0.000 A 
ATOM     12  C   UNL     1      -7.242  15.305  16.579  0.00  0.00    +0.000 A 
ATOM     13  F   UNL     1      -7.427  15.987  15.441  0.00  0.00    +0.000 F 
ATOM     14  C   UNL     1      -7.126  15.999  17.782  0.00  0.00    +0.000 A 
ATOM     15  C   UNL     1      -6.975  15.288  18.977  0.00  0.00    +0.000 A 
ATOM     16  C   UNL     1      -6.952  13.886  18.967  0.00  0.00    +0.000 A 
ATOM     17  H   UNL     1      -6.760  11.343  16.824  0.00  0.00    +0.000 HD
ENDBRANCH   2   5
BRANCH   1  21
ATOM     18  C   UNL     1       0.022  13.792  22.255  0.00  0.00    +0.000 C 
ATOM     19  C   UNL     1      -1.123  13.405  21.392  0.00  0.00    +0.000 A 
ATOM     20  C   UNL     1      -2.396  14.016  21.319  0.00  0.00    +0.000 A 
ATOM     21  C   UNL     1      -3.074  13.291  20.373  0.00  0.00    +0.000 A 
ATOM     22  N   UNL     1      -2.187  12.354  19.865  0.00  0.00    +0.000 N 
ATOM     23  N   UNL     1      -1.020  12.361  20.558  0.00  0.00    +0.000 NA
BRANCH  22  24
ATOM     24  C   UNL     1      -2.346  11.546  18.707  0.00  0.00    +0.000 A 
ATOM     25  C   UNL     1      -1.381  10.582  18.368  0.00  0.00    +0.000 A 
ATOM     26  C   UNL     1      -1.547   9.805  17.220  0.00  0.00    +0.000 A 
ATOM     27  C   UNL     1      -2.663   9.999  16.411  0.00  0.00    +0.000 A 
ATOM     28  F   UNL     1      -2.804   9.268  15.298  0.00  0.00    +0.000 F 
ATOM     29  C   UNL     1      -3.634  10.934  16.751  0.00  0.00    +0.000 A 
ATOM     30  C   UNL     1      -3.493  11.697  17.914  0.00  0.00    +0.000 A 
ENDBRANCH  22  24
ENDBRANCH   1  21
TORSDOF 3
ENDMDL
MODEL 8
REMARK VINA RESULT:      -8.0      1.091      1.518
REMARK  Name = 
REMARK  4 active torsions:
REMARK  status: ('A' for Active; 'I' for Inactive)
REMARK    1  A    between atoms: C_1  and  C_2
REMARK    2  A    between atoms: C_4  and  N_5
REMARK    3  A    between atoms: C_6  and  C_8
REMARK    4  A    between atoms: N_20  and  C_21
REMARK                            x       y       z     vdW  Elec       q    Type
REMARK                         _______ _______ _______ _____ _____    ______ ____
ROOT
ATOM      1  N   UNL     1       4.388   6.138  17.701  0.00  0.00    +0.000 N 
ATOM      2  C   UNL     1       4.158   4.933  16.942  0.00  0.00    +0.000 C 
ATOM      3  O   UNL     1       3.014   4.630  16.643  0.00  0.00    +0.000 OA
ATOM      4  H   UNL     1       5.311   6.498  17.900  0.00  0.00    +0.000 HD
ENDROOT
BRANCH   2   5
ATOM      5  C   UNL     1       5.407   4.098  16.662  0.00  0.00    +0.000 C 
ATOM      6  C   UNL     1       6.522   4.428  17.649  0.00  0.00    +0.000 C 
ATOM      7  C   UNL     1       7.169   5.744  17.304  0.00  0.00    +0.000 C 
ATOM      8  O   UNL     1       7.422   6.585  18.158  0.00  0.00    +0.000 OA
ATOM      9  N   UNL     1       7.517   5.888  15.991  0.00  0.00    +0.000 N 
ATOM     10  C   UNL     1       7.022   5.068  14.973  0.00  0.00    +0.000 A 
ATOM     11  C   UNL     1       7.588   5.135  13.703  0.00  0.00    +0.000 A 
ATOM     12  C   UNL     1       7.074   4.330  12.694  0.00  0.00    +0.000 A 
ATOM     13  F   UNL     1       7.639   4.357  11.480  0.00  0.00    +0.000 F 
ATOM     14  C   UNL     1       5.986   3.491  12.925  0.00  0.00    +0.000 A 
ATOM     15  C   UNL     1       5.420   3.428  14.203  0.00  0.00    +0.000 A 
ATOM     16  C   UNL     1       5.951   4.197  15.248  0.00  0.00    +0.000 A 
ATOM     17  H   UNL     1       8.119   6.674  15.761  0.00  0.00    +0.000 HD
ENDBRANCH   2   5
BRANCH   1  21
ATOM     18  C   UNL     1       1.207   9.882  18.391  0.00  0.00    +0.000 C 
ATOM     19  C   UNL     1       1.888   8.562  18.405  0.00  0.00    +0.000 A 
ATOM     20  C   UNL     1       3.140   8.229  17.838  0.00  0.00    +0.000 A 
ATOM     21  C   UNL     1       3.311   6.900  18.133  0.00  0.00    +0.000 A 
ATOM     22  N   UNL     1       2.233   6.515  18.916  0.00  0.00    +0.000 N 
ATOM     23  N   UNL     1       1.313   7.509  19.002  0.00  0.00    +0.000 NA
BRANCH  22  24
ATOM     24  C   UNL     1       2.089   5.317  19.664  0.00  0.00    +0.000 A 
ATOM     25  C   UNL     1       1.298   4.260  19.180  0.00  0.00    +0.000 A 
ATOM     26  C   UNL     1       1.157   3.094  19.933  0.00  0.00    +0.000 A 
ATOM     27  C   UNL     1       1.792   2.988  21.167  0.00  0.00    +0.000 A 
ATOM     28  F   UNL     1       1.632   1.877  21.896  0.00  0.00    +0.000 F 
ATOM     29  C   UNL     1       2.595   4.018  21.643  0.00  0.00    +0.000 A 
ATOM     30  C   UNL     1       2.767   5.179  20.884  0.00  0.00    +0.000 A 
ENDBRANCH  22  24
ENDBRANCH   1  21
TORSDOF 3
ENDMDL
MODEL 9
REMARK VINA RESULT:      -8.0      8.101     11.201
REMARK  Name = 
REMARK  4 active torsions:
REMARK  status: ('A' for Active; 'I' for Inactive)
REMARK    1  A    between atoms: C_1  and  C_2
REMARK    2  A    between atoms: C_4  and  N_5
REMARK    3  A    between atoms: C_6  and  C_8
REMARK    4  A    between atoms: N_20  and  C_21
REMARK                            x       y       z     vdW  Elec       q    Type
REMARK                         _______ _______ _______ _____ _____    ______ ____
ROOT
ATOM      1  N   UNL     1      -3.293  12.459  22.889  0.00  0.00    +0.000 N 
ATOM      2  C   UNL     1      -2.322  13.511  22.709  0.00  0.00    +0.000 C 
ATOM      3  O   UNL     1      -2.708  14.664  22.608  0.00  0.00    +0.000 OA
ATOM      4  H   UNL     1      -3.040  11.499  23.073  0.00  0.00    +0.000 HD
ENDROOT
BRANCH   2   5
ATOM      5  C   UNL     1      -0.875  13.036  22.573  0.00  0.00    +0.000 C 
ATOM      6  C   UNL     1      -0.111  13.885  21.561  0.00  0.00    +0.000 C 
ATOM      7  C   UNL     1      -0.498  13.514  20.153  0.00  0.00    +0.000 C 
ATOM      8  O   UNL     1      -0.733  14.363  19.302  0.00  0.00    +0.000 OA
ATOM      9  N   UNL     1      -0.490  12.175  19.887  0.00  0.00    +0.000 N 
ATOM     10  C   UNL     1      -0.474  11.195  20.885  0.00  0.00    +0.000 A 
ATOM     11  C   UNL     1      -0.245   9.867  20.537  0.00  0.00    +0.000 A 
ATOM     12  C   UNL     1      -0.252   8.900  21.535  0.00  0.00    +0.000 A 
ATOM     13  F   UNL     1       0.009   7.626  21.217  0.00  0.00    +0.000 F 
ATOM     14  C   UNL     1      -0.518   9.235  22.862  0.00  0.00    +0.000 A 
ATOM     15  C   UNL     1      -0.749  10.571  23.205  0.00  0.00    +0.000 A 
ATOM     16  C   UNL     1      -0.701  11.570  22.222  0.00  0.00    +0.000 A 
ATOM     17  H   UNL     1      -0.560  11.902  18.911  0.00  0.00    +0.000 HD
ENDBRANCH   2   5
BRANCH   1  21
ATOM     18  C   UNL     1      -7.847  13.828  24.302  0.00  0.00    +0.000 C 
ATOM     19  C   UNL     1      -6.659  13.403  23.517  0.00  0.00    +0.000 A 
ATOM     20  C   UNL     1      -5.364  13.108  24.001  0.00  0.00    +0.000 A 
ATOM     21  C   UNL     1      -4.648  12.760  22.884  0.00  0.00    +0.000 A 
ATOM     22  N   UNL     1      -5.531  12.773  21.814  0.00  0.00    +0.000 N 
ATOM     23  N   UNL     1      -6.742  13.260  22.187  0.00  0.00    +0.000 NA
BRANCH  22  24
ATOM     24  C   UNL     1      -5.321  12.252  20.510  0.00  0.00    +0.000 A 
ATOM     25  C   UNL     1      -6.336  11.535  19.853  0.00  0.00    +0.000 A 
ATOM     26  C   UNL     1      -6.109  11.020  18.575  0.00  0.00    +0.000 A 
ATOM     27  C   UNL     1      -4.873  11.209  17.965  0.00  0.00    +0.000 A 
ATOM     28  F   UNL     1      -4.653  10.690  16.750  0.00  0.00    +0.000 F 
ATOM     29  C   UNL     1      -3.871  11.936  18.598  0.00  0.00    +0.000 A 
ATOM     30  C   UNL     1      -4.098  12.482  19.864  0.00  0.00    +0.000 A 
ENDBRANCH  22  24
ENDBRANCH   1  21
TORSDOF 3
ENDMDL
