MODEL 1
REMARK VINA RESULT:      -9.3      0.000      0.000
REMARK  Name = 
REMARK  5 active torsions:
REMARK  status: ('A' for Active; 'I' for Inactive)
REMARK    1  A    between atoms: C_8  and  N_9
REMARK    2  A    between atoms: C_10  and  C_12
REMARK    3  A    between atoms: C_17  and  O_18
REMARK    4  A    between atoms: O_18  and  C_19
REMARK    5  A    between atoms: C_19  and  C_20
REMARK                            x       y       z     vdW  Elec       q    Type
REMARK                         _______ _______ _______ _____ _____    ______ ____
ROOT
ATOM      1  N   UNL     1       3.200   6.409  17.687  0.00  0.00    +0.000 N 
ATOM      2  C   UNL     1       4.529   6.597  17.316  0.00  0.00    +0.000 C 
ATOM      3  O   UNL     1       5.240   7.490  17.762  0.00  0.00    +0.000 OA
ATOM      4  H   UNL     1       2.742   5.536  17.479  0.00  0.00    +0.000 HD
ENDROOT
BRANCH   1  12
ATOM      5  O   UNL     1      -0.373  12.491  18.295  0.00  0.00    +0.000 OA
ATOM      6  C   UNL     1       0.162  11.542  18.866  0.00  0.00    +0.000 C 
ATOM      7  C   UNL     1       0.349  11.496  20.364  0.00  0.00    +0.000 C 
ATOM      8  C   UNL     1       0.247  10.076  20.901  0.00  0.00    +0.000 C 
ATOM      9  C   UNL     1       1.092   9.129  20.097  0.00  0.00    +0.000 A 
ATOM     10  C   UNL     1       1.582   7.942  20.657  0.00  0.00    +0.000 A 
ATOM     11  C   UNL     1       2.249   7.012  19.858  0.00  0.00    +0.000 A 
ATOM     12  C   UNL     1       2.463   7.280  18.507  0.00  0.00    +0.000 A 
ATOM     13  C   UNL     1       2.002   8.477  17.947  0.00  0.00    +0.000 A 
ATOM     14  C   UNL     1       1.293   9.379  18.737  0.00  0.00    +0.000 A 
ATOM     15  N   UNL     1       0.738  10.524  18.154  0.00  0.00    +0.000 N 
ATOM     16  H   UNL     1       0.715  10.625  17.147  0.00  0.00    +0.000 HD
ENDBRANCH   1  12
BRANCH   2  17
ATOM     17  C   UNL     1       5.070   5.589  16.353  0.00  0.00    +0.000 A 
ATOM     18  C   UNL     1       5.402   5.954  15.036  0.00  0.00    +0.000 A 
ATOM     19  C   UNL     1       6.041   5.050  14.192  0.00  0.00    +0.000 A 
ATOM     20  C   UNL     1       6.313   3.789  14.681  0.00  0.00    +0.000 A 
ATOM     21  N   UNL     1       5.944   3.376  15.907  0.00  0.00    +0.000 NA
ATOM     22  C   UNL     1       5.300   4.260  16.717  0.00  0.00    +0.000 A 
BRANCH  22  23
ATOM     23  O   UNL     1       4.875   3.788  17.941  0.00  0.00    +0.000 OA
BRANCH  23  24
ATOM     24  C   UNL     1       3.746   2.908  17.833  0.00  0.00    +0.000 C 
BRANCH  24  25
ATOM     25  C   UNL     1       2.889   2.928  19.077  0.00  0.00    +0.000 A 
ATOM     26  C   UNL     1       3.377   2.546  20.335  0.00  0.00    +0.000 A 
ATOM     27  C   UNL     1       2.582   2.685  21.477  0.00  0.00    +0.000 A 
ATOM     28  C   UNL     1       1.295   3.214  21.381  0.00  0.00    +0.000 A 
ATOM     29  C   UNL     1       0.799   3.604  20.138  0.00  0.00    +0.000 A 
ATOM     30  C   UNL     1       1.597   3.463  19.005  0.00  0.00    +0.000 A 
ATOM     31  F   UNL     1       1.111   3.877  17.825  0.00  0.00    +0.000 F 
ENDBRANCH  24  25
ENDBRANCH  23  24
ENDBRANCH  22  23
ENDBRANCH   2  17
TORSDOF 5
ENDMDL
MODEL 2
REMARK VINA RESULT:      -9.2      0.890      1.261
REMARK  Name = 
REMARK  5 active torsions:
REMARK  status: ('A' for Active; 'I' for Inactive)
REMARK    1  A    between atoms: C_8  and  N_9
REMARK    2  A    between atoms: C_10  and  C_12
REMARK    3  A    between atoms: C_17  and  O_18
REMARK    4  A    between atoms: O_18  and  C_19
REMARK    5  A    between atoms: C_19  and  C_20
REMARK                            x       y       z     vdW  Elec       q    Type
REMARK                         _______ _______ _______ _____ _____    ______ ____
ROOT
ATOM      1  N   UNL     1       3.224   6.362  17.704  0.00  0.00    +0.000 N 
ATOM      2  C   UNL     1       4.536   6.578  17.291  0.00  0.00    +0.000 C 
ATOM      3  O   UNL     1       5.233   7.501  17.695  0.00  0.00    +0.000 OA
ATOM      4  H   UNL     1       2.785   5.472  17.530  0.00  0.00    +0.000 HD
ENDROOT
BRANCH   1  12
ATOM      5  O   UNL     1      -0.316  12.462  18.320  0.00  0.00    +0.000 OA
ATOM      6  C   UNL     1       0.208  11.506  18.890  0.00  0.00    +0.000 C 
ATOM      7  C   UNL     1       0.381  11.450  20.388  0.00  0.00    +0.000 C 
ATOM      8  C   UNL     1       0.267  10.027  20.916  0.00  0.00    +0.000 C 
ATOM      9  C   UNL     1       1.113   9.080  20.114  0.00  0.00    +0.000 A 
ATOM     10  C   UNL     1       1.591   7.887  20.670  0.00  0.00    +0.000 A 
ATOM     11  C   UNL     1       2.259   6.957  19.871  0.00  0.00    +0.000 A 
ATOM     12  C   UNL     1       2.485   7.232  18.523  0.00  0.00    +0.000 A 
ATOM     13  C   UNL     1       2.037   8.435  17.967  0.00  0.00    +0.000 A 
ATOM     14  C   UNL     1       1.326   9.337  18.756  0.00  0.00    +0.000 A 
ATOM     15  N   UNL     1       0.784  10.489  18.176  0.00  0.00    +0.000 N 
ATOM     16  H   UNL     1       0.769  10.596  17.169  0.00  0.00    +0.000 HD
ENDBRANCH   1  12
BRANCH   2  17
ATOM     17  C   UNL     1       5.079   5.561  16.337  0.00  0.00    +0.000 A 
ATOM     18  C   UNL     1       5.361   5.901  15.002  0.00  0.00    +0.000 A 
ATOM     19  C   UNL     1       6.001   4.995  14.163  0.00  0.00    +0.000 A 
ATOM     20  C   UNL     1       6.325   3.756  14.674  0.00  0.00    +0.000 A 
ATOM     21  N   UNL     1       6.005   3.363  15.921  0.00  0.00    +0.000 NA
ATOM     22  C   UNL     1       5.359   4.249  16.727  0.00  0.00    +0.000 A 
BRANCH  22  23
ATOM     23  O   UNL     1       4.984   3.797  17.975  0.00  0.00    +0.000 OA
BRANCH  23  24
ATOM     24  C   UNL     1       3.898   2.860  17.921  0.00  0.00    +0.000 C 
BRANCH  24  25
ATOM     25  C   UNL     1       2.958   3.012  19.093  0.00  0.00    +0.000 A 
ATOM     26  C   UNL     1       1.622   3.410  18.942  0.00  0.00    +0.000 A 
ATOM     27  C   UNL     1       0.758   3.431  20.041  0.00  0.00    +0.000 A 
ATOM     28  C   UNL     1       1.213   3.047  21.303  0.00  0.00    +0.000 A 
ATOM     29  C   UNL     1       2.536   2.643  21.468  0.00  0.00    +0.000 A 
ATOM     30  C   UNL     1       3.390   2.624  20.368  0.00  0.00    +0.000 A 
ATOM     31  F   UNL     1       4.651   2.199  20.543  0.00  0.00    +0.000 F 
ENDBRANCH  24  25
ENDBRANCH  23  24
ENDBRANCH  22  23
ENDBRANCH   2  17
TORSDOF 5
ENDMDL
MODEL 3
REMARK VINA RESULT:      -9.2      1.355      1.546
REMARK  Name = 
REMARK  5 active torsions:
REMARK  status: ('A' for Active; 'I' for Inactive)
REMARK    1  A    between atoms: C_8  and  N_9
REMARK    2  A    between atoms: C_10  and  C_12
REMARK    3  A    between atoms: C_17  and  O_18
REMARK    4  A    between atoms: O_18  and  C_19
REMARK    5  A    between atoms: C_19  and  C_20
REMARK                            x       y       z     vdW  Elec       q    Type
REMARK                         _______ _______ _______ _____ _____    ______ ____
ROOT
ATOM      1  N   UNL     1       3.491   7.141  18.261  0.00  0.00    +0.000 N 
ATOM      2  C   UNL     1       3.350   5.893  17.660  0.00  0.00    +0.000 C 
ATOM      3  O   UNL     1       2.273   5.327  17.511  0.00  0.00    +0.000 OA
ATOM      4  H   UNL     1       4.348   7.658  18.145  0.00  0.00    +0.000 HD
ENDROOT
BRANCH   1  12
ATOM      5  O   UNL     1      -1.240  12.397  17.917  0.00  0.00    +0.000 OA
ATOM      6  C   UNL     1      -0.652  11.576  18.620  0.00  0.00    +0.000 C 
ATOM      7  C   UNL     1      -0.754  11.577  20.126  0.00  0.00    +0.000 C 
ATOM      8  C   UNL     1      -0.680  10.168  20.697  0.00  0.00    +0.000 C 
ATOM      9  C   UNL     1       0.472   9.403  20.109  0.00  0.00    +0.000 A 
ATOM     10  C   UNL     1       1.064   8.340  20.803  0.00  0.00    +0.000 A 
ATOM     11  C   UNL     1       2.040   7.556  20.186  0.00  0.00    +0.000 A 
ATOM     12  C   UNL     1       2.455   7.853  18.888  0.00  0.00    +0.000 A 
ATOM     13  C   UNL     1       1.889   8.931  18.200  0.00  0.00    +0.000 A 
ATOM     14  C   UNL     1       0.879   9.680  18.801  0.00  0.00    +0.000 A 
ATOM     15  N   UNL     1       0.237  10.688  18.074  0.00  0.00    +0.000 N 
ATOM     16  H   UNL     1       0.390  10.776  17.077  0.00  0.00    +0.000 HD
ENDBRANCH   1  12
BRANCH   2  17
ATOM     17  C   UNL     1       4.618   5.285  17.148  0.00  0.00    +0.000 A 
ATOM     18  C   UNL     1       4.938   5.328  15.779  0.00  0.00    +0.000 A 
ATOM     19  C   UNL     1       6.182   4.894  15.332  0.00  0.00    +0.000 A 
ATOM     20  C   UNL     1       7.072   4.405  16.264  0.00  0.00    +0.000 A 
ATOM     21  N   UNL     1       6.777   4.276  17.571  0.00  0.00    +0.000 NA
ATOM     22  C   UNL     1       5.549   4.681  17.996  0.00  0.00    +0.000 A 
BRANCH  22  23
ATOM     23  O   UNL     1       5.251   4.475  19.327  0.00  0.00    +0.000 OA
BRANCH  23  24
ATOM     24  C   UNL     1       4.817   3.134  19.595  0.00  0.00    +0.000 C 
BRANCH  24  25
ATOM     25  C   UNL     1       3.317   3.042  19.746  0.00  0.00    +0.000 A 
ATOM     26  C   UNL     1       2.601   3.833  20.655  0.00  0.00    +0.000 A 
ATOM     27  C   UNL     1       1.203   3.793  20.684  0.00  0.00    +0.000 A 
ATOM     28  C   UNL     1       0.502   2.971  19.800  0.00  0.00    +0.000 A 
ATOM     29  C   UNL     1       1.200   2.185  18.886  0.00  0.00    +0.000 A 
ATOM     30  C   UNL     1       2.593   2.230  18.864  0.00  0.00    +0.000 A 
ATOM     31  F   UNL     1       3.243   1.490  17.953  0.00  0.00    +0.000 F 
ENDBRANCH  24  25
ENDBRANCH  23  24
ENDBRANCH  22  23
ENDBRANCH   2  17
TORSDOF 5
ENDMDL
MODEL 4
REMARK VINA RESULT:      -9.0      1.751      2.188
REMARK  Name = 
REMARK  5 active torsions:
REMARK  status: ('A' for Active; 'I' for Inactive)
REMARK    1  A    between atoms: C_8  and  N_9
REMARK    2  A    between atoms: C_10  and  C_12
REMARK    3  A    between atoms: C_17  and  O_18
REMARK    4  A    between atoms: O_18  and  C_19
REMARK    5  A    between atoms: C_19  and  C_20
REMARK                            x       y       z     vdW  Elec       q    Type
REMARK                         _______ _______ _______ _____ _____    ______ ____
ROOT
ATOM      1  N   UNL     1       3.102   6.759  17.909  0.00  0.00    +0.000 N 
ATOM      2  C   UNL     1       4.369   6.946  17.361  0.00  0.00    +0.000 C 
ATOM      3  O   UNL     1       5.007   7.987  17.463  0.00  0.00    +0.000 OA
ATOM      4  H   UNL     1       2.731   5.827  18.002  0.00  0.00    +0.000 HD
ENDROOT
BRANCH   1  12
ATOM      5  O   UNL     1       0.515   9.488  23.907  0.00  0.00    +0.000 OA
ATOM      6  C   UNL     1       0.483   9.472  22.677  0.00  0.00    +0.000 C 
ATOM      7  C   UNL     1      -0.571  10.206  21.883  0.00  0.00    +0.000 C 
ATOM      8  C   UNL     1      -0.023  10.721  20.560  0.00  0.00    +0.000 C 
ATOM      9  C   UNL     1       0.732   9.647  19.829  0.00  0.00    +0.000 A 
ATOM     10  C   UNL     1       0.871   9.680  18.436  0.00  0.00    +0.000 A 
ATOM     11  C   UNL     1       1.688   8.751  17.789  0.00  0.00    +0.000 A 
ATOM     12  C   UNL     1       2.338   7.762  18.527  0.00  0.00    +0.000 A 
ATOM     13  C   UNL     1       2.180   7.705  19.916  0.00  0.00    +0.000 A 
ATOM     14  C   UNL     1       1.404   8.665  20.562  0.00  0.00    +0.000 A 
ATOM     15  N   UNL     1       1.334   8.674  21.960  0.00  0.00    +0.000 N 
ATOM     16  H   UNL     1       1.956   8.092  22.507  0.00  0.00    +0.000 HD
ENDBRANCH   1  12
BRANCH   2  17
ATOM     17  C   UNL     1       4.944   5.754  16.664  0.00  0.00    +0.000 A 
ATOM     18  C   UNL     1       5.088   5.734  15.265  0.00  0.00    +0.000 A 
ATOM     19  C   UNL     1       5.756   4.687  14.638  0.00  0.00    +0.000 A 
ATOM     20  C   UNL     1       6.247   3.668  15.427  0.00  0.00    +0.000 A 
ATOM     21  N   UNL     1       6.065   3.610  16.759  0.00  0.00    +0.000 NA
ATOM     22  C   UNL     1       5.390   4.628  17.360  0.00  0.00    +0.000 A 
BRANCH  22  23
ATOM     23  O   UNL     1       5.160   4.509  18.715  0.00  0.00    +0.000 OA
BRANCH  23  24
ATOM     24  C   UNL     1       4.709   3.198  19.086  0.00  0.00    +0.000 C 
BRANCH  24  25
ATOM     25  C   UNL     1       3.236   3.176  19.417  0.00  0.00    +0.000 A 
ATOM     26  C   UNL     1       2.682   3.956  20.443  0.00  0.00    +0.000 A 
ATOM     27  C   UNL     1       1.298   3.989  20.642  0.00  0.00    +0.000 A 
ATOM     28  C   UNL     1       0.449   3.250  19.817  0.00  0.00    +0.000 A 
ATOM     29  C   UNL     1       0.984   2.475  18.790  0.00  0.00    +0.000 A 
ATOM     30  C   UNL     1       2.364   2.449  18.597  0.00  0.00    +0.000 A 
ATOM     31  F   UNL     1       2.854   1.723  17.581  0.00  0.00    +0.000 F 
ENDBRANCH  24  25
ENDBRANCH  23  24
ENDBRANCH  22  23
ENDBRANCH   2  17
TORSDOF 5
ENDMDL
MODEL 5
REMARK VINA RESULT:      -8.9      1.834      2.359
REMARK  Name = 
REMARK  5 active torsions:
REMARK  status: ('A' for Active; 'I' for Inactive)
REMARK    1  A    between atoms: C_8  and  N_9
REMARK    2  A    between atoms: C_10  and  C_12
REMARK    3  A    between atoms: C_17  and  O_18
REMARK    4  A    between atoms: O_18  and  C_19
REMARK    5  A    between atoms: C_19  and  C_20
REMARK                            x       y       z     vdW  Elec       q    Type
REMARK                         _______ _______ _______ _____ _____    ______ ____
ROOT
ATOM      1  N   UNL     1       3.137   6.793  17.691  0.00  0.00    +0.000 N 
ATOM      2  C   UNL     1       4.456   6.941  17.270  0.00  0.00    +0.000 C 
ATOM      3  O   UNL     1       5.150   7.915  17.535  0.00  0.00    +0.000 OA
ATOM      4  H   UNL     1       2.698   5.886  17.652  0.00  0.00    +0.000 HD
ENDROOT
BRANCH   1  12
ATOM      5  O   UNL     1       0.669   9.356  23.811  0.00  0.00    +0.000 OA
ATOM      6  C   UNL     1       0.615   9.376  22.583  0.00  0.00    +0.000 C 
ATOM      7  C   UNL     1      -0.448  10.138  21.829  0.00  0.00    +0.000 C 
ATOM      8  C   UNL     1       0.079  10.689  20.513  0.00  0.00    +0.000 C 
ATOM      9  C   UNL     1       0.815   9.634  19.737  0.00  0.00    +0.000 A 
ATOM     10  C   UNL     1       0.930   9.707  18.343  0.00  0.00    +0.000 A 
ATOM     11  C   UNL     1       1.731   8.793  17.655  0.00  0.00    +0.000 A 
ATOM     12  C   UNL     1       2.389   7.781  18.352  0.00  0.00    +0.000 A 
ATOM     13  C   UNL     1       2.255   7.683  19.742  0.00  0.00    +0.000 A 
ATOM     14  C   UNL     1       1.496   8.627  20.429  0.00  0.00    +0.000 A 
ATOM     15  N   UNL     1       1.450   8.596  21.827  0.00  0.00    +0.000 N 
ATOM     16  H   UNL     1       2.078   7.995  22.346  0.00  0.00    +0.000 HD
ENDBRANCH   1  12
BRANCH   2  17
ATOM     17  C   UNL     1       5.011   5.787  16.495  0.00  0.00    +0.000 A 
ATOM     18  C   UNL     1       5.237   5.888  15.111  0.00  0.00    +0.000 A 
ATOM     19  C   UNL     1       5.888   4.868  14.425  0.00  0.00    +0.000 A 
ATOM     20  C   UNL     1       6.278   3.754  15.139  0.00  0.00    +0.000 A 
ATOM     21  N   UNL     1       6.013   3.584  16.448  0.00  0.00    +0.000 NA
ATOM     22  C   UNL     1       5.356   4.578  17.105  0.00  0.00    +0.000 A 
BRANCH  22  23
ATOM     23  O   UNL     1       5.040   4.348  18.427  0.00  0.00    +0.000 OA
BRANCH  23  24
ATOM     24  C   UNL     1       4.400   3.079  18.630  0.00  0.00    +0.000 C 
BRANCH  24  25
ATOM     25  C   UNL     1       3.229   3.179  19.579  0.00  0.00    +0.000 A 
ATOM     26  C   UNL     1       2.011   3.769  19.215  0.00  0.00    +0.000 A 
ATOM     27  C   UNL     1       0.919   3.740  20.088  0.00  0.00    +0.000 A 
ATOM     28  C   UNL     1       1.025   3.115  21.331  0.00  0.00    +0.000 A 
ATOM     29  C   UNL     1       2.228   2.519  21.704  0.00  0.00    +0.000 A 
ATOM     30  C   UNL     1       3.311   2.550  20.829  0.00  0.00    +0.000 A 
ATOM     31  F   UNL     1       4.448   1.940  21.194  0.00  0.00    +0.000 F 
ENDBRANCH  24  25
ENDBRANCH  23  24
ENDBRANCH  22  23
ENDBRANCH   2  17
TORSDOF 5
ENDMDL
MODEL 6
REMARK VINA RESULT:      -8.7      2.013      2.544
REMARK  Name = 
REMARK  5 active torsions:
REMARK  status: ('A' for Active; 'I' for Inactive)
REMARK    1  A    between atoms: C_8  and  N_9
REMARK    2  A    between atoms: C_10  and  C_12
REMARK    3  A    between atoms: C_17  and  O_18
REMARK    4  A    between atoms: O_18  and  C_19
REMARK    5  A    between atoms: C_19  and  C_20
REMARK                            x       y       z     vdW  Elec       q    Type
REMARK                         _______ _______ _______ _____ _____    ______ ____
ROOT
ATOM      1  N   UNL     1       3.095   7.241  17.778  0.00  0.00    +0.000 N 
ATOM      2  C   UNL     1       3.891   6.264  18.370  0.00  0.00    +0.000 C 
ATOM      3  O   UNL     1       3.850   5.982  19.562  0.00  0.00    +0.000 OA
ATOM      4  H   UNL     1       2.997   7.266  16.776  0.00  0.00    +0.000 HD
ENDROOT
BRANCH   1  12
ATOM      5  O   UNL     1       0.538   9.428  24.007  0.00  0.00    +0.000 OA
ATOM      6  C   UNL     1       0.435   9.444  22.782  0.00  0.00    +0.000 C 
ATOM      7  C   UNL     1      -0.750  10.056  22.075  0.00  0.00    +0.000 C 
ATOM      8  C   UNL     1      -0.354  10.677  20.744  0.00  0.00    +0.000 C 
ATOM      9  C   UNL     1       0.488   9.733  19.933  0.00  0.00    +0.000 A 
ATOM     10  C   UNL     1       0.539   9.825  18.536  0.00  0.00    +0.000 A 
ATOM     11  C   UNL     1       1.429   9.031  17.811  0.00  0.00    +0.000 A 
ATOM     12  C   UNL     1       2.245   8.116  18.475  0.00  0.00    +0.000 A 
ATOM     13  C   UNL     1       2.179   7.997  19.868  0.00  0.00    +0.000 A 
ATOM     14  C   UNL     1       1.326   8.827  20.591  0.00  0.00    +0.000 A 
ATOM     15  N   UNL     1       1.338   8.786  21.989  0.00  0.00    +0.000 N 
ATOM     16  H   UNL     1       2.062   8.276  22.479  0.00  0.00    +0.000 HD
ENDBRANCH   1  12
BRANCH   2  17
ATOM     17  C   UNL     1       4.791   5.522  17.433  0.00  0.00    +0.000 A 
ATOM     18  C   UNL     1       6.111   5.950  17.206  0.00  0.00    +0.000 A 
ATOM     19  C   UNL     1       6.986   5.176  16.451  0.00  0.00    +0.000 A 
ATOM     20  C   UNL     1       6.511   3.996  15.918  0.00  0.00    +0.000 A 
ATOM     21  N   UNL     1       5.235   3.587  16.047  0.00  0.00    +0.000 NA
ATOM     22  C   UNL     1       4.381   4.363  16.768  0.00  0.00    +0.000 A 
BRANCH  22  23
ATOM     23  O   UNL     1       3.065   3.954  16.827  0.00  0.00    +0.000 OA
BRANCH  23  24
ATOM     24  C   UNL     1       2.907   2.695  17.498  0.00  0.00    +0.000 C 
BRANCH  24  25
ATOM     25  C   UNL     1       2.475   2.868  18.935  0.00  0.00    +0.000 A 
ATOM     26  C   UNL     1       1.167   3.224  19.291  0.00  0.00    +0.000 A 
ATOM     27  C   UNL     1       0.783   3.265  20.636  0.00  0.00    +0.000 A 
ATOM     28  C   UNL     1       1.697   2.943  21.640  0.00  0.00    +0.000 A 
ATOM     29  C   UNL     1       2.999   2.581  21.301  0.00  0.00    +0.000 A 
ATOM     30  C   UNL     1       3.373   2.541  19.959  0.00  0.00    +0.000 A 
ATOM     31  F   UNL     1       4.622   2.157  19.654  0.00  0.00    +0.000 F 
ENDBRANCH  24  25
ENDBRANCH  23  24
ENDBRANCH  22  23
ENDBRANCH   2  17
TORSDOF 5
ENDMDL
MODEL 7
REMARK VINA RESULT:      -8.6      1.478      1.708
REMARK  Name = 
REMARK  5 active torsions:
REMARK  status: ('A' for Active; 'I' for Inactive)
REMARK    1  A    between atoms: C_8  and  N_9
REMARK    2  A    between atoms: C_10  and  C_12
REMARK    3  A    between atoms: C_17  and  O_18
REMARK    4  A    between atoms: O_18  and  C_19
REMARK    5  A    between atoms: C_19  and  C_20
REMARK                            x       y       z     vdW  Elec       q    Type
REMARK                         _______ _______ _______ _____ _____    ______ ____
ROOT
ATOM      1  N   UNL     1       3.453   7.234  18.313  0.00  0.00    +0.000 N 
ATOM      2  C   UNL     1       3.308   6.000  17.684  0.00  0.00    +0.000 C 
ATOM      3  O   UNL     1       2.227   5.457  17.491  0.00  0.00    +0.000 OA
ATOM      4  H   UNL     1       4.323   7.736  18.233  0.00  0.00    +0.000 HD
ENDROOT
BRANCH   1  12
ATOM      5  O   UNL     1      -1.258  12.499  17.862  0.00  0.00    +0.000 OA
ATOM      6  C   UNL     1      -0.682  11.683  18.579  0.00  0.00    +0.000 C 
ATOM      7  C   UNL     1      -0.803  11.697  20.084  0.00  0.00    +0.000 C 
ATOM      8  C   UNL     1      -0.741  10.293  20.668  0.00  0.00    +0.000 C 
ATOM      9  C   UNL     1       0.416   9.519  20.102  0.00  0.00    +0.000 A 
ATOM     10  C   UNL     1       0.996   8.461  20.812  0.00  0.00    +0.000 A 
ATOM     11  C   UNL     1       1.978   7.668  20.214  0.00  0.00    +0.000 A 
ATOM     12  C   UNL     1       2.411   7.954  18.920  0.00  0.00    +0.000 A 
ATOM     13  C   UNL     1       1.857   9.028  18.215  0.00  0.00    +0.000 A 
ATOM     14  C   UNL     1       0.842   9.784  18.797  0.00  0.00    +0.000 A 
ATOM     15  N   UNL     1       0.212  10.788  18.053  0.00  0.00    +0.000 N 
ATOM     16  H   UNL     1       0.378  10.868  17.058  0.00  0.00    +0.000 HD
ENDBRANCH   1  12
BRANCH   2  17
ATOM     17  C   UNL     1       4.581   5.378  17.201  0.00  0.00    +0.000 A 
ATOM     18  C   UNL     1       4.913   5.380  15.834  0.00  0.00    +0.000 A 
ATOM     19  C   UNL     1       6.160   4.934  15.410  0.00  0.00    +0.000 A 
ATOM     20  C   UNL     1       7.042   4.472  16.364  0.00  0.00    +0.000 A 
ATOM     21  N   UNL     1       6.736   4.382  17.672  0.00  0.00    +0.000 NA
ATOM     22  C   UNL     1       5.506   4.800  18.074  0.00  0.00    +0.000 A 
BRANCH  22  23
ATOM     23  O   UNL     1       5.196   4.633  19.408  0.00  0.00    +0.000 OA
BRANCH  23  24
ATOM     24  C   UNL     1       4.782   3.294  19.717  0.00  0.00    +0.000 C 
BRANCH  24  25
ATOM     25  C   UNL     1       3.293   3.106  19.544  0.00  0.00    +0.000 A 
ATOM     26  C   UNL     1       2.749   2.206  18.618  0.00  0.00    +0.000 A 
ATOM     27  C   UNL     1       1.369   1.984  18.569  0.00  0.00    +0.000 A 
ATOM     28  C   UNL     1       0.515   2.650  19.449  0.00  0.00    +0.000 A 
ATOM     29  C   UNL     1       1.043   3.543  20.380  0.00  0.00    +0.000 A 
ATOM     30  C   UNL     1       2.418   3.759  20.423  0.00  0.00    +0.000 A 
ATOM     31  F   UNL     1       2.906   4.597  21.349  0.00  0.00    +0.000 F 
ENDBRANCH  24  25
ENDBRANCH  23  24
ENDBRANCH  22  23
ENDBRANCH   2  17
TORSDOF 5
ENDMDL
MODEL 8
REMARK VINA RESULT:      -8.6      1.826      2.249
REMARK  Name = 
REMARK  5 active torsions:
REMARK  status: ('A' for Active; 'I' for Inactive)
REMARK    1  A    between atoms: C_8  and  N_9
REMARK    2  A    between atoms: C_10  and  C_12
REMARK    3  A    between atoms: C_17  and  O_18
REMARK    4  A    between atoms: O_18  and  C_19
REMARK    5  A    between atoms: C_19  and  C_20
REMARK                            x       y       z     vdW  Elec       q    Type
REMARK                         _______ _______ _______ _____ _____    ______ ____
ROOT
ATOM      1  N   UNL     1       3.080   7.550  17.754  0.00  0.00    +0.000 N 
ATOM      2  C   UNL     1       3.619   6.371  18.262  0.00  0.00    +0.000 C 
ATOM      3  O   UNL     1       3.272   5.866  19.323  0.00  0.00    +0.000 OA
ATOM      4  H   UNL     1       3.224   7.788  16.785  0.00  0.00    +0.000 HD
ENDROOT
BRANCH   1  12
ATOM      5  O   UNL     1       0.359   9.644  23.944  0.00  0.00    +0.000 OA
ATOM      6  C   UNL     1       0.263   9.643  22.718  0.00  0.00    +0.000 C 
ATOM      7  C   UNL     1      -0.950  10.179  21.997  0.00  0.00    +0.000 C 
ATOM      8  C   UNL     1      -0.580  10.810  20.663  0.00  0.00    +0.000 C 
ATOM      9  C   UNL     1       0.321   9.909  19.867  0.00  0.00    +0.000 A 
ATOM     10  C   UNL     1       0.375   9.991  18.470  0.00  0.00    +0.000 A 
ATOM     11  C   UNL     1       1.315   9.242  17.758  0.00  0.00    +0.000 A 
ATOM     12  C   UNL     1       2.177   8.381  18.436  0.00  0.00    +0.000 A 
ATOM     13  C   UNL     1       2.108   8.271  19.829  0.00  0.00    +0.000 A 
ATOM     14  C   UNL     1       1.203   9.058  20.539  0.00  0.00    +0.000 A 
ATOM     15  N   UNL     1       1.208   9.031  21.938  0.00  0.00    +0.000 N 
ATOM     16  H   UNL     1       1.957   8.567  22.437  0.00  0.00    +0.000 HD
ENDBRANCH   1  12
BRANCH   2  17
ATOM     17  C   UNL     1       4.640   5.709  17.391  0.00  0.00    +0.000 A 
ATOM     18  C   UNL     1       5.861   6.342  17.099  0.00  0.00    +0.000 A 
ATOM     19  C   UNL     1       6.863   5.663  16.413  0.00  0.00    +0.000 A 
ATOM     20  C   UNL     1       6.610   4.368  16.012  0.00  0.00    +0.000 A 
ATOM     21  N   UNL     1       5.428   3.752  16.204  0.00  0.00    +0.000 NA
ATOM     22  C   UNL     1       4.447   4.432  16.856  0.00  0.00    +0.000 A 
BRANCH  22  23
ATOM     23  O   UNL     1       3.227   3.802  16.978  0.00  0.00    +0.000 OA
BRANCH  23  24
ATOM     24  C   UNL     1       3.320   2.547  17.669  0.00  0.00    +0.000 C 
BRANCH  24  25
ATOM     25  C   UNL     1       2.715   2.613  19.051  0.00  0.00    +0.000 A 
ATOM     26  C   UNL     1       3.479   2.465  20.217  0.00  0.00    +0.000 A 
ATOM     27  C   UNL     1       2.897   2.643  21.476  0.00  0.00    +0.000 A 
ATOM     28  C   UNL     1       1.547   2.980  21.588  0.00  0.00    +0.000 A 
ATOM     29  C   UNL     1       0.776   3.137  20.438  0.00  0.00    +0.000 A 
ATOM     30  C   UNL     1       1.364   2.959  19.188  0.00  0.00    +0.000 A 
ATOM     31  F   UNL     1       0.611   3.148  18.094  0.00  0.00    +0.000 F 
ENDBRANCH  24  25
ENDBRANCH  23  24
ENDBRANCH  22  23
ENDBRANCH   2  17
TORSDOF 5
ENDMDL
MODEL 9
REMARK VINA RESULT:      -8.4      2.442      4.588
REMARK  Name = 
REMARK  5 active torsions:
REMARK  status: ('A' for Active; 'I' for Inactive)
REMARK    1  A    between atoms: C_8  and  N_9
REMARK    2  A    between atoms: C_10  and  C_12
REMARK    3  A    between atoms: C_17  and  O_18
REMARK    4  A    between atoms: O_18  and  C_19
REMARK    5  A    between atoms: C_19  and  C_20
REMARK                            x       y       z     vdW  Elec       q    Type
REMARK                         _______ _______ _______ _____ _____    ______ ____
ROOT
ATOM      1  N   UNL     1       2.592   6.574  19.803  0.00  0.00    +0.000 N 
ATOM      2  C   UNL     1       2.356   5.538  18.904  0.00  0.00    +0.000 C 
ATOM      3  O   UNL     1       1.653   5.649  17.907  0.00  0.00    +0.000 OA
ATOM      4  H   UNL     1       3.354   6.503  20.460  0.00  0.00    +0.000 HD
ENDROOT
BRANCH   1  12
ATOM      5  O   UNL     1      -1.040  11.567  23.267  0.00  0.00    +0.000 OA
ATOM      6  C   UNL     1      -0.657  11.128  22.184  0.00  0.00    +0.000 C 
ATOM      7  C   UNL     1      -1.140  11.684  20.866  0.00  0.00    +0.000 C 
ATOM      8  C   UNL     1      -0.060  11.620  19.797  0.00  0.00    +0.000 C 
ATOM      9  C   UNL     1       0.580  10.261  19.750  0.00  0.00    +0.000 A 
ATOM     10  C   UNL     1       1.187   9.786  18.581  0.00  0.00    +0.000 A 
ATOM     11  C   UNL     1       1.893   8.582  18.595  0.00  0.00    +0.000 A 
ATOM     12  C   UNL     1       1.963   7.830  19.767  0.00  0.00    +0.000 A 
ATOM     13  C   UNL     1       1.334   8.283  20.932  0.00  0.00    +0.000 A 
ATOM     14  C   UNL     1       0.674   9.510  20.925  0.00  0.00    +0.000 A 
ATOM     15  N   UNL     1       0.139  10.015  22.116  0.00  0.00    +0.000 N 
ATOM     16  H   UNL     1       0.359   9.577  23.001  0.00  0.00    +0.000 HD
ENDBRANCH   1  12
BRANCH   2  17
ATOM     17  C   UNL     1       3.070   4.257  19.206  0.00  0.00    +0.000 A 
ATOM     18  C   UNL     1       2.404   3.021  19.121  0.00  0.00    +0.000 A 
ATOM     19  C   UNL     1       3.108   1.829  19.258  0.00  0.00    +0.000 A 
ATOM     20  C   UNL     1       4.464   1.902  19.501  0.00  0.00    +0.000 A 
ATOM     21  N   UNL     1       5.124   3.063  19.666  0.00  0.00    +0.000 NA
ATOM     22  C   UNL     1       4.423   4.223  19.552  0.00  0.00    +0.000 A 
BRANCH  22  23
ATOM     23  O   UNL     1       5.112   5.394  19.791  0.00  0.00    +0.000 OA
BRANCH  23  24
ATOM     24  C   UNL     1       6.376   5.440  19.113  0.00  0.00    +0.000 C 
BRANCH  24  25
ATOM     25  C   UNL     1       6.219   5.381  17.613  0.00  0.00    +0.000 A 
ATOM     26  C   UNL     1       5.232   6.105  16.929  0.00  0.00    +0.000 A 
ATOM     27  C   UNL     1       5.193   6.107  15.530  0.00  0.00    +0.000 A 
ATOM     28  C   UNL     1       6.141   5.392  14.797  0.00  0.00    +0.000 A 
ATOM     29  C   UNL     1       7.131   4.672  15.463  0.00  0.00    +0.000 A 
ATOM     30  C   UNL     1       7.164   4.677  16.856  0.00  0.00    +0.000 A 
ATOM     31  F   UNL     1       8.147   4.005  17.475  0.00  0.00    +0.000 F 
ENDBRANCH  24  25
ENDBRANCH  23  24
ENDBRANCH  22  23
ENDBRANCH   2  17
TORSDOF 5
ENDMDL
