MODEL 1
REMARK VINA RESULT:      -8.4      0.000      0.000
REMARK  Name = 
REMARK  8 active torsions:
REMARK  status: ('A' for Active; 'I' for Inactive)
REMARK    1  A    between atoms: C_2  and  OXT_3
REMARK    2  A    between atoms: C_2  and  CA_4
REMARK    3  A    between atoms: CA_4  and  CB_5
REMARK    4  A    between atoms: CA_4  and  N_12
REMARK    5  A    between atoms: CB_5  and  CG_6
REMARK    6  A    between atoms: N_12  and  C_13
REMARK    7  A    between atoms: C_13  and  C_14
REMARK    8  A    between atoms: C_17  and  N_18
REMARK                            x       y       z     vdW  Elec       q    Type
REMARK                         _______ _______ _______ _____ _____    ______ ____
ROOT
ATOM      1  C   UNK A   0       3.147   6.734  17.706  0.00  0.00    +0.000 C 
ENDROOT
BRANCH   1   2
ATOM      2  C   UNK A   0       2.332   7.566  18.676  0.00  0.00    +0.000 A 
ATOM      3  C   UNK A   0       2.137   7.108  19.984  0.00  0.00    +0.000 A 
ATOM      4  C   UNK A   0       1.499   7.907  20.915  0.00  0.00    +0.000 A 
ATOM      5  C   UNK A   0       1.073   9.191  20.565  0.00  0.00    +0.000 A 
ATOM      6  C   UNK A   0       1.195   9.659  19.258  0.00  0.00    +0.000 A 
ATOM      7  C   UNK A   0       1.841   8.840  18.318  0.00  0.00    +0.000 A 
BRANCH   5   8
ATOM      8  N   UNK A   0       0.616   9.997  21.629  0.00  0.00    +0.000 N 
ATOM      9  C   UNK A   0       0.461   9.504  22.902  0.00  0.00    +0.000 A 
ATOM     10  N   UNK A   0      -0.539  10.057  23.542  0.00  0.00    +0.000 NA
ATOM     11  C   UNK A   0      -1.015  10.999  22.671  0.00  0.00    +0.000 A 
ATOM     12  C   UNK A   0      -2.164  11.788  22.784  0.00  0.00    +0.000 A 
ATOM     13  C   UNK A   0      -2.449  12.714  21.775  0.00  0.00    +0.000 A 
ATOM     14  C   UNK A   0      -1.579  12.874  20.693  0.00  0.00    +0.000 A 
ATOM     15  C   UNK A   0      -0.448  12.061  20.535  0.00  0.00    +0.000 A 
ATOM     16  C   UNK A   0      -0.215  11.098  21.528  0.00  0.00    +0.000 A 
ENDBRANCH   5   8
ENDBRANCH   1   2
BRANCH   1  17
ATOM     17  N   PHE A   1       4.104   5.812  18.344  0.00  0.00    +0.000 NA
ATOM     18  H   PHE A   1       4.935   6.355  18.598  0.00  0.00    +0.000 HD
BRANCH  17  19
ATOM     19  CA  PHE A   1       4.547   4.707  17.457  0.00  0.00    +0.000 C 
BRANCH  19  21
ATOM     20  O   PHE A   1       6.656   4.482  18.686  0.00  0.00    +0.000 OA
ATOM     21  C   PHE A   1       6.034   4.387  17.639  0.00  0.00    +0.000 C 
BRANCH  21  22
ATOM     22  OXT PHE A   1       6.646   3.994  16.487  0.00  0.00    +0.000 OA
ATOM     23  HXT PHE A   1       7.048   3.106  16.530  0.00  0.00    +0.000 HD
ENDBRANCH  21  22
ENDBRANCH  19  21
BRANCH  19  24
ATOM     24  CB  PHE A   1       3.670   3.453  17.644  0.00  0.00    +0.000 C 
BRANCH  24  25
ATOM     25  CG  PHE A   1       2.874   3.344  18.924  0.00  0.00    +0.000 A 
ATOM     26  CD1 PHE A   1       1.510   3.662  18.943  0.00  0.00    +0.000 A 
ATOM     27  CE1 PHE A   1       0.755   3.477  20.103  0.00  0.00    +0.000 A 
ATOM     28  CZ  PHE A   1       1.358   2.984  21.258  0.00  0.00    +0.000 A 
ATOM     29  CE2 PHE A   1       2.720   2.691  21.260  0.00  0.00    +0.000 A 
ATOM     30  CD2 PHE A   1       3.475   2.870  20.099  0.00  0.00    +0.000 A 
ENDBRANCH  24  25
ENDBRANCH  19  24
ENDBRANCH  17  19
ENDBRANCH   1  17
TORSDOF 8
ENDMDL
MODEL 2
REMARK VINA RESULT:      -8.3      2.611      4.251
REMARK  Name = 
REMARK  8 active torsions:
REMARK  status: ('A' for Active; 'I' for Inactive)
REMARK    1  A    between atoms: C_2  and  OXT_3
REMARK    2  A    between atoms: C_2  and  CA_4
REMARK    3  A    between atoms: CA_4  and  CB_5
REMARK    4  A    between atoms: CA_4  and  N_12
REMARK    5  A    between atoms: CB_5  and  CG_6
REMARK    6  A    between atoms: N_12  and  C_13
REMARK    7  A    between atoms: C_13  and  C_14
REMARK    8  A    between atoms: C_17  and  N_18
REMARK                            x       y       z     vdW  Elec       q    Type
REMARK                         _______ _______ _______ _____ _____    ______ ____
ROOT
ATOM      1  C   UNK A   0       2.885   5.951  19.770  0.00  0.00    +0.000 C 
ENDROOT
BRANCH   1   2
ATOM      2  C   UNK A   0       2.257   7.310  19.540  0.00  0.00    +0.000 A 
ATOM      3  C   UNK A   0       2.298   7.882  18.263  0.00  0.00    +0.000 A 
ATOM      4  C   UNK A   0       1.627   9.064  18.006  0.00  0.00    +0.000 A 
ATOM      5  C   UNK A   0       0.877   9.679  19.013  0.00  0.00    +0.000 A 
ATOM      6  C   UNK A   0       0.861   9.173  20.310  0.00  0.00    +0.000 A 
ATOM      7  C   UNK A   0       1.547   7.974  20.563  0.00  0.00    +0.000 A 
BRANCH   5   8
ATOM      8  N   UNK A   0       0.075  10.765  18.602  0.00  0.00    +0.000 N 
ATOM      9  C   UNK A   0       0.157  11.999  19.200  0.00  0.00    +0.000 A 
ATOM     10  N   UNK A   0      -0.995  12.621  19.238  0.00  0.00    +0.000 NA
ATOM     11  C   UNK A   0      -1.851  11.784  18.576  0.00  0.00    +0.000 A 
ATOM     12  C   UNK A   0      -3.239  11.887  18.440  0.00  0.00    +0.000 A 
ATOM     13  C   UNK A   0      -3.918  10.921  17.690  0.00  0.00    +0.000 A 
ATOM     14  C   UNK A   0      -3.215   9.893  17.057  0.00  0.00    +0.000 A 
ATOM     15  C   UNK A   0      -1.831   9.742  17.219  0.00  0.00    +0.000 A 
ATOM     16  C   UNK A   0      -1.180  10.688  18.025  0.00  0.00    +0.000 A 
ENDBRANCH   5   8
ENDBRANCH   1   2
BRANCH   1  17
ATOM     17  N   PHE A   1       2.716   5.001  18.655  0.00  0.00    +0.000 NA
ATOM     18  H   PHE A   1       1.839   4.494  18.809  0.00  0.00    +0.000 HD
BRANCH  17  19
ATOM     19  CA  PHE A   1       3.803   3.994  18.563  0.00  0.00    +0.000 C 
BRANCH  19  21
ATOM     20  O   PHE A   1       3.583   1.725  17.658  0.00  0.00    +0.000 OA
ATOM     21  C   PHE A   1       3.255   2.565  18.483  0.00  0.00    +0.000 C 
BRANCH  21  22
ATOM     22  OXT PHE A   1       2.313   2.294  19.430  0.00  0.00    +0.000 OA
ATOM     23  HXT PHE A   1       1.641   1.644  19.151  0.00  0.00    +0.000 HD
ENDBRANCH  21  22
ENDBRANCH  19  21
BRANCH  19  24
ATOM     24  CB  PHE A   1       4.755   4.302  17.391  0.00  0.00    +0.000 C 
BRANCH  24  25
ATOM     25  CG  PHE A   1       5.885   5.271  17.647  0.00  0.00    +0.000 A 
ATOM     26  CD1 PHE A   1       5.987   6.458  16.910  0.00  0.00    +0.000 A 
ATOM     27  CE1 PHE A   1       6.979   7.395  17.207  0.00  0.00    +0.000 A 
ATOM     28  CZ  PHE A   1       7.886   7.150  18.236  0.00  0.00    +0.000 A 
ATOM     29  CE2 PHE A   1       7.813   5.960  18.957  0.00  0.00    +0.000 A 
ATOM     30  CD2 PHE A   1       6.818   5.026  18.665  0.00  0.00    +0.000 A 
ENDBRANCH  24  25
ENDBRANCH  19  24
ENDBRANCH  17  19
ENDBRANCH   1  17
TORSDOF 8
ENDMDL
MODEL 3
REMARK VINA RESULT:      -8.2      0.892      1.310
REMARK  Name = 
REMARK  8 active torsions:
REMARK  status: ('A' for Active; 'I' for Inactive)
REMARK    1  A    between atoms: C_2  and  OXT_3
REMARK    2  A    between atoms: C_2  and  CA_4
REMARK    3  A    between atoms: CA_4  and  CB_5
REMARK    4  A    between atoms: CA_4  and  N_12
REMARK    5  A    between atoms: CB_5  and  CG_6
REMARK    6  A    between atoms: N_12  and  C_13
REMARK    7  A    between atoms: C_13  and  C_14
REMARK    8  A    between atoms: C_17  and  N_18
REMARK                            x       y       z     vdW  Elec       q    Type
REMARK                         _______ _______ _______ _____ _____    ______ ____
ROOT
ATOM      1  C   UNK A   0       3.308   6.407  17.566  0.00  0.00    +0.000 C 
ENDROOT
BRANCH   1   2
ATOM      2  C   UNK A   0       2.532   7.284  18.527  0.00  0.00    +0.000 A 
ATOM      3  C   UNK A   0       2.339   6.859  19.847  0.00  0.00    +0.000 A 
ATOM      4  C   UNK A   0       1.739   7.697  20.769  0.00  0.00    +0.000 A 
ATOM      5  C   UNK A   0       1.348   8.987  20.396  0.00  0.00    +0.000 A 
ATOM      6  C   UNK A   0       1.468   9.423  19.079  0.00  0.00    +0.000 A 
ATOM      7  C   UNK A   0       2.076   8.565  18.148  0.00  0.00    +0.000 A 
BRANCH   5   8
ATOM      8  N   UNK A   0       0.930   9.828  21.449  0.00  0.00    +0.000 N 
ATOM      9  C   UNK A   0       0.886   9.397  22.752  0.00  0.00    +0.000 A 
ATOM     10  N   UNK A   0      -0.092   9.941  23.433  0.00  0.00    +0.000 NA
ATOM     11  C   UNK A   0      -0.668  10.815  22.553  0.00  0.00    +0.000 A 
ATOM     12  C   UNK A   0      -1.842  11.561  22.708  0.00  0.00    +0.000 A 
ATOM     13  C   UNK A   0      -2.236  12.420  21.677  0.00  0.00    +0.000 A 
ATOM     14  C   UNK A   0      -1.451  12.558  20.529  0.00  0.00    +0.000 A 
ATOM     15  C   UNK A   0      -0.298  11.785  20.331  0.00  0.00    +0.000 A 
ATOM     16  C   UNK A   0       0.045  10.887  21.352  0.00  0.00    +0.000 A 
ENDBRANCH   5   8
ENDBRANCH   1   2
BRANCH   1  17
ATOM     17  N   PHE A   1       4.764   6.382  17.797  0.00  0.00    +0.000 NA
ATOM     18  H   PHE A   1       5.197   7.018  17.120  0.00  0.00    +0.000 HD
BRANCH  17  19
ATOM     19  CA  PHE A   1       5.374   5.043  17.604  0.00  0.00    +0.000 C 
BRANCH  19  21
ATOM     20  O   PHE A   1       7.305   5.887  16.351  0.00  0.00    +0.000 OA
ATOM     21  C   PHE A   1       6.850   5.138  17.202  0.00  0.00    +0.000 C 
BRANCH  21  22
ATOM     22  OXT PHE A   1       7.650   4.266  17.876  0.00  0.00    +0.000 OA
ATOM     23  HXT PHE A   1       7.816   4.512  18.805  0.00  0.00    +0.000 HD
ENDBRANCH  21  22
ENDBRANCH  19  21
BRANCH  19  24
ATOM     24  CB  PHE A   1       5.183   4.156  18.850  0.00  0.00    +0.000 C 
BRANCH  24  25
ATOM     25  CG  PHE A   1       3.858   3.445  19.002  0.00  0.00    +0.000 A 
ATOM     26  CD1 PHE A   1       3.127   3.548  20.193  0.00  0.00    +0.000 A 
ATOM     27  CE1 PHE A   1       1.862   2.965  20.301  0.00  0.00    +0.000 A 
ATOM     28  CZ  PHE A   1       1.322   2.263  19.226  0.00  0.00    +0.000 A 
ATOM     29  CE2 PHE A   1       2.052   2.128  18.047  0.00  0.00    +0.000 A 
ATOM     30  CD2 PHE A   1       3.313   2.716  17.935  0.00  0.00    +0.000 A 
ENDBRANCH  24  25
ENDBRANCH  19  24
ENDBRANCH  17  19
ENDBRANCH   1  17
TORSDOF 8
ENDMDL
MODEL 4
REMARK VINA RESULT:      -8.2      2.268      3.854
REMARK  Name = 
REMARK  8 active torsions:
REMARK  status: ('A' for Active; 'I' for Inactive)
REMARK    1  A    between atoms: C_2  and  OXT_3
REMARK    2  A    between atoms: C_2  and  CA_4
REMARK    3  A    between atoms: CA_4  and  CB_5
REMARK    4  A    between atoms: CA_4  and  N_12
REMARK    5  A    between atoms: CB_5  and  CG_6
REMARK    6  A    between atoms: N_12  and  C_13
REMARK    7  A    between atoms: C_13  and  C_14
REMARK    8  A    between atoms: C_17  and  N_18
REMARK                            x       y       z     vdW  Elec       q    Type
REMARK                         _______ _______ _______ _____ _____    ______ ____
ROOT
ATOM      1  C   UNK A   0       3.204   5.994  19.291  0.00  0.00    +0.000 C 
ENDROOT
BRANCH   1   2
ATOM      2  C   UNK A   0       2.351   7.245  19.225  0.00  0.00    +0.000 A 
ATOM      3  C   UNK A   0       1.714   7.709  20.382  0.00  0.00    +0.000 A 
ATOM      4  C   UNK A   0       1.031   8.911  20.369  0.00  0.00    +0.000 A 
ATOM      5  C   UNK A   0       0.999   9.688  19.207  0.00  0.00    +0.000 A 
ATOM      6  C   UNK A   0       1.569   9.233  18.020  0.00  0.00    +0.000 A 
ATOM      7  C   UNK A   0       2.258   8.009  18.041  0.00  0.00    +0.000 A 
BRANCH   5   8
ATOM      8  N   UNK A   0       0.450  10.980  19.349  0.00  0.00    +0.000 N 
ATOM      9  C   UNK A   0       0.907  11.865  20.295  0.00  0.00    +0.000 A 
ATOM     10  N   UNK A   0      -0.042  12.637  20.766  0.00  0.00    +0.000 NA
ATOM     11  C   UNK A   0      -1.150  12.284  20.046  0.00  0.00    +0.000 A 
ATOM     12  C   UNK A   0      -2.475  12.692  20.231  0.00  0.00    +0.000 A 
ATOM     13  C   UNK A   0      -3.456  12.220  19.352  0.00  0.00    +0.000 A 
ATOM     14  C   UNK A   0      -3.111  11.385  18.287  0.00  0.00    +0.000 A 
ATOM     15  C   UNK A   0      -1.798  10.923  18.112  0.00  0.00    +0.000 A 
ATOM     16  C   UNK A   0      -0.843  11.362  19.040  0.00  0.00    +0.000 A 
ENDBRANCH   5   8
ENDBRANCH   1   2
BRANCH   1  17
ATOM     17  N   PHE A   1       2.861   4.965  18.292  0.00  0.00    +0.000 NA
ATOM     18  H   PHE A   1       1.994   4.513  18.597  0.00  0.00    +0.000 HD
BRANCH  17  19
ATOM     19  CA  PHE A   1       3.891   3.905  18.154  0.00  0.00    +0.000 C 
BRANCH  19  21
ATOM     20  O   PHE A   1       2.141   2.374  17.378  0.00  0.00    +0.000 OA
ATOM     21  C   PHE A   1       3.273   2.548  17.802  0.00  0.00    +0.000 C 
BRANCH  21  22
ATOM     22  OXT PHE A   1       4.111   1.498  18.030  0.00  0.00    +0.000 OA
ATOM     23  HXT PHE A   1       3.892   0.976  18.825  0.00  0.00    +0.000 HD
ENDBRANCH  21  22
ENDBRANCH  19  21
BRANCH  19  24
ATOM     24  CB  PHE A   1       4.981   4.311  17.143  0.00  0.00    +0.000 C 
BRANCH  24  25
ATOM     25  CG  PHE A   1       5.998   5.336  17.589  0.00  0.00    +0.000 A 
ATOM     26  CD1 PHE A   1       6.888   5.048  18.632  0.00  0.00    +0.000 A 
ATOM     27  CE1 PHE A   1       7.885   5.960  18.985  0.00  0.00    +0.000 A 
ATOM     28  CZ  PHE A   1       7.996   7.172  18.307  0.00  0.00    +0.000 A 
ATOM     29  CE2 PHE A   1       7.100   7.481  17.287  0.00  0.00    +0.000 A 
ATOM     30  CD2 PHE A   1       6.106   6.568  16.929  0.00  0.00    +0.000 A 
ENDBRANCH  24  25
ENDBRANCH  19  24
ENDBRANCH  17  19
ENDBRANCH   1  17
TORSDOF 8
ENDMDL
MODEL 5
REMARK VINA RESULT:      -8.1      2.002      2.988
REMARK  Name = 
REMARK  8 active torsions:
REMARK  status: ('A' for Active; 'I' for Inactive)
REMARK    1  A    between atoms: C_2  and  OXT_3
REMARK    2  A    between atoms: C_2  and  CA_4
REMARK    3  A    between atoms: CA_4  and  CB_5
REMARK    4  A    between atoms: CA_4  and  N_12
REMARK    5  A    between atoms: CB_5  and  CG_6
REMARK    6  A    between atoms: N_12  and  C_13
REMARK    7  A    between atoms: C_13  and  C_14
REMARK    8  A    between atoms: C_17  and  N_18
REMARK                            x       y       z     vdW  Elec       q    Type
REMARK                         _______ _______ _______ _____ _____    ______ ____
ROOT
ATOM      1  C   UNK A   0       5.909   5.016  19.051  0.00  0.00    +0.000 C 
ENDROOT
BRANCH   1   2
ATOM      2  C   UNK A   0       4.658   5.854  18.883  0.00  0.00    +0.000 A 
ATOM      3  C   UNK A   0       3.624   5.748  19.821  0.00  0.00    +0.000 A 
ATOM      4  C   UNK A   0       2.529   6.589  19.751  0.00  0.00    +0.000 A 
ATOM      5  C   UNK A   0       2.461   7.573  18.761  0.00  0.00    +0.000 A 
ATOM      6  C   UNK A   0       3.439   7.670  17.774  0.00  0.00    +0.000 A 
ATOM      7  C   UNK A   0       4.547   6.810  17.850  0.00  0.00    +0.000 A 
BRANCH   5   8
ATOM      8  N   UNK A   0       1.408   8.503  18.892  0.00  0.00    +0.000 N 
ATOM      9  C   UNK A   0       1.181   9.484  17.957  0.00  0.00    +0.000 A 
ATOM     10  N   UNK A   0       0.720  10.590  18.486  0.00  0.00    +0.000 NA
ATOM     11  C   UNK A   0       0.576  10.294  19.814  0.00  0.00    +0.000 A 
ATOM     12  C   UNK A   0       0.250  11.153  20.868  0.00  0.00    +0.000 A 
ATOM     13  C   UNK A   0       0.132  10.625  22.158  0.00  0.00    +0.000 A 
ATOM     14  C   UNK A   0       0.300   9.256  22.381  0.00  0.00    +0.000 A 
ATOM     15  C   UNK A   0       0.675   8.384  21.349  0.00  0.00    +0.000 A 
ATOM     16  C   UNK A   0       0.846   8.947  20.076  0.00  0.00    +0.000 A 
ENDBRANCH   5   8
ENDBRANCH   1   2
BRANCH   1  17
ATOM     17  N   PHE A   1       6.012   3.876  18.123  0.00  0.00    +0.000 NA
ATOM     18  H   PHE A   1       7.007   3.659  18.007  0.00  0.00    +0.000 HD
BRANCH  17  19
ATOM     19  CA  PHE A   1       5.458   4.156  16.774  0.00  0.00    +0.000 C 
BRANCH  19  21
ATOM     20  O   PHE A   1       7.593   4.824  15.769  0.00  0.00    +0.000 OA
ATOM     21  C   PHE A   1       6.552   4.188  15.700  0.00  0.00    +0.000 C 
BRANCH  21  22
ATOM     22  OXT PHE A   1       6.252   3.440  14.602  0.00  0.00    +0.000 OA
ATOM     23  HXT PHE A   1       6.731   3.705  13.795  0.00  0.00    +0.000 HD
ENDBRANCH  21  22
ENDBRANCH  19  21
BRANCH  19  24
ATOM     24  CB  PHE A   1       4.338   3.161  16.411  0.00  0.00    +0.000 C 
BRANCH  24  25
ATOM     25  CG  PHE A   1       3.191   3.020  17.385  0.00  0.00    +0.000 A 
ATOM     26  CD1 PHE A   1       2.086   3.879  17.312  0.00  0.00    +0.000 A 
ATOM     27  CE1 PHE A   1       0.986   3.692  18.153  0.00  0.00    +0.000 A 
ATOM     28  CZ  PHE A   1       0.986   2.655  19.083  0.00  0.00    +0.000 A 
ATOM     29  CE2 PHE A   1       2.091   1.812  19.184  0.00  0.00    +0.000 A 
ATOM     30  CD2 PHE A   1       3.187   1.993  18.339  0.00  0.00    +0.000 A 
ENDBRANCH  24  25
ENDBRANCH  19  24
ENDBRANCH  17  19
ENDBRANCH   1  17
TORSDOF 8
ENDMDL
MODEL 6
REMARK VINA RESULT:      -8.1      0.362      1.107
REMARK  Name = 
REMARK  8 active torsions:
REMARK  status: ('A' for Active; 'I' for Inactive)
REMARK    1  A    between atoms: C_2  and  OXT_3
REMARK    2  A    between atoms: C_2  and  CA_4
REMARK    3  A    between atoms: CA_4  and  CB_5
REMARK    4  A    between atoms: CA_4  and  N_12
REMARK    5  A    between atoms: CB_5  and  CG_6
REMARK    6  A    between atoms: N_12  and  C_13
REMARK    7  A    between atoms: C_13  and  C_14
REMARK    8  A    between atoms: C_17  and  N_18
REMARK                            x       y       z     vdW  Elec       q    Type
REMARK                         _______ _______ _______ _____ _____    ______ ____
ROOT
ATOM      1  C   UNK A   0       3.271   6.772  17.691  0.00  0.00    +0.000 C 
ENDROOT
BRANCH   1   2
ATOM      2  C   UNK A   0       2.419   7.588  18.643  0.00  0.00    +0.000 A 
ATOM      3  C   UNK A   0       2.105   7.070  19.905  0.00  0.00    +0.000 A 
ATOM      4  C   UNK A   0       1.432   7.846  20.831  0.00  0.00    +0.000 A 
ATOM      5  C   UNK A   0       1.087   9.165  20.523  0.00  0.00    +0.000 A 
ATOM      6  C   UNK A   0       1.328   9.696  19.258  0.00  0.00    +0.000 A 
ATOM      7  C   UNK A   0       2.010   8.900  18.323  0.00  0.00    +0.000 A 
BRANCH   5   8
ATOM      8  N   UNK A   0       0.583   9.932  21.594  0.00  0.00    +0.000 N 
ATOM      9  C   UNK A   0       0.197   9.360  22.782  0.00  0.00    +0.000 A 
ATOM     10  N   UNK A   0      -0.812   9.983  23.340  0.00  0.00    +0.000 NA
ATOM     11  C   UNK A   0      -1.049  11.046  22.513  0.00  0.00    +0.000 A 
ATOM     12  C   UNK A   0      -2.103  11.965  22.556  0.00  0.00    +0.000 A 
ATOM     13  C   UNK A   0      -2.135  13.000  21.615  0.00  0.00    +0.000 A 
ATOM     14  C   UNK A   0      -1.111  13.135  20.675  0.00  0.00    +0.000 A 
ATOM     15  C   UNK A   0      -0.071  12.199  20.583  0.00  0.00    +0.000 A 
ATOM     16  C   UNK A   0      -0.092  11.136  21.497  0.00  0.00    +0.000 A 
ENDBRANCH   5   8
ENDBRANCH   1   2
BRANCH   1  17
ATOM     17  N   PHE A   1       4.106   5.747  18.342  0.00  0.00    +0.000 NA
ATOM     18  H   PHE A   1       4.919   6.221  18.749  0.00  0.00    +0.000 HD
BRANCH  17  19
ATOM     19  CA  PHE A   1       4.616   4.714  17.406  0.00  0.00    +0.000 C 
BRANCH  19  21
ATOM     20  O   PHE A   1       6.810   5.159  16.405  0.00  0.00    +0.000 OA
ATOM     21  C   PHE A   1       6.147   4.714  17.330  0.00  0.00    +0.000 C 
BRANCH  21  22
ATOM     22  OXT PHE A   1       6.740   4.131  18.408  0.00  0.00    +0.000 OA
ATOM     23  HXT PHE A   1       7.041   3.216  18.254  0.00  0.00    +0.000 HD
ENDBRANCH  21  22
ENDBRANCH  19  21
BRANCH  19  24
ATOM     24  CB  PHE A   1       4.066   3.318  17.759  0.00  0.00    +0.000 C 
BRANCH  24  25
ATOM     25  CG  PHE A   1       3.075   3.227  18.895  0.00  0.00    +0.000 A 
ATOM     26  CD1 PHE A   1       3.508   2.936  20.196  0.00  0.00    +0.000 A 
ATOM     27  CE1 PHE A   1       2.605   2.940  21.261  0.00  0.00    +0.000 A 
ATOM     28  CZ  PHE A   1       1.259   3.221  21.036  0.00  0.00    +0.000 A 
ATOM     29  CE2 PHE A   1       0.812   3.483  19.743  0.00  0.00    +0.000 A 
ATOM     30  CD2 PHE A   1       1.714   3.486  18.678  0.00  0.00    +0.000 A 
ENDBRANCH  24  25
ENDBRANCH  19  24
ENDBRANCH  17  19
ENDBRANCH   1  17
TORSDOF 8
ENDMDL
MODEL 7
REMARK VINA RESULT:      -8.1      2.008      2.795
REMARK  Name = 
REMARK  8 active torsions:
REMARK  status: ('A' for Active; 'I' for Inactive)
REMARK    1  A    between atoms: C_2  and  OXT_3
REMARK    2  A    between atoms: C_2  and  CA_4
REMARK    3  A    between atoms: CA_4  and  CB_5
REMARK    4  A    between atoms: CA_4  and  N_12
REMARK    5  A    between atoms: CB_5  and  CG_6
REMARK    6  A    between atoms: N_12  and  C_13
REMARK    7  A    between atoms: C_13  and  C_14
REMARK    8  A    between atoms: C_17  and  N_18
REMARK                            x       y       z     vdW  Elec       q    Type
REMARK                         _______ _______ _______ _____ _____    ______ ____
ROOT
ATOM      1  C   UNK A   0       3.240   6.167  19.021  0.00  0.00    +0.000 C 
ENDROOT
BRANCH   1   2
ATOM      2  C   UNK A   0       2.495   7.486  19.042  0.00  0.00    +0.000 A 
ATOM      3  C   UNK A   0       2.466   8.281  17.890  0.00  0.00    +0.000 A 
ATOM      4  C   UNK A   0       1.693   9.427  17.852  0.00  0.00    +0.000 A 
ATOM      5  C   UNK A   0       0.911   9.784  18.954  0.00  0.00    +0.000 A 
ATOM      6  C   UNK A   0       0.959   9.052  20.139  0.00  0.00    +0.000 A 
ATOM      7  C   UNK A   0       1.749   7.891  20.170  0.00  0.00    +0.000 A 
BRANCH   5   8
ATOM      8  N   UNK A   0       0.013  10.852  18.748  0.00  0.00    +0.000 N 
ATOM      9  C   UNK A   0      -0.008  11.955  19.566  0.00  0.00    +0.000 A 
ATOM     10  N   UNK A   0      -1.210  12.455  19.712  0.00  0.00    +0.000 NA
ATOM     11  C   UNK A   0      -1.995  11.685  18.898  0.00  0.00    +0.000 A 
ATOM     12  C   UNK A   0      -3.389  11.689  18.774  0.00  0.00    +0.000 A 
ATOM     13  C   UNK A   0      -3.987  10.824  17.852  0.00  0.00    +0.000 A 
ATOM     14  C   UNK A   0      -3.202   9.997  17.043  0.00  0.00    +0.000 A 
ATOM     15  C   UNK A   0      -1.809   9.941  17.184  0.00  0.00    +0.000 A 
ATOM     16  C   UNK A   0      -1.236  10.774  18.157  0.00  0.00    +0.000 A 
ENDBRANCH   5   8
ENDBRANCH   1   2
BRANCH   1  17
ATOM     17  N   PHE A   1       3.306   5.521  17.698  0.00  0.00    +0.000 NA
ATOM     18  H   PHE A   1       2.439   4.990  17.569  0.00  0.00    +0.000 HD
BRANCH  17  19
ATOM     19  CA  PHE A   1       4.436   4.569  17.557  0.00  0.00    +0.000 C 
BRANCH  19  21
ATOM     20  O   PHE A   1       6.142   4.410  19.311  0.00  0.00    +0.000 OA
ATOM     21  C   PHE A   1       5.663   5.012  18.362  0.00  0.00    +0.000 C 
BRANCH  21  22
ATOM     22  OXT PHE A   1       6.189   6.194  17.937  0.00  0.00    +0.000 OA
ATOM     23  HXT PHE A   1       6.961   6.496  18.451  0.00  0.00    +0.000 HD
ENDBRANCH  21  22
ENDBRANCH  19  21
BRANCH  19  24
ATOM     24  CB  PHE A   1       4.008   3.134  17.921  0.00  0.00    +0.000 C 
BRANCH  24  25
ATOM     25  CG  PHE A   1       3.012   2.968  19.044  0.00  0.00    +0.000 A 
ATOM     26  CD1 PHE A   1       3.449   2.780  20.362  0.00  0.00    +0.000 A 
ATOM     27  CE1 PHE A   1       2.530   2.716  21.412  0.00  0.00    +0.000 A 
ATOM     28  CZ  PHE A   1       1.165   2.826  21.154  0.00  0.00    +0.000 A 
ATOM     29  CE2 PHE A   1       0.717   2.983  19.845  0.00  0.00    +0.000 A 
ATOM     30  CD2 PHE A   1       1.635   3.054  18.795  0.00  0.00    +0.000 A 
ENDBRANCH  24  25
ENDBRANCH  19  24
ENDBRANCH  17  19
ENDBRANCH   1  17
TORSDOF 8
ENDMDL
MODEL 8
REMARK VINA RESULT:      -8.1      2.250      3.936
REMARK  Name = 
REMARK  8 active torsions:
REMARK  status: ('A' for Active; 'I' for Inactive)
REMARK    1  A    between atoms: C_2  and  OXT_3
REMARK    2  A    between atoms: C_2  and  CA_4
REMARK    3  A    between atoms: CA_4  and  CB_5
REMARK    4  A    between atoms: CA_4  and  N_12
REMARK    5  A    between atoms: CB_5  and  CG_6
REMARK    6  A    between atoms: N_12  and  C_13
REMARK    7  A    between atoms: C_13  and  C_14
REMARK    8  A    between atoms: C_17  and  N_18
REMARK                            x       y       z     vdW  Elec       q    Type
REMARK                         _______ _______ _______ _____ _____    ______ ____
ROOT
ATOM      1  C   UNK A   0       2.519   4.956  19.113  0.00  0.00    +0.000 C 
ENDROOT
BRANCH   1   2
ATOM      2  C   UNK A   0       2.199   6.431  19.250  0.00  0.00    +0.000 A 
ATOM      3  C   UNK A   0       2.354   7.277  18.145  0.00  0.00    +0.000 A 
ATOM      4  C   UNK A   0       1.954   8.599  18.217  0.00  0.00    +0.000 A 
ATOM      5  C   UNK A   0       1.363   9.091  19.384  0.00  0.00    +0.000 A 
ATOM      6  C   UNK A   0       1.246   8.298  20.523  0.00  0.00    +0.000 A 
ATOM      7  C   UNK A   0       1.658   6.957  20.442  0.00  0.00    +0.000 A 
BRANCH   5   8
ATOM      8  N   UNK A   0       0.812  10.387  19.291  0.00  0.00    +0.000 N 
ATOM      9  C   UNK A   0       1.135  11.381  20.183  0.00  0.00    +0.000 A 
ATOM     10  N   UNK A   0       0.136  12.196  20.417  0.00  0.00    +0.000 NA
ATOM     11  C   UNK A   0      -0.859  11.753  19.589  0.00  0.00    +0.000 A 
ATOM     12  C   UNK A   0      -2.193  12.171  19.528  0.00  0.00    +0.000 A 
ATOM     13  C   UNK A   0      -3.039  11.592  18.577  0.00  0.00    +0.000 A 
ATOM     14  C   UNK A   0      -2.550  10.639  17.679  0.00  0.00    +0.000 A 
ATOM     15  C   UNK A   0      -1.231  10.170  17.753  0.00  0.00    +0.000 A 
ATOM     16  C   UNK A   0      -0.417  10.721  18.754  0.00  0.00    +0.000 A 
ENDBRANCH   5   8
ENDBRANCH   1   2
BRANCH   1  17
ATOM     17  N   PHE A   1       3.393   4.418  20.170  0.00  0.00    +0.000 NA
ATOM     18  H   PHE A   1       3.673   5.200  20.770  0.00  0.00    +0.000 HD
BRANCH  17  19
ATOM     19  CA  PHE A   1       4.633   3.788  19.652  0.00  0.00    +0.000 C 
BRANCH  19  21
ATOM     20  O   PHE A   1       5.024   1.587  20.662  0.00  0.00    +0.000 OA
ATOM     21  C   PHE A   1       4.581   2.259  19.742  0.00  0.00    +0.000 C 
BRANCH  21  22
ATOM     22  OXT PHE A   1       3.998   1.674  18.659  0.00  0.00    +0.000 OA
ATOM     23  HXT PHE A   1       4.489   0.909  18.304  0.00  0.00    +0.000 HD
ENDBRANCH  21  22
ENDBRANCH  19  21
BRANCH  19  24
ATOM     24  CB  PHE A   1       4.945   4.260  18.219  0.00  0.00    +0.000 C 
BRANCH  24  25
ATOM     25  CG  PHE A   1       5.962   5.366  18.056  0.00  0.00    +0.000 A 
ATOM     26  CD1 PHE A   1       5.749   6.400  17.134  0.00  0.00    +0.000 A 
ATOM     27  CE1 PHE A   1       6.644   7.468  17.047  0.00  0.00    +0.000 A 
ATOM     28  CZ  PHE A   1       7.768   7.507  17.870  0.00  0.00    +0.000 A 
ATOM     29  CE2 PHE A   1       8.006   6.471  18.770  0.00  0.00    +0.000 A 
ATOM     30  CD2 PHE A   1       7.108   5.406  18.863  0.00  0.00    +0.000 A 
ENDBRANCH  24  25
ENDBRANCH  19  24
ENDBRANCH  17  19
ENDBRANCH   1  17
TORSDOF 8
ENDMDL
MODEL 9
REMARK VINA RESULT:      -8.1      2.580      4.156
REMARK  Name = 
REMARK  8 active torsions:
REMARK  status: ('A' for Active; 'I' for Inactive)
REMARK    1  A    between atoms: C_2  and  OXT_3
REMARK    2  A    between atoms: C_2  and  CA_4
REMARK    3  A    between atoms: CA_4  and  CB_5
REMARK    4  A    between atoms: CA_4  and  N_12
REMARK    5  A    between atoms: CB_5  and  CG_6
REMARK    6  A    between atoms: N_12  and  C_13
REMARK    7  A    between atoms: C_13  and  C_14
REMARK    8  A    between atoms: C_17  and  N_18
REMARK                            x       y       z     vdW  Elec       q    Type
REMARK                         _______ _______ _______ _____ _____    ______ ____
ROOT
ATOM      1  C   UNK A   0       2.816   5.990  20.052  0.00  0.00    +0.000 C 
ENDROOT
BRANCH   1   2
ATOM      2  C   UNK A   0       2.190   7.346  19.796  0.00  0.00    +0.000 A 
ATOM      3  C   UNK A   0       2.258   7.907  18.515  0.00  0.00    +0.000 A 
ATOM      4  C   UNK A   0       1.591   9.085  18.233  0.00  0.00    +0.000 A 
ATOM      5  C   UNK A   0       0.817   9.708  19.217  0.00  0.00    +0.000 A 
ATOM      6  C   UNK A   0       0.774   9.213  20.519  0.00  0.00    +0.000 A 
ATOM      7  C   UNK A   0       1.457   8.018  20.798  0.00  0.00    +0.000 A 
BRANCH   5   8
ATOM      8  N   UNK A   0       0.023  10.788  18.779  0.00  0.00    +0.000 N 
ATOM      9  C   UNK A   0       0.033  12.005  19.416  0.00  0.00    +0.000 A 
ATOM     10  N   UNK A   0      -1.134  12.601  19.387  0.00  0.00    +0.000 NA
ATOM     11  C   UNK A   0      -1.919  11.767  18.640  0.00  0.00    +0.000 A 
ATOM     12  C   UNK A   0      -3.296  11.844  18.405  0.00  0.00    +0.000 A 
ATOM     13  C   UNK A   0      -3.895  10.886  17.581  0.00  0.00    +0.000 A 
ATOM     14  C   UNK A   0      -3.125   9.892  16.973  0.00  0.00    +0.000 A 
ATOM     15  C   UNK A   0      -1.753   9.766  17.232  0.00  0.00    +0.000 A 
ATOM     16  C   UNK A   0      -1.185  10.701  18.109  0.00  0.00    +0.000 A 
ENDBRANCH   5   8
ENDBRANCH   1   2
BRANCH   1  17
ATOM     17  N   PHE A   1       2.050   4.850  19.516  0.00  0.00    +0.000 NA
ATOM     18  H   PHE A   1       1.438   4.508  20.263  0.00  0.00    +0.000 HD
BRANCH  17  19
ATOM     19  CA  PHE A   1       2.901   3.714  19.082  0.00  0.00    +0.000 C 
BRANCH  19  21
ATOM     20  O   PHE A   1       1.796   3.648  16.895  0.00  0.00    +0.000 OA
ATOM     21  C   PHE A   1       2.380   3.065  17.796  0.00  0.00    +0.000 C 
BRANCH  21  22
ATOM     22  OXT PHE A   1       2.605   1.723  17.739  0.00  0.00    +0.000 OA
ATOM     23  HXT PHE A   1       3.307   1.409  18.339  0.00  0.00    +0.000 HD
ENDBRANCH  21  22
ENDBRANCH  19  21
BRANCH  19  24
ATOM     24  CB  PHE A   1       4.377   4.140  18.944  0.00  0.00    +0.000 C 
BRANCH  24  25
ATOM     25  CG  PHE A   1       4.848   4.587  17.580  0.00  0.00    +0.000 A 
ATOM     26  CD1 PHE A   1       5.303   3.650  16.643  0.00  0.00    +0.000 A 
ATOM     27  CE1 PHE A   1       5.655   4.053  15.352  0.00  0.00    +0.000 A 
ATOM     28  CZ  PHE A   1       5.566   5.395  14.989  0.00  0.00    +0.000 A 
ATOM     29  CE2 PHE A   1       5.141   6.339  15.922  0.00  0.00    +0.000 A 
ATOM     30  CD2 PHE A   1       4.784   5.938  17.210  0.00  0.00    +0.000 A 
ENDBRANCH  24  25
ENDBRANCH  19  24
ENDBRANCH  17  19
ENDBRANCH   1  17
TORSDOF 8
ENDMDL
