MODEL 1
REMARK VINA RESULT:      -8.6      0.000      0.000
REMARK  Name = 
REMARK  9 active torsions:
REMARK  status: ('A' for Active; 'I' for Inactive)
REMARK    1  A    between atoms: C_1  and  C_2
REMARK    2  A    between atoms: C_2  and  C_3
REMARK    3  A    between atoms: C_2  and  N_11
REMARK    4  A    between atoms: C_3  and  C_4
REMARK    5  A    between atoms: C_4  and  C_5
REMARK    6  A    between atoms: N_9  and  C_10
REMARK    7  A    between atoms: C_12  and  C_14
REMARK    8  A    between atoms: C_18  and  C_19
REMARK    9  A    between atoms: N_26  and  C_27
REMARK                            x       y       z     vdW  Elec       q    Type
REMARK                         _______ _______ _______ _____ _____    ______ ____
ROOT
ATOM      1  C   UNL     1       2.107   6.882  19.505  0.00  0.00    +0.000 A 
ATOM      2  C   UNL     1       2.508   7.393  18.270  0.00  0.00    +0.000 A 
ATOM      3  C   UNL     1       2.213   8.715  17.962  0.00  0.00    +0.000 A 
ATOM      4  C   UNL     1       1.515   9.509  18.879  0.00  0.00    +0.000 A 
ATOM      5  C   UNL     1       1.095   9.014  20.128  0.00  0.00    +0.000 A 
ATOM      6  C   UNL     1       1.439   7.694  20.435  0.00  0.00    +0.000 A 
ENDROOT
BRANCH   5   7
ATOM      7  C   UNL     1       0.252   9.814  21.036  0.00  0.00    +0.000 A 
ATOM      8  C   UNL     1       0.340   9.629  22.443  0.00  0.00    +0.000 A 
ATOM      9  N   UNL     1      -0.340  10.315  23.389  0.00  0.00    +0.000 NA
ATOM     10  C   UNL     1      -1.139  11.252  22.890  0.00  0.00    +0.000 A 
ATOM     11  N   UNL     1      -1.941  12.109  23.615  0.00  0.00    +0.000 N 
ATOM     12  C   UNL     1      -2.624  12.957  22.737  0.00  0.00    +0.000 A 
ATOM     13  O   UNL     1      -3.411  13.830  23.057  0.00  0.00    +0.000 OA
ATOM     14  N   UNL     1      -2.223  12.593  21.435  0.00  0.00    +0.000 N 
ATOM     15  C   UNL     1      -2.672  13.208  20.221  0.00  0.00    +0.000 C 
ATOM     16  C   UNL     1      -1.309  11.541  21.538  0.00  0.00    +0.000 A 
ATOM     17  C   UNL     1      -0.620  10.827  20.584  0.00  0.00    +0.000 A 
ATOM     18  H   UNL     1      -2.012  12.127  24.618  0.00  0.00    +0.000 HD
ENDBRANCH   5   7
BRANCH   1  20
ATOM     19  N   UNL     1       2.478   4.573  18.854  0.00  0.00    +0.000 N 
ATOM     20  C   UNL     1       2.323   5.474  19.891  0.00  0.00    +0.000 C 
ATOM     21  O   UNL     1       2.291   5.207  21.086  0.00  0.00    +0.000 OA
ATOM     22  H   UNL     1       2.479   4.937  17.913  0.00  0.00    +0.000 HD
BRANCH  19  24
ATOM     23  C   UNL     1       1.300   2.357  18.972  0.00  0.00    +0.000 C 
ATOM     24  C   UNL     1       2.626   3.121  18.990  0.00  0.00    +0.000 C 
BRANCH  24  25
ATOM     25  C   UNL     1       3.561   2.545  17.902  0.00  0.00    +0.000 C 
BRANCH  25  26
ATOM     26  C   UNL     1       3.982   3.554  16.824  0.00  0.00    +0.000 C 
BRANCH  26  27
ATOM     27  C   UNL     1       5.374   4.072  17.058  0.00  0.00    +0.000 A 
ATOM     28  C   UNL     1       5.953   4.507  18.239  0.00  0.00    +0.000 A 
ATOM     29  C   UNL     1       7.286   4.886  17.962  0.00  0.00    +0.000 A 
ATOM     30  C   UNL     1       7.491   4.690  16.617  0.00  0.00    +0.000 A 
ATOM     31  N   UNL     1       6.330   4.203  16.072  0.00  0.00    +0.000 N 
ATOM     32  C   UNL     1       6.170   3.887  14.669  0.00  0.00    +0.000 C 
ENDBRANCH  26  27
ENDBRANCH  25  26
ENDBRANCH  24  25
ENDBRANCH  19  24
ENDBRANCH   1  20
TORSDOF 6
ENDMDL
MODEL 2
REMARK VINA RESULT:      -8.2      3.242     10.244
REMARK  Name = 
REMARK  9 active torsions:
REMARK  status: ('A' for Active; 'I' for Inactive)
REMARK    1  A    between atoms: C_1  and  C_2
REMARK    2  A    between atoms: C_2  and  C_3
REMARK    3  A    between atoms: C_2  and  N_11
REMARK    4  A    between atoms: C_3  and  C_4
REMARK    5  A    between atoms: C_4  and  C_5
REMARK    6  A    between atoms: N_9  and  C_10
REMARK    7  A    between atoms: C_12  and  C_14
REMARK    8  A    between atoms: C_18  and  C_19
REMARK    9  A    between atoms: N_26  and  C_27
REMARK                            x       y       z     vdW  Elec       q    Type
REMARK                         _______ _______ _______ _____ _____    ______ ____
ROOT
ATOM      1  C   UNL     1      -0.006  10.243  19.970  0.00  0.00    +0.000 A 
ATOM      2  C   UNL     1      -0.078  10.493  21.342  0.00  0.00    +0.000 A 
ATOM      3  C   UNL     1       0.602   9.654  22.215  0.00  0.00    +0.000 A 
ATOM      4  C   UNL     1       1.335   8.570  21.717  0.00  0.00    +0.000 A 
ATOM      5  C   UNL     1       1.416   8.294  20.339  0.00  0.00    +0.000 A 
ATOM      6  C   UNL     1       0.761   9.176  19.475  0.00  0.00    +0.000 A 
ENDROOT
BRANCH   5   7
ATOM      7  C   UNL     1       2.084   7.081  19.830  0.00  0.00    +0.000 A 
ATOM      8  C   UNL     1       2.863   7.139  18.641  0.00  0.00    +0.000 A 
ATOM      9  N   UNL     1       3.558   6.122  18.084  0.00  0.00    +0.000 NA
ATOM     10  C   UNL     1       3.477   4.988  18.772  0.00  0.00    +0.000 A 
ATOM     11  N   UNL     1       4.090   3.794  18.449  0.00  0.00    +0.000 N 
ATOM     12  C   UNL     1       3.776   2.837  19.420  0.00  0.00    +0.000 A 
ATOM     13  O   UNL     1       4.159   1.681  19.429  0.00  0.00    +0.000 OA
ATOM     14  N   UNL     1       2.940   3.476  20.359  0.00  0.00    +0.000 N 
ATOM     15  C   UNL     1       2.384   2.869  21.531  0.00  0.00    +0.000 C 
ATOM     16  C   UNL     1       2.760   4.801  19.951  0.00  0.00    +0.000 A 
ATOM     17  C   UNL     1       2.047   5.842  20.502  0.00  0.00    +0.000 A 
ATOM     18  H   UNL     1       4.677   3.643  17.648  0.00  0.00    +0.000 HD
ENDBRANCH   5   7
BRANCH   1  20
ATOM     19  N   UNL     1      -1.918  10.494  18.497  0.00  0.00    +0.000 N 
ATOM     20  C   UNL     1      -0.744  11.045  18.976  0.00  0.00    +0.000 C 
ATOM     21  O   UNL     1      -0.237  12.099  18.614  0.00  0.00    +0.000 OA
ATOM     22  H   UNL     1      -2.215   9.611  18.885  0.00  0.00    +0.000 HD
BRANCH  19  24
ATOM     23  C   UNL     1      -3.202  10.062  16.381  0.00  0.00    +0.000 C 
ATOM     24  C   UNL     1      -2.775  11.067  17.455  0.00  0.00    +0.000 C 
BRANCH  24  25
ATOM     25  C   UNL     1      -4.032  11.731  18.060  0.00  0.00    +0.000 C 
BRANCH  25  26
ATOM     26  C   UNL     1      -5.278  10.834  18.086  0.00  0.00    +0.000 C 
BRANCH  26  27
ATOM     27  C   UNL     1      -6.200  11.193  19.218  0.00  0.00    +0.000 A 
ATOM     28  C   UNL     1      -6.433  12.432  19.791  0.00  0.00    +0.000 A 
ATOM     29  C   UNL     1      -7.395  12.270  20.813  0.00  0.00    +0.000 A 
ATOM     30  C   UNL     1      -7.720  10.935  20.856  0.00  0.00    +0.000 A 
ATOM     31  N   UNL     1      -6.990  10.285  19.893  0.00  0.00    +0.000 N 
ATOM     32  C   UNL     1      -7.066   8.860  19.652  0.00  0.00    +0.000 C 
ENDBRANCH  26  27
ENDBRANCH  25  26
ENDBRANCH  24  25
ENDBRANCH  19  24
ENDBRANCH   1  20
TORSDOF 6
ENDMDL
MODEL 3
REMARK VINA RESULT:      -8.1      2.428     10.253
REMARK  Name = 
REMARK  9 active torsions:
REMARK  status: ('A' for Active; 'I' for Inactive)
REMARK    1  A    between atoms: C_1  and  C_2
REMARK    2  A    between atoms: C_2  and  C_3
REMARK    3  A    between atoms: C_2  and  N_11
REMARK    4  A    between atoms: C_3  and  C_4
REMARK    5  A    between atoms: C_4  and  C_5
REMARK    6  A    between atoms: N_9  and  C_10
REMARK    7  A    between atoms: C_12  and  C_14
REMARK    8  A    between atoms: C_18  and  C_19
REMARK    9  A    between atoms: N_26  and  C_27
REMARK                            x       y       z     vdW  Elec       q    Type
REMARK                         _______ _______ _______ _____ _____    ______ ____
ROOT
ATOM      1  C   UNL     1       0.791   9.731  20.232  0.00  0.00    +0.000 A 
ATOM      2  C   UNL     1       0.606  10.448  19.049  0.00  0.00    +0.000 A 
ATOM      3  C   UNL     1       1.087   9.918  17.859  0.00  0.00    +0.000 A 
ATOM      4  C   UNL     1       1.757   8.689  17.859  0.00  0.00    +0.000 A 
ATOM      5  C   UNL     1       1.961   7.951  19.040  0.00  0.00    +0.000 A 
ATOM      6  C   UNL     1       1.431   8.481  20.220  0.00  0.00    +0.000 A 
ENDROOT
BRANCH   5   7
ATOM      7  C   UNL     1       2.775   6.720  19.054  0.00  0.00    +0.000 A 
ATOM      8  C   UNL     1       3.948   6.629  18.256  0.00  0.00    +0.000 A 
ATOM      9  N   UNL     1       4.805   5.584  18.200  0.00  0.00    +0.000 NA
ATOM     10  C   UNL     1       4.470   4.583  19.007  0.00  0.00    +0.000 A 
ATOM     11  N   UNL     1       5.161   3.400  19.166  0.00  0.00    +0.000 N 
ATOM     12  C   UNL     1       4.502   2.604  20.109  0.00  0.00    +0.000 A 
ATOM     13  O   UNL     1       4.855   1.498  20.477  0.00  0.00    +0.000 OA
ATOM     14  N   UNL     1       3.370   3.332  20.530  0.00  0.00    +0.000 N 
ATOM     15  C   UNL     1       2.411   2.897  21.499  0.00  0.00    +0.000 C 
ATOM     16  C   UNL     1       3.357   4.551  19.844  0.00  0.00    +0.000 A 
ATOM     17  C   UNL     1       2.487   5.616  19.883  0.00  0.00    +0.000 A 
ATOM     18  H   UNL     1       6.010   3.156  18.686  0.00  0.00    +0.000 HD
ENDBRANCH   5   7
BRANCH   1  20
ATOM     19  N   UNL     1      -0.314  11.448  21.544  0.00  0.00    +0.000 N 
ATOM     20  C   UNL     1       0.368  10.246  21.548  0.00  0.00    +0.000 C 
ATOM     21  O   UNL     1       0.700   9.603  22.536  0.00  0.00    +0.000 OA
ATOM     22  H   UNL     1      -0.516  11.869  20.650  0.00  0.00    +0.000 HD
BRANCH  19  24
ATOM     23  C   UNL     1      -0.491  13.692  22.659  0.00  0.00    +0.000 C 
ATOM     24  C   UNL     1      -0.763  12.187  22.727  0.00  0.00    +0.000 C 
BRANCH  24  25
ATOM     25  C   UNL     1      -2.265  11.952  23.003  0.00  0.00    +0.000 C 
BRANCH  25  26
ATOM     26  C   UNL     1      -3.183  13.096  22.547  0.00  0.00    +0.000 C 
BRANCH  26  27
ATOM     27  C   UNL     1      -3.969  12.724  21.320  0.00  0.00    +0.000 A 
ATOM     28  C   UNL     1      -3.511  12.474  20.037  0.00  0.00    +0.000 A 
ATOM     29  C   UNL     1      -4.625  12.150  19.229  0.00  0.00    +0.000 A 
ATOM     30  C   UNL     1      -5.741  12.223  20.028  0.00  0.00    +0.000 A 
ATOM     31  N   UNL     1      -5.341  12.577  21.292  0.00  0.00    +0.000 N 
ATOM     32  C   UNL     1      -6.251  12.758  22.403  0.00  0.00    +0.000 C 
ENDBRANCH  26  27
ENDBRANCH  25  26
ENDBRANCH  24  25
ENDBRANCH  19  24
ENDBRANCH   1  20
TORSDOF 6
ENDMDL
MODEL 4
REMARK VINA RESULT:      -8.1      3.306     10.315
REMARK  Name = 
REMARK  9 active torsions:
REMARK  status: ('A' for Active; 'I' for Inactive)
REMARK    1  A    between atoms: C_1  and  C_2
REMARK    2  A    between atoms: C_2  and  C_3
REMARK    3  A    between atoms: C_2  and  N_11
REMARK    4  A    between atoms: C_3  and  C_4
REMARK    5  A    between atoms: C_4  and  C_5
REMARK    6  A    between atoms: N_9  and  C_10
REMARK    7  A    between atoms: C_12  and  C_14
REMARK    8  A    between atoms: C_18  and  C_19
REMARK    9  A    between atoms: N_26  and  C_27
REMARK                            x       y       z     vdW  Elec       q    Type
REMARK                         _______ _______ _______ _____ _____    ______ ____
ROOT
ATOM      1  C   UNL     1      -0.014  10.230  20.007  0.00  0.00    +0.000 A 
ATOM      2  C   UNL     1      -0.083  10.482  21.378  0.00  0.00    +0.000 A 
ATOM      3  C   UNL     1       0.607   9.650  22.250  0.00  0.00    +0.000 A 
ATOM      4  C   UNL     1       1.348   8.573  21.752  0.00  0.00    +0.000 A 
ATOM      5  C   UNL     1       1.428   8.296  20.374  0.00  0.00    +0.000 A 
ATOM      6  C   UNL     1       0.761   9.170  19.511  0.00  0.00    +0.000 A 
ENDROOT
BRANCH   5   7
ATOM      7  C   UNL     1       2.106   7.088  19.864  0.00  0.00    +0.000 A 
ATOM      8  C   UNL     1       2.909   7.160  18.693  0.00  0.00    +0.000 A 
ATOM      9  N   UNL     1       3.614   6.148  18.138  0.00  0.00    +0.000 NA
ATOM     10  C   UNL     1       3.519   5.007  18.811  0.00  0.00    +0.000 A 
ATOM     11  N   UNL     1       4.137   3.816  18.486  0.00  0.00    +0.000 N 
ATOM     12  C   UNL     1       3.802   2.848  19.439  0.00  0.00    +0.000 A 
ATOM     13  O   UNL     1       4.184   1.691  19.443  0.00  0.00    +0.000 OA
ATOM     14  N   UNL     1       2.948   3.477  20.368  0.00  0.00    +0.000 N 
ATOM     15  C   UNL     1       2.367   2.856  21.520  0.00  0.00    +0.000 C 
ATOM     16  C   UNL     1       2.777   4.806  19.972  0.00  0.00    +0.000 A 
ATOM     17  C   UNL     1       2.054   5.841  20.520  0.00  0.00    +0.000 A 
ATOM     18  H   UNL     1       4.741   3.674  17.696  0.00  0.00    +0.000 HD
ENDBRANCH   5   7
BRANCH   1  20
ATOM     19  N   UNL     1      -1.555  10.310  18.133  0.00  0.00    +0.000 N 
ATOM     20  C   UNL     1      -0.764  11.023  19.014  0.00  0.00    +0.000 C 
ATOM     21  O   UNL     1      -0.585  12.234  19.011  0.00  0.00    +0.000 OA
ATOM     22  H   UNL     1      -1.605   9.309  18.253  0.00  0.00    +0.000 HD
BRANCH  19  24
ATOM     23  C   UNL     1      -2.808   9.825  16.011  0.00  0.00    +0.000 C 
ATOM     24  C   UNL     1      -2.326  10.870  17.020  0.00  0.00    +0.000 C 
BRANCH  24  25
ATOM     25  C   UNL     1      -3.537  11.687  17.526  0.00  0.00    +0.000 C 
BRANCH  25  26
ATOM     26  C   UNL     1      -4.831  11.468  16.729  0.00  0.00    +0.000 C 
BRANCH  26  27
ATOM     27  C   UNL     1      -5.984  12.235  17.315  0.00  0.00    +0.000 A 
ATOM     28  C   UNL     1      -6.413  13.519  17.021  0.00  0.00    +0.000 A 
ATOM     29  C   UNL     1      -7.545  13.798  17.819  0.00  0.00    +0.000 A 
ATOM     30  C   UNL     1      -7.777  12.687  18.596  0.00  0.00    +0.000 A 
ATOM     31  N   UNL     1      -6.826  11.746  18.292  0.00  0.00    +0.000 N 
ATOM     32  C   UNL     1      -6.750  10.446  18.924  0.00  0.00    +0.000 C 
ENDBRANCH  26  27
ENDBRANCH  25  26
ENDBRANCH  24  25
ENDBRANCH  19  24
ENDBRANCH   1  20
TORSDOF 6
ENDMDL
MODEL 5
REMARK VINA RESULT:      -8.1      2.940     10.196
REMARK  Name = 
REMARK  9 active torsions:
REMARK  status: ('A' for Active; 'I' for Inactive)
REMARK    1  A    between atoms: C_1  and  C_2
REMARK    2  A    between atoms: C_2  and  C_3
REMARK    3  A    between atoms: C_2  and  N_11
REMARK    4  A    between atoms: C_3  and  C_4
REMARK    5  A    between atoms: C_4  and  C_5
REMARK    6  A    between atoms: N_9  and  C_10
REMARK    7  A    between atoms: C_12  and  C_14
REMARK    8  A    between atoms: C_18  and  C_19
REMARK    9  A    between atoms: N_26  and  C_27
REMARK                            x       y       z     vdW  Elec       q    Type
REMARK                         _______ _______ _______ _____ _____    ______ ____
ROOT
ATOM      1  C   UNL     1      -0.500  10.371  20.405  0.00  0.00    +0.000 A 
ATOM      2  C   UNL     1      -0.438  10.640  21.773  0.00  0.00    +0.000 A 
ATOM      3  C   UNL     1       0.404   9.876  22.571  0.00  0.00    +0.000 A 
ATOM      4  C   UNL     1       1.164   8.847  22.003  0.00  0.00    +0.000 A 
ATOM      5  C   UNL     1       1.113   8.553  20.627  0.00  0.00    +0.000 A 
ATOM      6  C   UNL     1       0.292   9.362  19.836  0.00  0.00    +0.000 A 
ENDROOT
BRANCH   5   7
ATOM      7  C   UNL     1       1.818   7.390  20.056  0.00  0.00    +0.000 A 
ATOM      8  C   UNL     1       2.583   7.531  18.866  0.00  0.00    +0.000 A 
ATOM      9  N   UNL     1       3.308   6.566  18.256  0.00  0.00    +0.000 NA
ATOM     10  C   UNL     1       3.274   5.399  18.891  0.00  0.00    +0.000 A 
ATOM     11  N   UNL     1       3.924   4.244  18.507  0.00  0.00    +0.000 N 
ATOM     12  C   UNL     1       3.654   3.232  19.434  0.00  0.00    +0.000 A 
ATOM     13  O   UNL     1       4.077   2.091  19.387  0.00  0.00    +0.000 OA
ATOM     14  N   UNL     1       2.804   3.797  20.409  0.00  0.00    +0.000 N 
ATOM     15  C   UNL     1       2.281   3.116  21.555  0.00  0.00    +0.000 C 
ATOM     16  C   UNL     1       2.574   5.132  20.065  0.00  0.00    +0.000 A 
ATOM     17  C   UNL     1       1.831   6.120  20.670  0.00  0.00    +0.000 A 
ATOM     18  H   UNL     1       4.509   4.151  17.695  0.00  0.00    +0.000 HD
ENDBRANCH   5   7
BRANCH   1  20
ATOM     19  N   UNL     1      -1.903  10.367  18.424  0.00  0.00    +0.000 N 
ATOM     20  C   UNL     1      -1.411  11.091  19.494  0.00  0.00    +0.000 C 
ATOM     21  O   UNL     1      -1.613  12.277  19.722  0.00  0.00    +0.000 OA
ATOM     22  H   UNL     1      -1.648   9.393  18.359  0.00  0.00    +0.000 HD
BRANCH  19  24
ATOM     23  C   UNL     1      -2.495  10.249  15.985  0.00  0.00    +0.000 C 
ATOM     24  C   UNL     1      -2.757  10.887  17.352  0.00  0.00    +0.000 C 
BRANCH  24  25
ATOM     25  C   UNL     1      -4.255  10.744  17.704  0.00  0.00    +0.000 C 
BRANCH  25  26
ATOM     26  C   UNL     1      -4.880  11.989  18.348  0.00  0.00    +0.000 C 
BRANCH  26  27
ATOM     27  C   UNL     1      -5.943  11.625  19.348  0.00  0.00    +0.000 A 
ATOM     28  C   UNL     1      -6.810  10.545  19.341  0.00  0.00    +0.000 A 
ATOM     29  C   UNL     1      -7.617  10.622  20.499  0.00  0.00    +0.000 A 
ATOM     30  C   UNL     1      -7.239  11.754  21.181  0.00  0.00    +0.000 A 
ATOM     31  N   UNL     1      -6.230  12.362  20.478  0.00  0.00    +0.000 N 
ATOM     32  C   UNL     1      -5.589  13.591  20.893  0.00  0.00    +0.000 C 
ENDBRANCH  26  27
ENDBRANCH  25  26
ENDBRANCH  24  25
ENDBRANCH  19  24
ENDBRANCH   1  20
TORSDOF 6
ENDMDL
MODEL 6
REMARK VINA RESULT:      -8.0      2.400     10.412
REMARK  Name = 
REMARK  9 active torsions:
REMARK  status: ('A' for Active; 'I' for Inactive)
REMARK    1  A    between atoms: C_1  and  C_2
REMARK    2  A    between atoms: C_2  and  C_3
REMARK    3  A    between atoms: C_2  and  N_11
REMARK    4  A    between atoms: C_3  and  C_4
REMARK    5  A    between atoms: C_4  and  C_5
REMARK    6  A    between atoms: N_9  and  C_10
REMARK    7  A    between atoms: C_12  and  C_14
REMARK    8  A    between atoms: C_18  and  C_19
REMARK    9  A    between atoms: N_26  and  C_27
REMARK                            x       y       z     vdW  Elec       q    Type
REMARK                         _______ _______ _______ _____ _____    ______ ____
ROOT
ATOM      1  C   UNL     1       0.756   9.693  20.140  0.00  0.00    +0.000 A 
ATOM      2  C   UNL     1       0.587  10.425  18.964  0.00  0.00    +0.000 A 
ATOM      3  C   UNL     1       1.095   9.917  17.776  0.00  0.00    +0.000 A 
ATOM      4  C   UNL     1       1.776   8.693  17.771  0.00  0.00    +0.000 A 
ATOM      5  C   UNL     1       1.964   7.940  18.945  0.00  0.00    +0.000 A 
ATOM      6  C   UNL     1       1.407   8.449  20.122  0.00  0.00    +0.000 A 
ENDROOT
BRANCH   5   7
ATOM      7  C   UNL     1       2.789   6.717  18.958  0.00  0.00    +0.000 A 
ATOM      8  C   UNL     1       3.967   6.640  18.165  0.00  0.00    +0.000 A 
ATOM      9  N   UNL     1       4.833   5.603  18.108  0.00  0.00    +0.000 NA
ATOM     10  C   UNL     1       4.502   4.595  18.908  0.00  0.00    +0.000 A 
ATOM     11  N   UNL     1       5.203   3.416  19.064  0.00  0.00    +0.000 N 
ATOM     12  C   UNL     1       4.546   2.610  20.000  0.00  0.00    +0.000 A 
ATOM     13  O   UNL     1       4.906   1.505  20.364  0.00  0.00    +0.000 OA
ATOM     14  N   UNL     1       3.406   3.327  20.418  0.00  0.00    +0.000 N 
ATOM     15  C   UNL     1       2.445   2.878  21.380  0.00  0.00    +0.000 C 
ATOM     16  C   UNL     1       3.385   4.548  19.739  0.00  0.00    +0.000 A 
ATOM     17  C   UNL     1       2.506   5.606  19.779  0.00  0.00    +0.000 A 
ATOM     18  H   UNL     1       6.056   3.182  18.588  0.00  0.00    +0.000 HD
ENDBRANCH   5   7
BRANCH   1  20
ATOM     19  N   UNL     1      -0.293  11.431  21.470  0.00  0.00    +0.000 N 
ATOM     20  C   UNL     1       0.303  10.184  21.455  0.00  0.00    +0.000 C 
ATOM     21  O   UNL     1       0.540   9.482  22.430  0.00  0.00    +0.000 OA
ATOM     22  H   UNL     1      -0.421  11.900  20.585  0.00  0.00    +0.000 HD
BRANCH  19  24
ATOM     23  C   UNL     1      -0.589  13.673  22.563  0.00  0.00    +0.000 C 
ATOM     24  C   UNL     1      -0.749  12.154  22.660  0.00  0.00    +0.000 C 
BRANCH  24  25
ATOM     25  C   UNL     1      -2.220  11.817  22.996  0.00  0.00    +0.000 C 
BRANCH  25  26
ATOM     26  C   UNL     1      -3.119  13.042  23.217  0.00  0.00    +0.000 C 
BRANCH  26  27
ATOM     27  C   UNL     1      -4.461  12.874  22.560  0.00  0.00    +0.000 A 
ATOM     28  C   UNL     1      -5.715  12.817  23.145  0.00  0.00    +0.000 A 
ATOM     29  C   UNL     1      -6.673  12.667  22.117  0.00  0.00    +0.000 A 
ATOM     30  C   UNL     1      -5.987  12.618  20.927  0.00  0.00    +0.000 A 
ATOM     31  N   UNL     1      -4.648  12.738  21.199  0.00  0.00    +0.000 N 
ATOM     32  C   UNL     1      -3.616  12.721  20.185  0.00  0.00    +0.000 C 
ENDBRANCH  26  27
ENDBRANCH  25  26
ENDBRANCH  24  25
ENDBRANCH  19  24
ENDBRANCH   1  20
TORSDOF 6
ENDMDL
MODEL 7
REMARK VINA RESULT:      -7.9      1.114      1.511
REMARK  Name = 
REMARK  9 active torsions:
REMARK  status: ('A' for Active; 'I' for Inactive)
REMARK    1  A    between atoms: C_1  and  C_2
REMARK    2  A    between atoms: C_2  and  C_3
REMARK    3  A    between atoms: C_2  and  N_11
REMARK    4  A    between atoms: C_3  and  C_4
REMARK    5  A    between atoms: C_4  and  C_5
REMARK    6  A    between atoms: N_9  and  C_10
REMARK    7  A    between atoms: C_12  and  C_14
REMARK    8  A    between atoms: C_18  and  C_19
REMARK    9  A    between atoms: N_26  and  C_27
REMARK                            x       y       z     vdW  Elec       q    Type
REMARK                         _______ _______ _______ _____ _____    ______ ____
ROOT
ATOM      1  C   UNL     1       1.918   7.569  19.407  0.00  0.00    +0.000 A 
ATOM      2  C   UNL     1       2.292   8.048  18.151  0.00  0.00    +0.000 A 
ATOM      3  C   UNL     1       2.018   9.370  17.826  0.00  0.00    +0.000 A 
ATOM      4  C   UNL     1       1.367  10.198  18.748  0.00  0.00    +0.000 A 
ATOM      5  C   UNL     1       0.975   9.735  20.019  0.00  0.00    +0.000 A 
ATOM      6  C   UNL     1       1.298   8.414  20.341  0.00  0.00    +0.000 A 
ENDROOT
BRANCH   5   7
ATOM      7  C   UNL     1       0.179  10.572  20.937  0.00  0.00    +0.000 A 
ATOM      8  C   UNL     1      -0.096  10.123  22.258  0.00  0.00    +0.000 A 
ATOM      9  N   UNL     1      -0.776  10.798  23.212  0.00  0.00    +0.000 NA
ATOM     10  C   UNL     1      -1.184  12.000  22.819  0.00  0.00    +0.000 A 
ATOM     11  N   UNL     1      -1.886  12.911  23.582  0.00  0.00    +0.000 N 
ATOM     12  C   UNL     1      -2.123  14.062  22.824  0.00  0.00    +0.000 A 
ATOM     13  O   UNL     1      -2.718  15.055  23.204  0.00  0.00    +0.000 OA
ATOM     14  N   UNL     1      -1.547  13.835  21.557  0.00  0.00    +0.000 N 
ATOM     15  C   UNL     1      -1.547  14.758  20.462  0.00  0.00    +0.000 C 
ATOM     16  C   UNL     1      -0.972  12.561  21.562  0.00  0.00    +0.000 A 
ATOM     17  C   UNL     1      -0.289  11.858  20.596  0.00  0.00    +0.000 A 
ATOM     18  H   UNL     1      -2.171  12.770  24.535  0.00  0.00    +0.000 HD
ENDBRANCH   5   7
BRANCH   1  20
ATOM     19  N   UNL     1       2.107   5.227  18.796  0.00  0.00    +0.000 N 
ATOM     20  C   UNL     1       2.113   6.163  19.813  0.00  0.00    +0.000 C 
ATOM     21  O   UNL     1       2.206   5.932  21.011  0.00  0.00    +0.000 OA
ATOM     22  H   UNL     1       2.016   5.564  17.849  0.00  0.00    +0.000 HD
BRANCH  19  24
ATOM     23  C   UNL     1       0.901   3.113  19.418  0.00  0.00    +0.000 C 
ATOM     24  C   UNL     1       2.205   3.774  18.963  0.00  0.00    +0.000 C 
BRANCH  24  25
ATOM     25  C   UNL     1       2.698   3.090  17.668  0.00  0.00    +0.000 C 
BRANCH  25  26
ATOM     26  C   UNL     1       4.217   2.879  17.598  0.00  0.00    +0.000 C 
BRANCH  26  27
ATOM     27  C   UNL     1       4.915   4.052  16.967  0.00  0.00    +0.000 A 
ATOM     28  C   UNL     1       5.061   4.357  15.624  0.00  0.00    +0.000 A 
ATOM     29  C   UNL     1       5.780   5.570  15.525  0.00  0.00    +0.000 A 
ATOM     30  C   UNL     1       6.073   5.973  16.806  0.00  0.00    +0.000 A 
ATOM     31  N   UNL     1       5.553   5.049  17.676  0.00  0.00    +0.000 N 
ATOM     32  C   UNL     1       5.675   5.141  19.115  0.00  0.00    +0.000 C 
ENDBRANCH  26  27
ENDBRANCH  25  26
ENDBRANCH  24  25
ENDBRANCH  19  24
ENDBRANCH   1  20
TORSDOF 6
ENDMDL
MODEL 8
REMARK VINA RESULT:      -7.9      3.075     10.211
REMARK  Name = 
REMARK  9 active torsions:
REMARK  status: ('A' for Active; 'I' for Inactive)
REMARK    1  A    between atoms: C_1  and  C_2
REMARK    2  A    between atoms: C_2  and  C_3
REMARK    3  A    between atoms: C_2  and  N_11
REMARK    4  A    between atoms: C_3  and  C_4
REMARK    5  A    between atoms: C_4  and  C_5
REMARK    6  A    between atoms: N_9  and  C_10
REMARK    7  A    between atoms: C_12  and  C_14
REMARK    8  A    between atoms: C_18  and  C_19
REMARK    9  A    between atoms: N_26  and  C_27
REMARK                            x       y       z     vdW  Elec       q    Type
REMARK                         _______ _______ _______ _____ _____    ______ ____
ROOT
ATOM      1  C   UNL     1       0.097  10.227  19.686  0.00  0.00    +0.000 A 
ATOM      2  C   UNL     1      -0.096  10.405  21.057  0.00  0.00    +0.000 A 
ATOM      3  C   UNL     1       0.528   9.537  21.943  0.00  0.00    +0.000 A 
ATOM      4  C   UNL     1       1.326   8.495  21.457  0.00  0.00    +0.000 A 
ATOM      5  C   UNL     1       1.530   8.291  20.079  0.00  0.00    +0.000 A 
ATOM      6  C   UNL     1       0.928   9.203  19.207  0.00  0.00    +0.000 A 
ENDROOT
BRANCH   5   7
ATOM      7  C   UNL     1       2.267   7.119  19.569  0.00  0.00    +0.000 A 
ATOM      8  C   UNL     1       2.120   5.852  20.197  0.00  0.00    +0.000 A 
ATOM      9  N   UNL     1       2.701   4.692  19.816  0.00  0.00    +0.000 NA
ATOM     10  C   UNL     1       3.458   4.813  18.731  0.00  0.00    +0.000 A 
ATOM     11  N   UNL     1       4.160   3.799  18.111  0.00  0.00    +0.000 N 
ATOM     12  C   UNL     1       4.828   4.316  16.995  0.00  0.00    +0.000 A 
ATOM     13  O   UNL     1       5.535   3.681  16.233  0.00  0.00    +0.000 OA
ATOM     14  N   UNL     1       4.521   5.691  16.944  0.00  0.00    +0.000 N 
ATOM     15  C   UNL     1       4.987   6.614  15.954  0.00  0.00    +0.000 C 
ATOM     16  C   UNL     1       3.677   5.989  18.018  0.00  0.00    +0.000 A 
ATOM     17  C   UNL     1       3.089   7.166  18.424  0.00  0.00    +0.000 A 
ATOM     18  H   UNL     1       4.178   2.840  18.411  0.00  0.00    +0.000 HD
ENDBRANCH   5   7
BRANCH   1  20
ATOM     19  N   UNL     1      -1.709  10.528  18.092  0.00  0.00    +0.000 N 
ATOM     20  C   UNL     1      -0.575  11.064  18.673  0.00  0.00    +0.000 C 
ATOM     21  O   UNL     1      -0.050  12.132  18.388  0.00  0.00    +0.000 OA
ATOM     22  H   UNL     1      -2.027   9.629  18.425  0.00  0.00    +0.000 HD
BRANCH  19  24
ATOM     23  C   UNL     1      -2.577  10.281  15.748  0.00  0.00    +0.000 C 
ATOM     24  C   UNL     1      -2.494  11.136  17.015  0.00  0.00    +0.000 C 
BRANCH  24  25
ATOM     25  C   UNL     1      -3.923  11.487  17.487  0.00  0.00    +0.000 C 
BRANCH  25  26
ATOM     26  C   UNL     1      -4.011  11.986  18.936  0.00  0.00    +0.000 C 
BRANCH  26  27
ATOM     27  C   UNL     1      -5.365  11.727  19.535  0.00  0.00    +0.000 A 
ATOM     28  C   UNL     1      -6.384  10.916  19.062  0.00  0.00    +0.000 A 
ATOM     29  C   UNL     1      -7.459  10.983  19.977  0.00  0.00    +0.000 A 
ATOM     30  C   UNL     1      -7.084  11.843  20.981  0.00  0.00    +0.000 A 
ATOM     31  N   UNL     1      -5.818  12.296  20.707  0.00  0.00    +0.000 N 
ATOM     32  C   UNL     1      -5.099  13.230  21.547  0.00  0.00    +0.000 C 
ENDBRANCH  26  27
ENDBRANCH  25  26
ENDBRANCH  24  25
ENDBRANCH  19  24
ENDBRANCH   1  20
TORSDOF 6
ENDMDL
MODEL 9
REMARK VINA RESULT:      -7.9      2.434     10.685
REMARK  Name = 
REMARK  9 active torsions:
REMARK  status: ('A' for Active; 'I' for Inactive)
REMARK    1  A    between atoms: C_1  and  C_2
REMARK    2  A    between atoms: C_2  and  C_3
REMARK    3  A    between atoms: C_2  and  N_11
REMARK    4  A    between atoms: C_3  and  C_4
REMARK    5  A    between atoms: C_4  and  C_5
REMARK    6  A    between atoms: N_9  and  C_10
REMARK    7  A    between atoms: C_12  and  C_14
REMARK    8  A    between atoms: C_18  and  C_19
REMARK    9  A    between atoms: N_26  and  C_27
REMARK                            x       y       z     vdW  Elec       q    Type
REMARK                         _______ _______ _______ _____ _____    ______ ____
ROOT
ATOM      1  C   UNL     1       0.842   9.669  20.235  0.00  0.00    +0.000 A 
ATOM      2  C   UNL     1       0.692  10.424  19.071  0.00  0.00    +0.000 A 
ATOM      3  C   UNL     1       1.193   9.925  17.876  0.00  0.00    +0.000 A 
ATOM      4  C   UNL     1       1.847   8.688  17.853  0.00  0.00    +0.000 A 
ATOM      5  C   UNL     1       2.017   7.912  19.015  0.00  0.00    +0.000 A 
ATOM      6  C   UNL     1       1.467   8.413  20.199  0.00  0.00    +0.000 A 
ENDROOT
BRANCH   5   7
ATOM      7  C   UNL     1       2.815   6.671  19.009  0.00  0.00    +0.000 A 
ATOM      8  C   UNL     1       3.952   6.556  18.162  0.00  0.00    +0.000 A 
ATOM      9  N   UNL     1       4.792   5.500  18.082  0.00  0.00    +0.000 NA
ATOM     10  C   UNL     1       4.479   4.512  18.914  0.00  0.00    +0.000 A 
ATOM     11  N   UNL     1       5.162   3.321  19.057  0.00  0.00    +0.000 N 
ATOM     12  C   UNL     1       4.533   2.544  20.036  0.00  0.00    +0.000 A 
ATOM     13  O   UNL     1       4.887   1.437  20.401  0.00  0.00    +0.000 OA
ATOM     14  N   UNL     1       3.429   3.291  20.495  0.00  0.00    +0.000 N 
ATOM     15  C   UNL     1       2.506   2.879  21.509  0.00  0.00    +0.000 C 
ATOM     16  C   UNL     1       3.403   4.502  19.797  0.00  0.00    +0.000 A 
ATOM     17  C   UNL     1       2.548   5.579  19.861  0.00  0.00    +0.000 A 
ATOM     18  H   UNL     1       5.986   3.061  18.545  0.00  0.00    +0.000 HD
ENDBRANCH   5   7
BRANCH   1  20
ATOM     19  N   UNL     1      -0.349  11.312  21.567  0.00  0.00    +0.000 N 
ATOM     20  C   UNL     1       0.397  10.149  21.558  0.00  0.00    +0.000 C 
ATOM     21  O   UNL     1       0.767   9.516  22.539  0.00  0.00    +0.000 OA
ATOM     22  H   UNL     1      -0.578  11.730  20.676  0.00  0.00    +0.000 HD
BRANCH  19  24
ATOM     23  C   UNL     1      -0.502  13.510  22.773  0.00  0.00    +0.000 C 
ATOM     24  C   UNL     1      -0.834  12.015  22.757  0.00  0.00    +0.000 C 
BRANCH  24  25
ATOM     25  C   UNL     1      -2.357  11.829  22.943  0.00  0.00    +0.000 C 
BRANCH  25  26
ATOM     26  C   UNL     1      -3.218  12.518  21.875  0.00  0.00    +0.000 C 
BRANCH  26  27
ATOM     27  C   UNL     1      -4.274  13.393  22.490  0.00  0.00    +0.000 A 
ATOM     28  C   UNL     1      -4.128  14.416  23.413  0.00  0.00    +0.000 A 
ATOM     29  C   UNL     1      -5.407  14.955  23.679  0.00  0.00    +0.000 A 
ATOM     30  C   UNL     1      -6.311  14.243  22.927  0.00  0.00    +0.000 A 
ATOM     31  N   UNL     1      -5.623  13.294  22.213  0.00  0.00    +0.000 N 
ATOM     32  C   UNL     1      -6.251  12.350  21.315  0.00  0.00    +0.000 C 
ENDBRANCH  26  27
ENDBRANCH  25  26
ENDBRANCH  24  25
ENDBRANCH  19  24
ENDBRANCH   1  20
TORSDOF 6
ENDMDL
