MODEL 1
REMARK VINA RESULT:      -8.4      0.000      0.000
REMARK  Name = 
REMARK  2 active torsions:
REMARK  status: ('A' for Active; 'I' for Inactive)
REMARK    1  A    between atoms: C_2  and  C_3
REMARK    2  A    between atoms: C_3  and  C_4
REMARK                            x       y       z     vdW  Elec       q    Type
REMARK                         _______ _______ _______ _____ _____    ______ ____
ROOT
ATOM      1  O   UNL     1       4.325   7.811  17.724  0.00  0.00    +0.000 OA
ATOM      2  C   UNL     1       3.341   7.220  18.181  0.00  0.00    +0.000 C 
ATOM      3  N   UNL     1       3.465   6.135  19.049  0.00  0.00    +0.000 N 
ATOM      4  C   UNL     1       4.825   5.611  19.219  0.00  0.00    +0.000 C 
ATOM      5  C   UNL     1       5.338   4.940  17.962  0.00  0.00    +0.000 A 
ATOM      6  N   UNL     1       6.475   5.467  17.427  0.00  0.00    +0.000 NA
ATOM      7  C   UNL     1       6.849   5.020  16.217  0.00  0.00    +0.000 A 
ATOM      8  C   UNL     1       6.173   4.030  15.532  0.00  0.00    +0.000 A 
ATOM      9  C   UNL     1       5.062   3.441  16.137  0.00  0.00    +0.000 A 
ATOM     10  C   UNL     1       4.607   3.888  17.380  0.00  0.00    +0.000 A 
ATOM     11  N   UNL     1       3.476   3.371  17.963  0.00  0.00    +0.000 N 
ATOM     12  C   UNL     1       3.301   1.965  18.273  0.00  0.00    +0.000 C 
ATOM     13  C   UNL     1       1.931   1.910  18.944  0.00  0.00    +0.000 C 
ATOM     14  C   UNL     1       1.175   3.106  18.375  0.00  0.00    +0.000 C 
ATOM     15  C   UNL     1       2.257   4.165  18.126  0.00  0.00    +0.000 C 
ATOM     16  C   UNL     1       2.392   5.165  19.294  0.00  0.00    +0.000 C 
ENDROOT
BRANCH   2  17
ATOM     17  C   UNL     1       1.954   7.730  17.824  0.00  0.00    +0.000 C 
BRANCH  17  18
ATOM     18  C   UNL     1       1.582   9.009  18.540  0.00  0.00    +0.000 A 
ATOM     19  C   UNL     1       1.871  10.245  17.941  0.00  0.00    +0.000 A 
ATOM     20  C   UNL     1       1.622  11.454  18.606  0.00  0.00    +0.000 A 
ATOM     21  C   UNL     1       1.079  11.415  19.899  0.00  0.00    +0.000 A 
ATOM     22  C   UNL     1       0.713  12.358  20.887  0.00  0.00    +0.000 A 
ATOM     23  N   UNL     1       0.224  11.786  21.990  0.00  0.00    +0.000 NA
ATOM     24  N   UNL     1       0.292  10.475  21.719  0.00  0.00    +0.000 N 
ATOM     25  C   UNL     1       0.796  10.189  20.476  0.00  0.00    +0.000 A 
ATOM     26  C   UNL     1       1.037   8.972  19.835  0.00  0.00    +0.000 A 
ATOM     27  H   UNL     1      -0.029   9.814  22.417  0.00  0.00    +0.000 HD
ENDBRANCH  17  18
ENDBRANCH   2  17
TORSDOF 2
ENDMDL
MODEL 2
REMARK VINA RESULT:      -8.4      1.041      1.433
REMARK  Name = 
REMARK  2 active torsions:
REMARK  status: ('A' for Active; 'I' for Inactive)
REMARK    1  A    between atoms: C_2  and  C_3
REMARK    2  A    between atoms: C_3  and  C_4
REMARK                            x       y       z     vdW  Elec       q    Type
REMARK                         _______ _______ _______ _____ _____    ______ ____
ROOT
ATOM      1  O   UNL     1       4.397   7.728  17.658  0.00  0.00    +0.000 OA
ATOM      2  C   UNL     1       3.428   7.138  18.147  0.00  0.00    +0.000 C 
ATOM      3  N   UNL     1       3.578   6.042  18.996  0.00  0.00    +0.000 N 
ATOM      4  C   UNL     1       4.939   5.505  19.104  0.00  0.00    +0.000 C 
ATOM      5  C   UNL     1       5.396   4.846  17.819  0.00  0.00    +0.000 A 
ATOM      6  N   UNL     1       6.514   5.371  17.245  0.00  0.00    +0.000 NA
ATOM      7  C   UNL     1       6.835   4.936  16.015  0.00  0.00    +0.000 A 
ATOM      8  C   UNL     1       6.124   3.959  15.346  0.00  0.00    +0.000 A 
ATOM      9  C   UNL     1       5.034   3.371  15.990  0.00  0.00    +0.000 A 
ATOM     10  C   UNL     1       4.633   3.807  17.255  0.00  0.00    +0.000 A 
ATOM     11  N   UNL     1       3.523   3.292  17.877  0.00  0.00    +0.000 N 
ATOM     12  C   UNL     1       3.349   1.883  18.178  0.00  0.00    +0.000 C 
ATOM     13  C   UNL     1       2.007   1.831  18.903  0.00  0.00    +0.000 C 
ATOM     14  C   UNL     1       1.238   3.039  18.379  0.00  0.00    +0.000 C 
ATOM     15  C   UNL     1       2.318   4.093  18.100  0.00  0.00    +0.000 C 
ATOM     16  C   UNL     1       2.508   5.077  19.272  0.00  0.00    +0.000 C 
ENDROOT
BRANCH   2  17
ATOM     17  C   UNL     1       2.032   7.663  17.853  0.00  0.00    +0.000 C 
BRANCH  17  18
ATOM     18  C   UNL     1       1.708   8.948  18.582  0.00  0.00    +0.000 A 
ATOM     19  C   UNL     1       1.179   8.892  19.880  0.00  0.00    +0.000 A 
ATOM     20  C   UNL     1       0.786  10.054  20.559  0.00  0.00    +0.000 A 
ATOM     21  C   UNL     1       0.922  11.292  19.914  0.00  0.00    +0.000 A 
ATOM     22  C   UNL     1       0.636  12.644  20.216  0.00  0.00    +0.000 A 
ATOM     23  N   UNL     1       0.965  13.475  19.225  0.00  0.00    +0.000 NA
ATOM     24  N   UNL     1       1.447  12.658  18.278  0.00  0.00    +0.000 N 
ATOM     25  C   UNL     1       1.447  11.333  18.633  0.00  0.00    +0.000 A 
ATOM     26  C   UNL     1       1.845  10.191  17.936  0.00  0.00    +0.000 A 
ATOM     27  H   UNL     1       1.772  13.058  17.405  0.00  0.00    +0.000 HD
ENDBRANCH  17  18
ENDBRANCH   2  17
TORSDOF 2
ENDMDL
MODEL 3
REMARK VINA RESULT:      -7.8      2.944      7.938
REMARK  Name = 
REMARK  2 active torsions:
REMARK  status: ('A' for Active; 'I' for Inactive)
REMARK    1  A    between atoms: C_2  and  C_3
REMARK    2  A    between atoms: C_3  and  C_4
REMARK                            x       y       z     vdW  Elec       q    Type
REMARK                         _______ _______ _______ _____ _____    ______ ____
ROOT
ATOM      1  O   UNL     1       6.155   4.010  16.777  0.00  0.00    +0.000 OA
ATOM      2  C   UNL     1       5.691   5.145  16.627  0.00  0.00    +0.000 C 
ATOM      3  N   UNL     1       5.526   6.026  17.696  0.00  0.00    +0.000 N 
ATOM      4  C   UNL     1       5.737   5.451  19.029  0.00  0.00    +0.000 C 
ATOM      5  C   UNL     1       4.656   4.458  19.400  0.00  0.00    +0.000 A 
ATOM      6  N   UNL     1       5.079   3.191  19.671  0.00  0.00    +0.000 NA
ATOM      7  C   UNL     1       4.135   2.246  19.817  0.00  0.00    +0.000 A 
ATOM      8  C   UNL     1       2.781   2.512  19.759  0.00  0.00    +0.000 A 
ATOM      9  C   UNL     1       2.369   3.832  19.569  0.00  0.00    +0.000 A 
ATOM     10  C   UNL     1       3.305   4.850  19.378  0.00  0.00    +0.000 A 
ATOM     11  N   UNL     1       2.922   6.143  19.120  0.00  0.00    +0.000 N 
ATOM     12  C   UNL     1       2.079   6.925  20.005  0.00  0.00    +0.000 C 
ATOM     13  C   UNL     1       1.990   8.283  19.314  0.00  0.00    +0.000 C 
ATOM     14  C   UNL     1       2.203   7.978  17.835  0.00  0.00    +0.000 C 
ATOM     15  C   UNL     1       3.157   6.777  17.821  0.00  0.00    +0.000 C 
ATOM     16  C   UNL     1       4.634   7.190  17.658  0.00  0.00    +0.000 C 
ENDROOT
BRANCH   2  17
ATOM     17  C   UNL     1       5.342   5.610  15.222  0.00  0.00    +0.000 C 
BRANCH  17  18
ATOM     18  C   UNL     1       6.008   4.794  14.137  0.00  0.00    +0.000 A 
ATOM     19  C   UNL     1       7.228   5.227  13.597  0.00  0.00    +0.000 A 
ATOM     20  C   UNL     1       7.837   4.547  12.532  0.00  0.00    +0.000 A 
ATOM     21  C   UNL     1       7.200   3.417  11.999  0.00  0.00    +0.000 A 
ATOM     22  C   UNL     1       7.447   2.498  10.953  0.00  0.00    +0.000 A 
ATOM     23  N   UNL     1       6.496   1.566  10.851  0.00  0.00    +0.000 NA
ATOM     24  N   UNL     1       5.628   1.896  11.817  0.00  0.00    +0.000 N 
ATOM     25  C   UNL     1       5.997   3.000  12.543  0.00  0.00    +0.000 A 
ATOM     26  C   UNL     1       5.370   3.660  13.602  0.00  0.00    +0.000 A 
ATOM     27  H   UNL     1       4.799   1.327  11.946  0.00  0.00    +0.000 HD
ENDBRANCH  17  18
ENDBRANCH   2  17
TORSDOF 2
ENDMDL
MODEL 4
REMARK VINA RESULT:      -7.8      2.316      7.965
REMARK  Name = 
REMARK  2 active torsions:
REMARK  status: ('A' for Active; 'I' for Inactive)
REMARK    1  A    between atoms: C_2  and  C_3
REMARK    2  A    between atoms: C_3  and  C_4
REMARK                            x       y       z     vdW  Elec       q    Type
REMARK                         _______ _______ _______ _____ _____    ______ ____
ROOT
ATOM      1  O   UNL     1       2.452   8.969  18.446  0.00  0.00    +0.000 OA
ATOM      2  C   UNL     1       1.754   8.612  19.401  0.00  0.00    +0.000 C 
ATOM      3  N   UNL     1       0.477   9.128  19.620  0.00  0.00    +0.000 N 
ATOM      4  C   UNL     1       0.100  10.267  18.775  0.00  0.00    +0.000 C 
ATOM      5  C   UNL     1       0.895  11.512  19.107  0.00  0.00    +0.000 A 
ATOM      6  N   UNL     1       1.634  12.036  18.090  0.00  0.00    +0.000 NA
ATOM      7  C   UNL     1       2.492  13.022  18.399  0.00  0.00    +0.000 A 
ATOM      8  C   UNL     1       2.614  13.552  19.668  0.00  0.00    +0.000 A 
ATOM      9  C   UNL     1       1.784  13.060  20.677  0.00  0.00    +0.000 A 
ATOM     10  C   UNL     1       0.896  12.013  20.422  0.00  0.00    +0.000 A 
ATOM     11  N   UNL     1       0.120  11.467  21.415  0.00  0.00    +0.000 N 
ATOM     12  C   UNL     1      -0.824  12.230  22.210  0.00  0.00    +0.000 C 
ATOM     13  C   UNL     1      -1.462  11.181  23.118  0.00  0.00    +0.000 C 
ATOM     14  C   UNL     1      -0.405  10.091  23.249  0.00  0.00    +0.000 C 
ATOM     15  C   UNL     1       0.334  10.104  21.904  0.00  0.00    +0.000 C 
ATOM     16  C   UNL     1      -0.216   9.059  20.911  0.00  0.00    +0.000 C 
ENDROOT
BRANCH   2  17
ATOM     17  C   UNL     1       2.289   7.535  20.332  0.00  0.00    +0.000 C 
BRANCH  17  18
ATOM     18  C   UNL     1       1.991   6.130  19.859  0.00  0.00    +0.000 A 
ATOM     19  C   UNL     1       1.235   5.273  20.672  0.00  0.00    +0.000 A 
ATOM     20  C   UNL     1       1.007   3.937  20.311  0.00  0.00    +0.000 A 
ATOM     21  C   UNL     1       1.558   3.457  19.114  0.00  0.00    +0.000 A 
ATOM     22  C   UNL     1       1.590   2.225  18.421  0.00  0.00    +0.000 A 
ATOM     23  N   UNL     1       2.277   2.295  17.277  0.00  0.00    +0.000 NA
ATOM     24  N   UNL     1       2.701   3.565  17.244  0.00  0.00    +0.000 N 
ATOM     25  C   UNL     1       2.300   4.315  18.320  0.00  0.00    +0.000 A 
ATOM     26  C   UNL     1       2.542   5.648  18.658  0.00  0.00    +0.000 A 
ATOM     27  H   UNL     1       3.257   3.875  16.455  0.00  0.00    +0.000 HD
ENDBRANCH  17  18
ENDBRANCH   2  17
TORSDOF 2
ENDMDL
MODEL 5
REMARK VINA RESULT:      -7.8      1.983      7.992
REMARK  Name = 
REMARK  2 active torsions:
REMARK  status: ('A' for Active; 'I' for Inactive)
REMARK    1  A    between atoms: C_2  and  C_3
REMARK    2  A    between atoms: C_3  and  C_4
REMARK                            x       y       z     vdW  Elec       q    Type
REMARK                         _______ _______ _______ _____ _____    ______ ____
ROOT
ATOM      1  O   UNL     1       2.241   9.647  17.712  0.00  0.00    +0.000 OA
ATOM      2  C   UNL     1       1.570   9.165  18.630  0.00  0.00    +0.000 C 
ATOM      3  N   UNL     1       0.357   9.722  19.034  0.00  0.00    +0.000 N 
ATOM      4  C   UNL     1       0.033  11.028  18.448  0.00  0.00    +0.000 C 
ATOM      5  C   UNL     1       0.950  12.122  18.952  0.00  0.00    +0.000 A 
ATOM      6  N   UNL     1       1.673  12.778  18.000  0.00  0.00    +0.000 NA
ATOM      7  C   UNL     1       2.629  13.619  18.427  0.00  0.00    +0.000 A 
ATOM      8  C   UNL     1       2.869  13.882  19.761  0.00  0.00    +0.000 A 
ATOM      9  C   UNL     1       2.058  13.267  20.717  0.00  0.00    +0.000 A 
ATOM     10  C   UNL     1       1.070  12.357  20.334  0.00  0.00    +0.000 A 
ATOM     11  N   UNL     1       0.307  11.689  21.259  0.00  0.00    +0.000 N 
ATOM     12  C   UNL     1      -0.521  12.351  22.250  0.00  0.00    +0.000 C 
ATOM     13  C   UNL     1      -1.194  11.196  22.988  0.00  0.00    +0.000 C 
ATOM     14  C   UNL     1      -0.230  10.025  22.834  0.00  0.00    +0.000 C 
ATOM     15  C   UNL     1       0.429  10.244  21.466  0.00  0.00    +0.000 C 
ATOM     16  C   UNL     1      -0.264   9.456  20.336  0.00  0.00    +0.000 C 
ENDROOT
BRANCH   2  17
ATOM     17  C   UNL     1       2.062   7.892  19.300  0.00  0.00    +0.000 C 
BRANCH  17  18
ATOM     18  C   UNL     1       2.832   6.982  18.369  0.00  0.00    +0.000 A 
ATOM     19  C   UNL     1       2.488   5.624  18.289  0.00  0.00    +0.000 A 
ATOM     20  C   UNL     1       3.228   4.729  17.504  0.00  0.00    +0.000 A 
ATOM     21  C   UNL     1       4.338   5.210  16.794  0.00  0.00    +0.000 A 
ATOM     22  C   UNL     1       5.327   4.665  15.943  0.00  0.00    +0.000 A 
ATOM     23  N   UNL     1       6.197   5.582  15.510  0.00  0.00    +0.000 NA
ATOM     24  N   UNL     1       5.778   6.712  16.097  0.00  0.00    +0.000 N 
ATOM     25  C   UNL     1       4.664   6.553  16.881  0.00  0.00    +0.000 A 
ATOM     26  C   UNL     1       3.944   7.464  17.656  0.00  0.00    +0.000 A 
ATOM     27  H   UNL     1       6.287   7.571  15.921  0.00  0.00    +0.000 HD
ENDBRANCH  17  18
ENDBRANCH   2  17
TORSDOF 2
ENDMDL
MODEL 6
REMARK VINA RESULT:      -7.5      2.542      7.984
REMARK  Name = 
REMARK  2 active torsions:
REMARK  status: ('A' for Active; 'I' for Inactive)
REMARK    1  A    between atoms: C_2  and  C_3
REMARK    2  A    between atoms: C_3  and  C_4
REMARK                            x       y       z     vdW  Elec       q    Type
REMARK                         _______ _______ _______ _____ _____    ______ ____
ROOT
ATOM      1  O   UNL     1       2.349   9.163  18.578  0.00  0.00    +0.000 OA
ATOM      2  C   UNL     1       1.563   8.861  19.482  0.00  0.00    +0.000 C 
ATOM      3  N   UNL     1       0.313   9.467  19.611  0.00  0.00    +0.000 N 
ATOM      4  C   UNL     1       0.077  10.625  18.743  0.00  0.00    +0.000 C 
ATOM      5  C   UNL     1       0.934  11.813  19.131  0.00  0.00    +0.000 A 
ATOM      6  N   UNL     1       1.777  12.279  18.167  0.00  0.00    +0.000 NA
ATOM      7  C   UNL     1       2.679  13.203  18.535  0.00  0.00    +0.000 A 
ATOM      8  C   UNL     1       2.750  13.729  19.811  0.00  0.00    +0.000 A 
ATOM      9  C   UNL     1       1.819  13.302  20.759  0.00  0.00    +0.000 A 
ATOM     10  C   UNL     1       0.879  12.318  20.442  0.00  0.00    +0.000 A 
ATOM     11  N   UNL     1      -0.001  11.833  21.378  0.00  0.00    +0.000 N 
ATOM     12  C   UNL     1      -0.942  12.665  22.106  0.00  0.00    +0.000 C 
ATOM     13  C   UNL     1      -1.713  11.668  22.967  0.00  0.00    +0.000 C 
ATOM     14  C   UNL     1      -0.748  10.506  23.171  0.00  0.00    +0.000 C 
ATOM     15  C   UNL     1       0.081  10.461  21.881  0.00  0.00    +0.000 C 
ATOM     16  C   UNL     1      -0.471   9.453  20.851  0.00  0.00    +0.000 C 
ENDROOT
BRANCH   2  17
ATOM     17  C   UNL     1       1.954   7.753  20.447  0.00  0.00    +0.000 C 
BRANCH  17  18
ATOM     18  C   UNL     1       2.054   6.393  19.793  0.00  0.00    +0.000 A 
ATOM     19  C   UNL     1       2.522   6.294  18.474  0.00  0.00    +0.000 A 
ATOM     20  C   UNL     1       2.551   5.065  17.800  0.00  0.00    +0.000 A 
ATOM     21  C   UNL     1       2.092   3.919  18.465  0.00  0.00    +0.000 A 
ATOM     22  C   UNL     1       1.932   2.548  18.156  0.00  0.00    +0.000 A 
ATOM     23  N   UNL     1       1.433   1.845  19.176  0.00  0.00    +0.000 NA
ATOM     24  N   UNL     1       1.256   2.765  20.134  0.00  0.00    +0.000 N 
ATOM     25  C   UNL     1       1.634   4.031  19.767  0.00  0.00    +0.000 A 
ATOM     26  C   UNL     1       1.595   5.243  20.459  0.00  0.00    +0.000 A 
ATOM     27  H   UNL     1       0.878   2.473  21.029  0.00  0.00    +0.000 HD
ENDBRANCH  17  18
ENDBRANCH   2  17
TORSDOF 2
ENDMDL
MODEL 7
REMARK VINA RESULT:      -7.5      1.870      3.668
REMARK  Name = 
REMARK  2 active torsions:
REMARK  status: ('A' for Active; 'I' for Inactive)
REMARK    1  A    between atoms: C_2  and  C_3
REMARK    2  A    between atoms: C_3  and  C_4
REMARK                            x       y       z     vdW  Elec       q    Type
REMARK                         _______ _______ _______ _____ _____    ______ ____
ROOT
ATOM      1  O   UNL     1       4.919   5.465  19.991  0.00  0.00    +0.000 OA
ATOM      2  C   UNL     1       4.489   4.865  19.001  0.00  0.00    +0.000 C 
ATOM      3  N   UNL     1       5.312   4.077  18.195  0.00  0.00    +0.000 N 
ATOM      4  C   UNL     1       6.750   4.175  18.471  0.00  0.00    +0.000 C 
ATOM      5  C   UNL     1       7.312   5.529  18.094  0.00  0.00    +0.000 A 
ATOM      6  N   UNL     1       7.891   6.236  19.106  0.00  0.00    +0.000 NA
ATOM      7  C   UNL     1       8.228   7.511  18.849  0.00  0.00    +0.000 A 
ATOM      8  C   UNL     1       8.066   8.105  17.613  0.00  0.00    +0.000 A 
ATOM      9  C   UNL     1       7.554   7.335  16.567  0.00  0.00    +0.000 A 
ATOM     10  C   UNL     1       7.155   6.014  16.783  0.00  0.00    +0.000 A 
ATOM     11  N   UNL     1       6.585   5.260  15.787  0.00  0.00    +0.000 N 
ATOM     12  C   UNL     1       7.231   4.981  14.518  0.00  0.00    +0.000 C 
ATOM     13  C   UNL     1       6.234   4.079  13.795  0.00  0.00    +0.000 C 
ATOM     14  C   UNL     1       4.878   4.456  14.382  0.00  0.00    +0.000 C 
ATOM     15  C   UNL     1       5.180   4.850  15.834  0.00  0.00    +0.000 C 
ATOM     16  C   UNL     1       4.970   3.685  16.824  0.00  0.00    +0.000 C 
ENDROOT
BRANCH   2  17
ATOM     17  C   UNL     1       3.004   4.948  18.687  0.00  0.00    +0.000 C 
BRANCH  17  18
ATOM     18  C   UNL     1       2.424   6.330  18.887  0.00  0.00    +0.000 A 
ATOM     19  C   UNL     1       2.448   7.250  17.828  0.00  0.00    +0.000 A 
ATOM     20  C   UNL     1       2.000   8.568  17.995  0.00  0.00    +0.000 A 
ATOM     21  C   UNL     1       1.526   8.966  19.253  0.00  0.00    +0.000 A 
ATOM     22  C   UNL     1       1.028  10.156  19.833  0.00  0.00    +0.000 A 
ATOM     23  N   UNL     1       0.702  10.006  21.119  0.00  0.00    +0.000 NA
ATOM     24  N   UNL     1       1.007   8.726  21.372  0.00  0.00    +0.000 N 
ATOM     25  C   UNL     1       1.506   8.048  20.289  0.00  0.00    +0.000 A 
ATOM     26  C   UNL     1       1.948   6.731  20.149  0.00  0.00    +0.000 A 
ATOM     27  H   UNL     1       0.846   8.360  22.304  0.00  0.00    +0.000 HD
ENDBRANCH  17  18
ENDBRANCH   2  17
TORSDOF 2
ENDMDL
MODEL 8
REMARK VINA RESULT:      -7.4      1.809      3.512
REMARK  Name = 
REMARK  2 active torsions:
REMARK  status: ('A' for Active; 'I' for Inactive)
REMARK    1  A    between atoms: C_2  and  C_3
REMARK    2  A    between atoms: C_3  and  C_4
REMARK                            x       y       z     vdW  Elec       q    Type
REMARK                         _______ _______ _______ _____ _____    ______ ____
ROOT
ATOM      1  O   UNL     1       1.063   5.189  20.262  0.00  0.00    +0.000 OA
ATOM      2  C   UNL     1       1.737   6.042  19.677  0.00  0.00    +0.000 C 
ATOM      3  N   UNL     1       1.923   6.022  18.295  0.00  0.00    +0.000 N 
ATOM      4  C   UNL     1       1.448   4.815  17.609  0.00  0.00    +0.000 C 
ATOM      5  C   UNL     1       2.280   3.597  17.957  0.00  0.00    +0.000 A 
ATOM      6  N   UNL     1       1.607   2.560  18.530  0.00  0.00    +0.000 NA
ATOM      7  C   UNL     1       2.341   1.547  19.020  0.00  0.00    +0.000 A 
ATOM      8  C   UNL     1       3.717   1.490  18.919  0.00  0.00    +0.000 A 
ATOM      9  C   UNL     1       4.379   2.521  18.250  0.00  0.00    +0.000 A 
ATOM     10  C   UNL     1       3.671   3.616  17.749  0.00  0.00    +0.000 A 
ATOM     11  N   UNL     1       4.308   4.673  17.149  0.00  0.00    +0.000 N 
ATOM     12  C   UNL     1       5.161   4.542  15.982  0.00  0.00    +0.000 C 
ATOM     13  C   UNL     1       5.576   5.979  15.675  0.00  0.00    +0.000 C 
ATOM     14  C   UNL     1       5.498   6.698  17.017  0.00  0.00    +0.000 C 
ATOM     15  C   UNL     1       4.354   6.001  17.764  0.00  0.00    +0.000 C 
ATOM     16  C   UNL     1       3.006   6.736  17.611  0.00  0.00    +0.000 C 
ENDROOT
BRANCH   2  17
ATOM     17  C   UNL     1       2.336   7.180  20.489  0.00  0.00    +0.000 C 
BRANCH  17  18
ATOM     18  C   UNL     1       1.357   8.299  20.766  0.00  0.00    +0.000 A 
ATOM     19  C   UNL     1       1.108   9.261  19.775  0.00  0.00    +0.000 A 
ATOM     20  C   UNL     1       0.274  10.361  20.019  0.00  0.00    +0.000 A 
ATOM     21  C   UNL     1      -0.312  10.498  21.286  0.00  0.00    +0.000 A 
ATOM     22  C   UNL     1      -1.158  11.429  21.930  0.00  0.00    +0.000 A 
ATOM     23  N   UNL     1      -1.435  11.088  23.191  0.00  0.00    +0.000 NA
ATOM     24  N   UNL     1      -0.754   9.948  23.364  0.00  0.00    +0.000 N 
ATOM     25  C   UNL     1      -0.059   9.541  22.254  0.00  0.00    +0.000 A 
ATOM     26  C   UNL     1       0.768   8.437  22.036  0.00  0.00    +0.000 A 
ATOM     27  H   UNL     1      -0.803   9.479  24.262  0.00  0.00    +0.000 HD
ENDBRANCH  17  18
ENDBRANCH   2  17
TORSDOF 2
ENDMDL
MODEL 9
REMARK VINA RESULT:      -7.4      2.149      7.859
REMARK  Name = 
REMARK  2 active torsions:
REMARK  status: ('A' for Active; 'I' for Inactive)
REMARK    1  A    between atoms: C_2  and  C_3
REMARK    2  A    between atoms: C_3  and  C_4
REMARK                            x       y       z     vdW  Elec       q    Type
REMARK                         _______ _______ _______ _____ _____    ______ ____
ROOT
ATOM      1  O   UNL     1       2.576   8.884  18.149  0.00  0.00    +0.000 OA
ATOM      2  C   UNL     1       1.928   8.466  19.114  0.00  0.00    +0.000 C 
ATOM      3  N   UNL     1       0.653   8.945  19.415  0.00  0.00    +0.000 N 
ATOM      4  C   UNL     1       0.218  10.116  18.646  0.00  0.00    +0.000 C 
ATOM      5  C   UNL     1       1.005  11.359  19.005  0.00  0.00    +0.000 A 
ATOM      6  N   UNL     1       1.687  11.948  17.983  0.00  0.00    +0.000 NA
ATOM      7  C   UNL     1       2.540  12.935  18.302  0.00  0.00    +0.000 A 
ATOM      8  C   UNL     1       2.710  13.404  19.590  0.00  0.00    +0.000 A 
ATOM      9  C   UNL     1       1.935  12.846  20.609  0.00  0.00    +0.000 A 
ATOM     10  C   UNL     1       1.056  11.794  20.342  0.00  0.00    +0.000 A 
ATOM     11  N   UNL     1       0.336  11.185  21.339  0.00  0.00    +0.000 N 
ATOM     12  C   UNL     1      -0.585  11.888  22.213  0.00  0.00    +0.000 C 
ATOM     13  C   UNL     1      -1.161  10.784  23.095  0.00  0.00    +0.000 C 
ATOM     14  C   UNL     1      -0.080   9.709  23.123  0.00  0.00    +0.000 C 
ATOM     15  C   UNL     1       0.597   9.804  21.749  0.00  0.00    +0.000 C 
ATOM     16  C   UNL     1       0.021   8.798  20.731  0.00  0.00    +0.000 C 
ENDROOT
BRANCH   2  17
ATOM     17  C   UNL     1       2.524   7.356  19.966  0.00  0.00    +0.000 C 
BRANCH  17  18
ATOM     18  C   UNL     1       2.581   6.021  19.257  0.00  0.00    +0.000 A 
ATOM     19  C   UNL     1       1.646   5.732  18.252  0.00  0.00    +0.000 A 
ATOM     20  C   UNL     1       1.609   4.476  17.629  0.00  0.00    +0.000 A 
ATOM     21  C   UNL     1       2.526   3.494  18.032  0.00  0.00    +0.000 A 
ATOM     22  C   UNL     1       2.803   2.149  17.697  0.00  0.00    +0.000 A 
ATOM     23  N   UNL     1       3.819   1.641  18.399  0.00  0.00    +0.000 NA
ATOM     24  N   UNL     1       4.184   2.653  19.198  0.00  0.00    +0.000 N 
ATOM     25  C   UNL     1       3.445   3.794  19.024  0.00  0.00    +0.000 A 
ATOM     26  C   UNL     1       3.501   5.036  19.659  0.00  0.00    +0.000 A 
ATOM     27  H   UNL     1       4.954   2.514  19.842  0.00  0.00    +0.000 HD
ENDBRANCH  17  18
ENDBRANCH   2  17
TORSDOF 2
ENDMDL
