MODEL 1
REMARK VINA RESULT:      -9.2      0.000      0.000
REMARK  Name = 
REMARK  6 active torsions:
REMARK  status: ('A' for Active; 'I' for Inactive)
REMARK    1  A    between atoms: C_1  and  C_2
REMARK    2  A    between atoms: C_4  and  C_5
REMARK    3  A    between atoms: C_10  and  N_11
REMARK    4  A    between atoms: C_12  and  C_14
REMARK    5  A    between atoms: C_15  and  C_16
REMARK    6  A    between atoms: C_26  and  C_27
REMARK                            x       y       z     vdW  Elec       q    Type
REMARK                         _______ _______ _______ _____ _____    ______ ____
ROOT
ATOM      1  N   UNL     1       2.571   6.314  20.208  0.00  0.00    +0.000 N 
ATOM      2  C   UNL     1       2.381   5.272  19.314  0.00  0.00    +0.000 C 
ATOM      3  O   UNL     1       1.595   5.271  18.375  0.00  0.00    +0.000 OA
ATOM      4  H   UNL     1       3.143   6.117  21.020  0.00  0.00    +0.000 HD
ENDROOT
BRANCH   1  14
ATOM      5  C   UNL     1      -0.667  14.400  18.611  0.00  0.00    +0.000 C 
ATOM      6  C   UNL     1      -0.556  13.270  19.564  0.00  0.00    +0.000 A 
ATOM      7  C   UNL     1      -1.127  13.150  20.843  0.00  0.00    +0.000 A 
ATOM      8  C   UNL     1      -0.715  11.922  21.318  0.00  0.00    +0.000 A 
ATOM      9  C   UNL     1      -0.998  11.283  22.628  0.00  0.00    +0.000 C 
ATOM     10  N   UNL     1       0.056  11.350  20.313  0.00  0.00    +0.000 N 
ATOM     11  C   UNL     1       0.702  10.066  20.291  0.00  0.00    +0.000 A 
ATOM     12  C   UNL     1       1.452   9.724  19.167  0.00  0.00    +0.000 A 
ATOM     13  C   UNL     1       2.088   8.480  19.114  0.00  0.00    +0.000 A 
ATOM     14  C   UNL     1       1.963   7.591  20.173  0.00  0.00    +0.000 A 
ATOM     15  C   UNL     1       1.200   8.018  21.261  0.00  0.00    +0.000 A 
ATOM     16  N   UNL     1       0.572   9.220  21.348  0.00  0.00    +0.000 NA
ATOM     17  N   UNL     1       0.160  12.192  19.241  0.00  0.00    +0.000 NA
ENDBRANCH   1  14
BRANCH   2  18
ATOM     18  C   UNL     1       3.199   4.104  19.584  0.00  0.00    +0.000 A 
ATOM     19  C   UNL     1       4.445   3.694  18.991  0.00  0.00    +0.000 A 
ATOM     20  N   UNL     1       4.848   2.542  19.554  0.00  0.00    +0.000 NA
ATOM     21  O   UNL     1       3.953   2.240  20.547  0.00  0.00    +0.000 OA
ATOM     22  C   UNL     1       2.967   3.166  20.572  0.00  0.00    +0.000 A 
ATOM     23  C   UNL     1       1.946   2.986  21.623  0.00  0.00    +0.000 C 
BRANCH  19  24
ATOM     24  C   UNL     1       5.222   4.290  17.891  0.00  0.00    +0.000 A 
ATOM     25  C   UNL     1       4.802   4.109  16.564  0.00  0.00    +0.000 A 
ATOM     26  F   UNL     1       3.725   3.359  16.284  0.00  0.00    +0.000 F 
ATOM     27  C   UNL     1       5.501   4.645  15.478  0.00  0.00    +0.000 A 
ATOM     28  C   UNL     1       6.680   5.348  15.689  0.00  0.00    +0.000 A 
ATOM     29  C   UNL     1       7.144   5.519  16.989  0.00  0.00    +0.000 A 
ATOM     30  C   UNL     1       6.420   5.011  18.084  0.00  0.00    +0.000 A 
ATOM     31 CL   UNL     1       7.096   5.362  19.642  0.00  0.00    +0.000 Cl
ENDBRANCH  19  24
ENDBRANCH   2  18
TORSDOF 3
ENDMDL
MODEL 2
REMARK VINA RESULT:      -9.0      0.871      1.634
REMARK  Name = 
REMARK  6 active torsions:
REMARK  status: ('A' for Active; 'I' for Inactive)
REMARK    1  A    between atoms: C_1  and  C_2
REMARK    2  A    between atoms: C_4  and  C_5
REMARK    3  A    between atoms: C_10  and  N_11
REMARK    4  A    between atoms: C_12  and  C_14
REMARK    5  A    between atoms: C_15  and  C_16
REMARK    6  A    between atoms: C_26  and  C_27
REMARK                            x       y       z     vdW  Elec       q    Type
REMARK                         _______ _______ _______ _____ _____    ______ ____
ROOT
ATOM      1  N   UNL     1       2.247   6.266  20.523  0.00  0.00    +0.000 N 
ATOM      2  C   UNL     1       2.389   5.433  19.423  0.00  0.00    +0.000 C 
ATOM      3  O   UNL     1       1.869   5.601  18.328  0.00  0.00    +0.000 OA
ATOM      4  H   UNL     1       2.612   5.923  21.403  0.00  0.00    +0.000 HD
ENDROOT
BRANCH   1  14
ATOM      5  C   UNL     1      -2.773  13.391  22.089  0.00  0.00    +0.000 C 
ATOM      6  C   UNL     1      -1.745  12.758  21.229  0.00  0.00    +0.000 A 
ATOM      7  C   UNL     1      -1.092  13.300  20.109  0.00  0.00    +0.000 A 
ATOM      8  C   UNL     1      -0.242  12.311  19.660  0.00  0.00    +0.000 A 
ATOM      9  C   UNL     1       0.676  12.324  18.493  0.00  0.00    +0.000 C 
ATOM     10  N   UNL     1      -0.397  11.237  20.529  0.00  0.00    +0.000 N 
ATOM     11  C   UNL     1       0.276   9.966  20.522  0.00  0.00    +0.000 A 
ATOM     12  C   UNL     1      -0.076   9.028  21.491  0.00  0.00    +0.000 A 
ATOM     13  C   UNL     1       0.564   7.786  21.513  0.00  0.00    +0.000 A 
ATOM     14  C   UNL     1       1.549   7.495  20.578  0.00  0.00    +0.000 A 
ATOM     15  C   UNL     1       1.832   8.489  19.640  0.00  0.00    +0.000 A 
ATOM     16  N   UNL     1       1.227   9.705  19.586  0.00  0.00    +0.000 NA
ATOM     17  N   UNL     1      -1.335  11.515  21.484  0.00  0.00    +0.000 NA
ENDBRANCH   1  14
BRANCH   2  18
ATOM     18  C   UNL     1       3.220   4.268  19.668  0.00  0.00    +0.000 A 
ATOM     19  C   UNL     1       4.462   3.876  19.055  0.00  0.00    +0.000 A 
ATOM     20  N   UNL     1       4.881   2.720  19.597  0.00  0.00    +0.000 NA
ATOM     21  O   UNL     1       4.000   2.397  20.596  0.00  0.00    +0.000 OA
ATOM     22  C   UNL     1       3.007   3.314  20.645  0.00  0.00    +0.000 A 
ATOM     23  C   UNL     1       1.999   3.112  21.705  0.00  0.00    +0.000 C 
BRANCH  19  24
ATOM     24  C   UNL     1       5.221   4.494  17.954  0.00  0.00    +0.000 A 
ATOM     25  C   UNL     1       4.771   4.352  16.632  0.00  0.00    +0.000 A 
ATOM     26  F   UNL     1       3.680   3.621  16.357  0.00  0.00    +0.000 F 
ATOM     27  C   UNL     1       5.452   4.911  15.547  0.00  0.00    +0.000 A 
ATOM     28  C   UNL     1       6.642   5.597  15.750  0.00  0.00    +0.000 A 
ATOM     29  C   UNL     1       7.136   5.729  17.044  0.00  0.00    +0.000 A 
ATOM     30  C   UNL     1       6.431   5.199  18.141  0.00  0.00    +0.000 A 
ATOM     31 CL   UNL     1       7.143   5.502  19.693  0.00  0.00    +0.000 Cl
ENDBRANCH  19  24
ENDBRANCH   2  18
TORSDOF 3
ENDMDL
MODEL 3
REMARK VINA RESULT:      -8.9      1.402      1.668
REMARK  Name = 
REMARK  6 active torsions:
REMARK  status: ('A' for Active; 'I' for Inactive)
REMARK    1  A    between atoms: C_1  and  C_2
REMARK    2  A    between atoms: C_4  and  C_5
REMARK    3  A    between atoms: C_10  and  N_11
REMARK    4  A    between atoms: C_12  and  C_14
REMARK    5  A    between atoms: C_15  and  C_16
REMARK    6  A    between atoms: C_26  and  C_27
REMARK                            x       y       z     vdW  Elec       q    Type
REMARK                         _______ _______ _______ _____ _____    ______ ____
ROOT
ATOM      1  N   UNL     1       2.459   6.357  20.402  0.00  0.00    +0.000 N 
ATOM      2  C   UNL     1       2.464   5.423  19.377  0.00  0.00    +0.000 C 
ATOM      3  O   UNL     1       1.860   5.522  18.317  0.00  0.00    +0.000 OA
ATOM      4  H   UNL     1       2.882   6.073  21.277  0.00  0.00    +0.000 HD
ENDROOT
BRANCH   1  14
ATOM      5  C   UNL     1      -0.914  14.427  19.017  0.00  0.00    +0.000 C 
ATOM      6  C   UNL     1      -0.790  13.271  19.938  0.00  0.00    +0.000 A 
ATOM      7  C   UNL     1      -1.367  13.104  21.208  0.00  0.00    +0.000 A 
ATOM      8  C   UNL     1      -0.937  11.870  21.650  0.00  0.00    +0.000 A 
ATOM      9  C   UNL     1      -1.218  11.188  22.938  0.00  0.00    +0.000 C 
ATOM     10  N   UNL     1      -0.148  11.342  20.634  0.00  0.00    +0.000 N 
ATOM     11  C   UNL     1       0.521  10.071  20.580  0.00  0.00    +0.000 A 
ATOM     12  C   UNL     1       1.285   9.775  19.452  0.00  0.00    +0.000 A 
ATOM     13  C   UNL     1       1.944   8.546  19.368  0.00  0.00    +0.000 A 
ATOM     14  C   UNL     1       1.828   7.623  20.400  0.00  0.00    +0.000 A 
ATOM     15  C   UNL     1       1.049   8.005  21.493  0.00  0.00    +0.000 A 
ATOM     16  N   UNL     1       0.399   9.192  21.611  0.00  0.00    +0.000 NA
ATOM     17  N   UNL     1      -0.052  12.217  19.589  0.00  0.00    +0.000 NA
ENDBRANCH   1  14
BRANCH   2  18
ATOM     18  C   UNL     1       3.256   4.240  19.660  0.00  0.00    +0.000 A 
ATOM     19  C   UNL     1       4.582   3.891  19.219  0.00  0.00    +0.000 A 
ATOM     20  N   UNL     1       4.920   2.695  19.731  0.00  0.00    +0.000 NA
ATOM     21  O   UNL     1       3.897   2.301  20.555  0.00  0.00    +0.000 OA
ATOM     22  C   UNL     1       2.902   3.216  20.518  0.00  0.00    +0.000 A 
ATOM     23  C   UNL     1       1.744   2.938  21.390  0.00  0.00    +0.000 C 
BRANCH  19  24
ATOM     24  C   UNL     1       5.497   4.587  18.299  0.00  0.00    +0.000 A 
ATOM     25  C   UNL     1       6.577   5.321  18.813  0.00  0.00    +0.000 A 
ATOM     26  F   UNL     1       6.758   5.433  20.138  0.00  0.00    +0.000 F 
ATOM     27  C   UNL     1       7.475   6.006  17.990  0.00  0.00    +0.000 A 
ATOM     28  C   UNL     1       7.290   6.015  16.614  0.00  0.00    +0.000 A 
ATOM     29  C   UNL     1       6.211   5.325  16.071  0.00  0.00    +0.000 A 
ATOM     30  C   UNL     1       5.328   4.604  16.897  0.00  0.00    +0.000 A 
ATOM     31 CL   UNL     1       4.073   3.745  16.064  0.00  0.00    +0.000 Cl
ENDBRANCH  19  24
ENDBRANCH   2  18
TORSDOF 3
ENDMDL
MODEL 4
REMARK VINA RESULT:      -8.8      1.648      2.339
REMARK  Name = 
REMARK  6 active torsions:
REMARK  status: ('A' for Active; 'I' for Inactive)
REMARK    1  A    between atoms: C_1  and  C_2
REMARK    2  A    between atoms: C_4  and  C_5
REMARK    3  A    between atoms: C_10  and  N_11
REMARK    4  A    between atoms: C_12  and  C_14
REMARK    5  A    between atoms: C_15  and  C_16
REMARK    6  A    between atoms: C_26  and  C_27
REMARK                            x       y       z     vdW  Elec       q    Type
REMARK                         _______ _______ _______ _____ _____    ______ ____
ROOT
ATOM      1  N   UNL     1       2.302   6.270  20.565  0.00  0.00    +0.000 N 
ATOM      2  C   UNL     1       2.446   5.421  19.477  0.00  0.00    +0.000 C 
ATOM      3  O   UNL     1       1.912   5.563  18.385  0.00  0.00    +0.000 OA
ATOM      4  H   UNL     1       2.683   5.947  21.446  0.00  0.00    +0.000 HD
ENDROOT
BRANCH   1  14
ATOM      5  C   UNL     1      -2.831  13.328  22.064  0.00  0.00    +0.000 C 
ATOM      6  C   UNL     1      -1.795  12.702  21.208  0.00  0.00    +0.000 A 
ATOM      7  C   UNL     1      -1.154  13.243  20.081  0.00  0.00    +0.000 A 
ATOM      8  C   UNL     1      -0.288  12.263  19.641  0.00  0.00    +0.000 A 
ATOM      9  C   UNL     1       0.626  12.278  18.471  0.00  0.00    +0.000 C 
ATOM     10  N   UNL     1      -0.424  11.196  20.522  0.00  0.00    +0.000 N 
ATOM     11  C   UNL     1       0.270   9.937  20.527  0.00  0.00    +0.000 A 
ATOM     12  C   UNL     1      -0.063   9.004  21.509  0.00  0.00    +0.000 A 
ATOM     13  C   UNL     1       0.597   7.773  21.542  0.00  0.00    +0.000 A 
ATOM     14  C   UNL     1       1.584   7.487  20.608  0.00  0.00    +0.000 A 
ATOM     15  C   UNL     1       1.848   8.475  19.658  0.00  0.00    +0.000 A 
ATOM     16  N   UNL     1       1.224   9.680  19.592  0.00  0.00    +0.000 NA
ATOM     17  N   UNL     1      -1.363  11.469  21.477  0.00  0.00    +0.000 NA
ENDBRANCH   1  14
BRANCH   2  18
ATOM     18  C   UNL     1       3.300   4.275  19.732  0.00  0.00    +0.000 A 
ATOM     19  C   UNL     1       4.637   4.002  19.274  0.00  0.00    +0.000 A 
ATOM     20  N   UNL     1       5.040   2.816  19.761  0.00  0.00    +0.000 NA
ATOM     21  O   UNL     1       4.046   2.355  20.584  0.00  0.00    +0.000 OA
ATOM     22  C   UNL     1       3.005   3.219  20.572  0.00  0.00    +0.000 A 
ATOM     23  C   UNL     1       1.870   2.866  21.448  0.00  0.00    +0.000 C 
BRANCH  19  24
ATOM     24  C   UNL     1       5.509   4.761  18.361  0.00  0.00    +0.000 A 
ATOM     25  C   UNL     1       6.605   5.471  18.874  0.00  0.00    +0.000 A 
ATOM     26  F   UNL     1       6.842   5.502  20.194  0.00  0.00    +0.000 F 
ATOM     27  C   UNL     1       7.464   6.213  18.057  0.00  0.00    +0.000 A 
ATOM     28  C   UNL     1       7.220   6.305  16.693  0.00  0.00    +0.000 A 
ATOM     29  C   UNL     1       6.122   5.641  16.154  0.00  0.00    +0.000 A 
ATOM     30  C   UNL     1       5.280   4.863  16.971  0.00  0.00    +0.000 A 
ATOM     31 CL   UNL     1       3.995   4.047  16.141  0.00  0.00    +0.000 Cl
ENDBRANCH  19  24
ENDBRANCH   2  18
TORSDOF 3
ENDMDL
MODEL 5
REMARK VINA RESULT:      -8.8      2.107      2.808
REMARK  Name = 
REMARK  6 active torsions:
REMARK  status: ('A' for Active; 'I' for Inactive)
REMARK    1  A    between atoms: C_1  and  C_2
REMARK    2  A    between atoms: C_4  and  C_5
REMARK    3  A    between atoms: C_10  and  N_11
REMARK    4  A    between atoms: C_12  and  C_14
REMARK    5  A    between atoms: C_15  and  C_16
REMARK    6  A    between atoms: C_26  and  C_27
REMARK                            x       y       z     vdW  Elec       q    Type
REMARK                         _______ _______ _______ _____ _____    ______ ____
ROOT
ATOM      1  N   UNL     1       2.415   7.043  18.641  0.00  0.00    +0.000 N 
ATOM      2  C   UNL     1       2.650   5.845  19.299  0.00  0.00    +0.000 C 
ATOM      3  O   UNL     1       2.475   5.639  20.493  0.00  0.00    +0.000 OA
ATOM      4  H   UNL     1       2.747   7.110  17.687  0.00  0.00    +0.000 HD
ENDROOT
BRANCH   1  14
ATOM      5  C   UNL     1      -1.052  13.680  23.368  0.00  0.00    +0.000 C 
ATOM      6  C   UNL     1      -0.566  13.215  22.047  0.00  0.00    +0.000 A 
ATOM      7  C   UNL     1      -0.493  13.935  20.843  0.00  0.00    +0.000 A 
ATOM      8  C   UNL     1       0.016  13.052  19.913  0.00  0.00    +0.000 A 
ATOM      9  C   UNL     1       0.283  13.265  18.469  0.00  0.00    +0.000 C 
ATOM     10  N   UNL     1       0.248  11.860  20.590  0.00  0.00    +0.000 N 
ATOM     11  C   UNL     1       0.797  10.630  20.089  0.00  0.00    +0.000 A 
ATOM     12  C   UNL     1       0.907   9.551  20.965  0.00  0.00    +0.000 A 
ATOM     13  C   UNL     1       1.441   8.343  20.508  0.00  0.00    +0.000 A 
ATOM     14  C   UNL     1       1.865   8.224  19.191  0.00  0.00    +0.000 A 
ATOM     15  C   UNL     1       1.711   9.352  18.382  0.00  0.00    +0.000 A 
ATOM     16  N   UNL     1       1.192  10.539  18.791  0.00  0.00    +0.000 NA
ATOM     17  N   UNL     1      -0.126  11.964  21.901  0.00  0.00    +0.000 NA
ENDBRANCH   1  14
BRANCH   2  18
ATOM     18  C   UNL     1       3.167   4.793  18.443  0.00  0.00    +0.000 A 
ATOM     19  C   UNL     1       4.478   4.632  17.869  0.00  0.00    +0.000 A 
ATOM     20  N   UNL     1       4.510   3.503  17.142  0.00  0.00    +0.000 NA
ATOM     21  O   UNL     1       3.296   2.886  17.295  0.00  0.00    +0.000 OA
ATOM     22  C   UNL     1       2.490   3.648  18.069  0.00  0.00    +0.000 A 
ATOM     23  C   UNL     1       1.154   3.086  18.350  0.00  0.00    +0.000 C 
BRANCH  19  24
ATOM     24  C   UNL     1       5.657   5.514  17.918  0.00  0.00    +0.000 A 
ATOM     25  C   UNL     1       6.576   5.391  18.972  0.00  0.00    +0.000 A 
ATOM     26  F   UNL     1       6.367   4.509  19.961  0.00  0.00    +0.000 F 
ATOM     27  C   UNL     1       7.710   6.202  19.074  0.00  0.00    +0.000 A 
ATOM     28  C   UNL     1       7.935   7.204  18.139  0.00  0.00    +0.000 A 
ATOM     29  C   UNL     1       7.028   7.376  17.098  0.00  0.00    +0.000 A 
ATOM     30  C   UNL     1       5.907   6.534  16.974  0.00  0.00    +0.000 A 
ATOM     31 CL   UNL     1       4.907   6.835  15.590  0.00  0.00    +0.000 Cl
ENDBRANCH  19  24
ENDBRANCH   2  18
TORSDOF 3
ENDMDL
MODEL 6
REMARK VINA RESULT:      -8.7      2.196      3.842
REMARK  Name = 
REMARK  6 active torsions:
REMARK  status: ('A' for Active; 'I' for Inactive)
REMARK    1  A    between atoms: C_1  and  C_2
REMARK    2  A    between atoms: C_4  and  C_5
REMARK    3  A    between atoms: C_10  and  N_11
REMARK    4  A    between atoms: C_12  and  C_14
REMARK    5  A    between atoms: C_15  and  C_16
REMARK    6  A    between atoms: C_26  and  C_27
REMARK                            x       y       z     vdW  Elec       q    Type
REMARK                         _______ _______ _______ _____ _____    ______ ____
ROOT
ATOM      1  N   UNL     1       2.833   6.602  18.018  0.00  0.00    +0.000 N 
ATOM      2  C   UNL     1       4.175   6.413  17.723  0.00  0.00    +0.000 C 
ATOM      3  O   UNL     1       5.049   7.267  17.792  0.00  0.00    +0.000 OA
ATOM      4  H   UNL     1       2.204   5.848  17.772  0.00  0.00    +0.000 HD
ENDROOT
BRANCH   1  14
ATOM      5  C   UNL     1      -0.743  14.507  19.792  0.00  0.00    +0.000 C 
ATOM      6  C   UNL     1      -0.400  13.155  20.294  0.00  0.00    +0.000 A 
ATOM      7  C   UNL     1      -0.646  12.610  21.566  0.00  0.00    +0.000 A 
ATOM      8  C   UNL     1      -0.125  11.333  21.530  0.00  0.00    +0.000 A 
ATOM      9  C   UNL     1      -0.083  10.310  22.604  0.00  0.00    +0.000 C 
ATOM     10  N   UNL     1       0.386  11.154  20.250  0.00  0.00    +0.000 N 
ATOM     11  C   UNL     1       1.015   9.992  19.684  0.00  0.00    +0.000 A 
ATOM     12  C   UNL     1       1.476  10.065  18.371  0.00  0.00    +0.000 A 
ATOM     13  C   UNL     1       2.088   8.951  17.791  0.00  0.00    +0.000 A 
ATOM     14  C   UNL     1       2.227   7.777  18.520  0.00  0.00    +0.000 A 
ATOM     15  C   UNL     1       1.744   7.795  19.830  0.00  0.00    +0.000 A 
ATOM     16  N   UNL     1       1.148   8.860  20.426  0.00  0.00    +0.000 NA
ATOM     17  N   UNL     1       0.225  12.285  19.499  0.00  0.00    +0.000 NA
ENDBRANCH   1  14
BRANCH   2  18
ATOM     18  C   UNL     1       4.499   5.069  17.281  0.00  0.00    +0.000 A 
ATOM     19  C   UNL     1       4.009   3.800  17.752  0.00  0.00    +0.000 A 
ATOM     20  N   UNL     1       4.584   2.811  17.045  0.00  0.00    +0.000 NA
ATOM     21  O   UNL     1       5.360   3.399  16.080  0.00  0.00    +0.000 OA
ATOM     22  C   UNL     1       5.315   4.744  16.214  0.00  0.00    +0.000 A 
ATOM     23  C   UNL     1       6.080   5.513  15.212  0.00  0.00    +0.000 C 
BRANCH  19  24
ATOM     24  C   UNL     1       3.095   3.480  18.862  0.00  0.00    +0.000 A 
ATOM     25  C   UNL     1       3.614   2.997  20.073  0.00  0.00    +0.000 A 
ATOM     26  F   UNL     1       4.930   2.781  20.216  0.00  0.00    +0.000 F 
ATOM     27  C   UNL     1       2.796   2.672  21.160  0.00  0.00    +0.000 A 
ATOM     28  C   UNL     1       1.415   2.778  21.047  0.00  0.00    +0.000 A 
ATOM     29  C   UNL     1       0.865   3.222  19.850  0.00  0.00    +0.000 A 
ATOM     30  C   UNL     1       1.690   3.585  18.769  0.00  0.00    +0.000 A 
ATOM     31 CL   UNL     1       0.856   4.179  17.370  0.00  0.00    +0.000 Cl
ENDBRANCH  19  24
ENDBRANCH   2  18
TORSDOF 3
ENDMDL
MODEL 7
REMARK VINA RESULT:      -8.6      1.885      3.604
REMARK  Name = 
REMARK  6 active torsions:
REMARK  status: ('A' for Active; 'I' for Inactive)
REMARK    1  A    between atoms: C_1  and  C_2
REMARK    2  A    between atoms: C_4  and  C_5
REMARK    3  A    between atoms: C_10  and  N_11
REMARK    4  A    between atoms: C_12  and  C_14
REMARK    5  A    between atoms: C_15  and  C_16
REMARK    6  A    between atoms: C_26  and  C_27
REMARK                            x       y       z     vdW  Elec       q    Type
REMARK                         _______ _______ _______ _____ _____    ______ ____
ROOT
ATOM      1  N   UNL     1       2.695   6.605  18.005  0.00  0.00    +0.000 N 
ATOM      2  C   UNL     1       4.034   6.374  17.724  0.00  0.00    +0.000 C 
ATOM      3  O   UNL     1       4.937   7.195  17.828  0.00  0.00    +0.000 OA
ATOM      4  H   UNL     1       2.043   5.880  17.731  0.00  0.00    +0.000 HD
ENDROOT
BRANCH   1  14
ATOM      5  C   UNL     1      -0.654  14.574  19.924  0.00  0.00    +0.000 C 
ATOM      6  C   UNL     1      -0.345  13.206  20.404  0.00  0.00    +0.000 A 
ATOM      7  C   UNL     1      -0.599  12.648  21.669  0.00  0.00    +0.000 A 
ATOM      8  C   UNL     1      -0.112  11.359  21.610  0.00  0.00    +0.000 A 
ATOM      9  C   UNL     1      -0.091  10.317  22.667  0.00  0.00    +0.000 C 
ATOM     10  N   UNL     1       0.386  11.186  20.323  0.00  0.00    +0.000 N 
ATOM     11  C   UNL     1       0.980  10.016  19.735  0.00  0.00    +0.000 A 
ATOM     12  C   UNL     1       1.435  10.098  18.420  0.00  0.00    +0.000 A 
ATOM     13  C   UNL     1       2.013   8.976  17.820  0.00  0.00    +0.000 A 
ATOM     14  C   UNL     1       2.124   7.787  18.529  0.00  0.00    +0.000 A 
ATOM     15  C   UNL     1       1.650   7.798  19.842  0.00  0.00    +0.000 A 
ATOM     16  N   UNL     1       1.087   8.870  20.459  0.00  0.00    +0.000 NA
ATOM     17  N   UNL     1       0.251  12.332  19.591  0.00  0.00    +0.000 NA
ENDBRANCH   1  14
BRANCH   2  18
ATOM     18  C   UNL     1       4.316   5.032  17.251  0.00  0.00    +0.000 A 
ATOM     19  C   UNL     1       3.817   3.765  17.720  0.00  0.00    +0.000 A 
ATOM     20  N   UNL     1       4.348   2.777  16.980  0.00  0.00    +0.000 NA
ATOM     21  O   UNL     1       5.102   3.364  15.997  0.00  0.00    +0.000 OA
ATOM     22  C   UNL     1       5.089   4.708  16.152  0.00  0.00    +0.000 A 
ATOM     23  C   UNL     1       5.835   5.477  15.136  0.00  0.00    +0.000 C 
BRANCH  19  24
ATOM     24  C   UNL     1       2.935   3.446  18.855  0.00  0.00    +0.000 A 
ATOM     25  C   UNL     1       1.559   3.706  18.763  0.00  0.00    +0.000 A 
ATOM     26  F   UNL     1       1.045   4.284  17.666  0.00  0.00    +0.000 F 
ATOM     27  C   UNL     1       0.674   3.430  19.809  0.00  0.00    +0.000 A 
ATOM     28  C   UNL     1       1.153   2.923  21.010  0.00  0.00    +0.000 A 
ATOM     29  C   UNL     1       2.516   2.684  21.149  0.00  0.00    +0.000 A 
ATOM     30  C   UNL     1       3.402   2.927  20.082  0.00  0.00    +0.000 A 
ATOM     31 CL   UNL     1       5.059   2.518  20.391  0.00  0.00    +0.000 Cl
ENDBRANCH  19  24
ENDBRANCH   2  18
TORSDOF 3
ENDMDL
MODEL 8
REMARK VINA RESULT:      -8.6      2.031      2.329
REMARK  Name = 
REMARK  6 active torsions:
REMARK  status: ('A' for Active; 'I' for Inactive)
REMARK    1  A    between atoms: C_1  and  C_2
REMARK    2  A    between atoms: C_4  and  C_5
REMARK    3  A    between atoms: C_10  and  N_11
REMARK    4  A    between atoms: C_12  and  C_14
REMARK    5  A    between atoms: C_15  and  C_16
REMARK    6  A    between atoms: C_26  and  C_27
REMARK                            x       y       z     vdW  Elec       q    Type
REMARK                         _______ _______ _______ _____ _____    ______ ____
ROOT
ATOM      1  N   UNL     1       2.445   7.203  18.306  0.00  0.00    +0.000 N 
ATOM      2  C   UNL     1       2.605   6.061  19.078  0.00  0.00    +0.000 C 
ATOM      3  O   UNL     1       2.355   5.967  20.273  0.00  0.00    +0.000 OA
ATOM      4  H   UNL     1       2.833   7.175  17.372  0.00  0.00    +0.000 HD
ENDROOT
BRANCH   1  14
ATOM      5  C   UNL     1      -0.537  15.450  19.529  0.00  0.00    +0.000 C 
ATOM      6  C   UNL     1      -0.385  14.086  20.089  0.00  0.00    +0.000 A 
ATOM      7  C   UNL     1      -0.826  13.601  21.333  0.00  0.00    +0.000 A 
ATOM      8  C   UNL     1      -0.428  12.281  21.377  0.00  0.00    +0.000 A 
ATOM      9  C   UNL     1      -0.607  11.286  22.465  0.00  0.00    +0.000 C 
ATOM     10  N   UNL     1       0.206  12.021  20.168  0.00  0.00    +0.000 N 
ATOM     11  C   UNL     1       0.781  10.790  19.697  0.00  0.00    +0.000 A 
ATOM     12  C   UNL     1       1.394  10.786  18.445  0.00  0.00    +0.000 A 
ATOM     13  C   UNL     1       1.959   9.604  17.958  0.00  0.00    +0.000 A 
ATOM     14  C   UNL     1       1.901   8.441  18.716  0.00  0.00    +0.000 A 
ATOM     15  C   UNL     1       1.275   8.539  19.960  0.00  0.00    +0.000 A 
ATOM     16  N   UNL     1       0.720   9.671  20.467  0.00  0.00    +0.000 NA
ATOM     17  N   UNL     1       0.240  13.141  19.385  0.00  0.00    +0.000 NA
ENDBRANCH   1  14
BRANCH   2  18
ATOM     18  C   UNL     1       3.139   4.925  18.350  0.00  0.00    +0.000 A 
ATOM     19  C   UNL     1       4.474   4.684  17.867  0.00  0.00    +0.000 A 
ATOM     20  N   UNL     1       4.513   3.493  17.247  0.00  0.00    +0.000 NA
ATOM     21  O   UNL     1       3.276   2.919  17.387  0.00  0.00    +0.000 OA
ATOM     22  C   UNL     1       2.451   3.767  18.043  0.00  0.00    +0.000 A 
ATOM     23  C   UNL     1       1.087   3.262  18.299  0.00  0.00    +0.000 C 
BRANCH  19  24
ATOM     24  C   UNL     1       5.672   5.540  17.902  0.00  0.00    +0.000 A 
ATOM     25  C   UNL     1       6.584   5.418  18.962  0.00  0.00    +0.000 A 
ATOM     26  F   UNL     1       6.352   4.561  19.968  0.00  0.00    +0.000 F 
ATOM     27  C   UNL     1       7.735   6.206  19.052  0.00  0.00    +0.000 A 
ATOM     28  C   UNL     1       7.986   7.183  18.097  0.00  0.00    +0.000 A 
ATOM     29  C   UNL     1       7.086   7.354  17.050  0.00  0.00    +0.000 A 
ATOM     30  C   UNL     1       5.947   6.535  16.939  0.00  0.00    +0.000 A 
ATOM     31 CL   UNL     1       4.959   6.830  15.545  0.00  0.00    +0.000 Cl
ENDBRANCH  19  24
ENDBRANCH   2  18
TORSDOF 3
ENDMDL
MODEL 9
REMARK VINA RESULT:      -8.4      1.724      1.955
REMARK  Name = 
REMARK  6 active torsions:
REMARK  status: ('A' for Active; 'I' for Inactive)
REMARK    1  A    between atoms: C_1  and  C_2
REMARK    2  A    between atoms: C_4  and  C_5
REMARK    3  A    between atoms: C_10  and  N_11
REMARK    4  A    between atoms: C_12  and  C_14
REMARK    5  A    between atoms: C_15  and  C_16
REMARK    6  A    between atoms: C_26  and  C_27
REMARK                            x       y       z     vdW  Elec       q    Type
REMARK                         _______ _______ _______ _____ _____    ______ ____
ROOT
ATOM      1  N   UNL     1       2.598   6.028  19.016  0.00  0.00    +0.000 N 
ATOM      2  C   UNL     1       2.139   5.066  18.129  0.00  0.00    +0.000 C 
ATOM      3  O   UNL     1       1.169   5.181  17.390  0.00  0.00    +0.000 OA
ATOM      4  H   UNL     1       3.317   5.737  19.668  0.00  0.00    +0.000 HD
ENDROOT
BRANCH   1  14
ATOM      5  C   UNL     1      -0.122  14.449  18.689  0.00  0.00    +0.000 C 
ATOM      6  C   UNL     1      -0.003  13.210  19.494  0.00  0.00    +0.000 A 
ATOM      7  C   UNL     1      -0.443  12.980  20.809  0.00  0.00    +0.000 A 
ATOM      8  C   UNL     1      -0.084  11.680  21.098  0.00  0.00    +0.000 A 
ATOM      9  C   UNL     1      -0.279  10.913  22.354  0.00  0.00    +0.000 C 
ATOM     10  N   UNL     1       0.527  11.178  19.955  0.00  0.00    +0.000 N 
ATOM     11  C   UNL     1       1.059   9.864  19.720  0.00  0.00    +0.000 A 
ATOM     12  C   UNL     1       1.656   9.605  18.487  0.00  0.00    +0.000 A 
ATOM     13  C   UNL     1       2.180   8.335  18.227  0.00  0.00    +0.000 A 
ATOM     14  C   UNL     1       2.096   7.338  19.190  0.00  0.00    +0.000 A 
ATOM     15  C   UNL     1       1.489   7.687  20.398  0.00  0.00    +0.000 A 
ATOM     16  N   UNL     1       0.974   8.911  20.687  0.00  0.00    +0.000 NA
ATOM     17  N   UNL     1       0.585  12.130  18.976  0.00  0.00    +0.000 NA
ENDBRANCH   1  14
BRANCH   2  18
ATOM     18  C   UNL     1       2.905   3.834  18.144  0.00  0.00    +0.000 A 
ATOM     19  C   UNL     1       4.318   3.625  17.960  0.00  0.00    +0.000 A 
ATOM     20  N   UNL     1       4.590   2.312  18.058  0.00  0.00    +0.000 NA
ATOM     21  O   UNL     1       3.419   1.678  18.384  0.00  0.00    +0.000 OA
ATOM     22  C   UNL     1       2.410   2.578  18.437  0.00  0.00    +0.000 A 
ATOM     23  C   UNL     1       1.089   2.037  18.815  0.00  0.00    +0.000 C 
BRANCH  19  24
ATOM     24  C   UNL     1       5.391   4.579  17.632  0.00  0.00    +0.000 A 
ATOM     25  C   UNL     1       6.020   5.299  18.660  0.00  0.00    +0.000 A 
ATOM     26  F   UNL     1       5.623   5.160  19.934  0.00  0.00    +0.000 F 
ATOM     27  C   UNL     1       7.040   6.222  18.410  0.00  0.00    +0.000 A 
ATOM     28  C   UNL     1       7.433   6.489  17.105  0.00  0.00    +0.000 A 
ATOM     29  C   UNL     1       6.808   5.818  16.058  0.00  0.00    +0.000 A 
ATOM     30  C   UNL     1       5.807   4.861  16.313  0.00  0.00    +0.000 A 
ATOM     31 CL   UNL     1       5.172   4.066  14.908  0.00  0.00    +0.000 Cl
ENDBRANCH  19  24
ENDBRANCH   2  18
TORSDOF 3
ENDMDL
