MODEL 1
REMARK VINA RESULT:      -8.6      0.000      0.000
REMARK  Name = 
REMARK  7 active torsions:
REMARK  status: ('A' for Active; 'I' for Inactive)
REMARK    1  A    between atoms: C_1  and  N_2
REMARK    2  A    between atoms: C_6  and  C_7
REMARK    3  A    between atoms: C_7  and  O_8
REMARK    4  A    between atoms: O_8  and  C_9
REMARK    5  A    between atoms: N_11  and  C_12
REMARK    6  A    between atoms: C_16  and  C_17
REMARK    7  A    between atoms: N_23  and  C_24
REMARK                            x       y       z     vdW  Elec       q    Type
REMARK                         _______ _______ _______ _____ _____    ______ ____
ROOT
ATOM      1  C   UNL     1       1.541   7.045  20.739  0.00  0.00    +0.000 A 
ATOM      2  C   UNL     1       2.322   7.455  19.652  0.00  0.00    +0.000 A 
ATOM      3  C   UNL     1       2.970   6.485  18.899  0.00  0.00    +0.000 A 
ATOM      4  C   UNL     1       2.869   5.126  19.177  0.00  0.00    +0.000 A 
ATOM      5  C   UNL     1       2.118   4.683  20.256  0.00  0.00    +0.000 A 
ATOM      6  C   UNL     1       1.456   5.663  21.022  0.00  0.00    +0.000 A 
ATOM      7  C   UNL     1       3.642   4.345  18.167  0.00  0.00    +0.000 C 
ATOM      8  N   UNL     1       4.234   5.370  17.321  0.00  0.00    +0.000 N 
ATOM      9  C   UNL     1       3.849   6.652  17.726  0.00  0.00    +0.000 C 
ATOM     10  O   UNL     1       4.128   7.750  17.281  0.00  0.00    +0.000 OA
ENDROOT
BRANCH   8  11
ATOM     11  C   UNL     1       5.121   5.028  16.260  0.00  0.00    +0.000 A 
ATOM     12  C   UNL     1       4.677   4.369  15.107  0.00  0.00    +0.000 A 
ATOM     13  C   UNL     1       5.557   4.081  14.054  0.00  0.00    +0.000 A 
ATOM     14  C   UNL     1       6.899   4.435  14.139  0.00  0.00    +0.000 A 
ATOM     15  C   UNL     1       7.367   5.071  15.282  0.00  0.00    +0.000 A 
ATOM     16  C   UNL     1       6.486   5.367  16.329  0.00  0.00    +0.000 A 
ENDBRANCH   8  11
BRANCH   1  19
ATOM     17  C   UNL     1       0.032   9.840  21.861  0.00  0.00    +0.000 C 
ATOM     18  C   UNL     1      -0.502   8.461  21.431  0.00  0.00    +0.000 C 
ATOM     19  N   UNL     1       0.835   7.963  21.537  0.00  0.00    +0.000 N 
ATOM     20  C   UNL     1       1.311   9.096  22.270  0.00  0.00    +0.000 C 
BRANCH  17  21
ATOM     21  O   UNL     1      -0.704  10.540  22.893  0.00  0.00    +0.000 OA
BRANCH  21  22
ATOM     22  C   UNL     1      -0.966  11.918  22.624  0.00  0.00    +0.000 C 
BRANCH  22  28
ATOM     23  C   UNL     1      -2.781  12.975  20.276  0.00  0.00    +0.000 C 
ATOM     24  N   UNL     1      -3.199  12.633  21.609  0.00  0.00    +0.000 N 
ATOM     25  C   UNL     1      -4.467  12.743  22.091  0.00  0.00    +0.000 A 
ATOM     26  N   UNL     1      -4.493  12.370  23.347  0.00  0.00    +0.000 NA
ATOM     27  N   UNL     1      -3.216  12.002  23.697  0.00  0.00    +0.000 NA
ATOM     28  C   UNL     1      -2.434  12.155  22.643  0.00  0.00    +0.000 A 
ENDBRANCH  22  28
ENDBRANCH  21  22
ENDBRANCH  17  21
ENDBRANCH   1  19
BRANCH   5  29
ATOM     29  C   UNL     1       1.996   3.235  20.638  0.00  0.00    +0.000 C 
ATOM     30  F   UNL     1       1.825   2.401  19.574  0.00  0.00    +0.000 F 
ATOM     31  F   UNL     1       3.100   2.780  21.291  0.00  0.00    +0.000 F 
ATOM     32  F   UNL     1       0.944   3.002  21.466  0.00  0.00    +0.000 F 
ENDBRANCH   5  29
TORSDOF 6
ENDMDL
MODEL 2
REMARK VINA RESULT:      -8.6      0.300      1.038
REMARK  Name = 
REMARK  7 active torsions:
REMARK  status: ('A' for Active; 'I' for Inactive)
REMARK    1  A    between atoms: C_1  and  N_2
REMARK    2  A    between atoms: C_6  and  C_7
REMARK    3  A    between atoms: C_7  and  O_8
REMARK    4  A    between atoms: O_8  and  C_9
REMARK    5  A    between atoms: N_11  and  C_12
REMARK    6  A    between atoms: C_16  and  C_17
REMARK    7  A    between atoms: N_23  and  C_24
REMARK                            x       y       z     vdW  Elec       q    Type
REMARK                         _______ _______ _______ _____ _____    ______ ____
ROOT
ATOM      1  C   UNL     1       1.473   7.091  20.652  0.00  0.00    +0.000 A 
ATOM      2  C   UNL     1       2.335   7.508  19.631  0.00  0.00    +0.000 A 
ATOM      3  C   UNL     1       2.944   6.540  18.843  0.00  0.00    +0.000 A 
ATOM      4  C   UNL     1       2.726   5.178  19.022  0.00  0.00    +0.000 A 
ATOM      5  C   UNL     1       1.892   4.728  20.034  0.00  0.00    +0.000 A 
ATOM      6  C   UNL     1       1.269   5.705  20.836  0.00  0.00    +0.000 A 
ATOM      7  C   UNL     1       3.486   4.405  17.996  0.00  0.00    +0.000 C 
ATOM      8  N   UNL     1       4.195   5.432  17.249  0.00  0.00    +0.000 N 
ATOM      9  C   UNL     1       3.889   6.712  17.724  0.00  0.00    +0.000 C 
ATOM     10  O   UNL     1       4.273   7.811  17.367  0.00  0.00    +0.000 OA
ENDROOT
BRANCH   8  11
ATOM     11  C   UNL     1       5.105   5.091  16.207  0.00  0.00    +0.000 A 
ATOM     12  C   UNL     1       6.459   5.439  16.263  0.00  0.00    +0.000 A 
ATOM     13  C   UNL     1       7.348   5.056  15.248  0.00  0.00    +0.000 A 
ATOM     14  C   UNL     1       6.896   4.328  14.152  0.00  0.00    +0.000 A 
ATOM     15  C   UNL     1       5.552   3.989  14.065  0.00  0.00    +0.000 A 
ATOM     16  C   UNL     1       4.667   4.364  15.083  0.00  0.00    +0.000 A 
ENDBRANCH   8  11
BRANCH   1  19
ATOM     17  C   UNL     1       0.133   9.920  21.897  0.00  0.00    +0.000 C 
ATOM     18  C   UNL     1      -0.485   8.622  21.345  0.00  0.00    +0.000 C 
ATOM     19  N   UNL     1       0.800   8.009  21.479  0.00  0.00    +0.000 N 
ATOM     20  C   UNL     1       1.326   9.047  22.313  0.00  0.00    +0.000 C 
BRANCH  17  21
ATOM     21  O   UNL     1      -0.599  10.608  22.940  0.00  0.00    +0.000 OA
BRANCH  21  22
ATOM     22  C   UNL     1      -0.892  11.980  22.674  0.00  0.00    +0.000 C 
BRANCH  22  28
ATOM     23  C   UNL     1      -2.622  13.065  20.276  0.00  0.00    +0.000 C 
ATOM     24  N   UNL     1      -3.094  12.662  21.573  0.00  0.00    +0.000 N 
ATOM     25  C   UNL     1      -4.387  12.716  21.995  0.00  0.00    +0.000 A 
ATOM     26  N   UNL     1      -4.463  12.296  23.234  0.00  0.00    +0.000 NA
ATOM     27  N   UNL     1      -3.194  11.956  23.635  0.00  0.00    +0.000 NA
ATOM     28  C   UNL     1      -2.366  12.171  22.628  0.00  0.00    +0.000 A 
ENDBRANCH  22  28
ENDBRANCH  21  22
ENDBRANCH  17  21
ENDBRANCH   1  19
BRANCH   5  29
ATOM     29  C   UNL     1       1.640   3.272  20.310  0.00  0.00    +0.000 C 
ATOM     30  F   UNL     1       2.776   2.523  20.374  0.00  0.00    +0.000 F 
ATOM     31  F   UNL     1       1.001   3.076  21.495  0.00  0.00    +0.000 F 
ATOM     32  F   UNL     1       0.863   2.688  19.360  0.00  0.00    +0.000 F 
ENDBRANCH   5  29
TORSDOF 6
ENDMDL
MODEL 3
REMARK VINA RESULT:      -8.5      0.865      1.236
REMARK  Name = 
REMARK  7 active torsions:
REMARK  status: ('A' for Active; 'I' for Inactive)
REMARK    1  A    between atoms: C_1  and  N_2
REMARK    2  A    between atoms: C_6  and  C_7
REMARK    3  A    between atoms: C_7  and  O_8
REMARK    4  A    between atoms: O_8  and  C_9
REMARK    5  A    between atoms: N_11  and  C_12
REMARK    6  A    between atoms: C_16  and  C_17
REMARK    7  A    between atoms: N_23  and  C_24
REMARK                            x       y       z     vdW  Elec       q    Type
REMARK                         _______ _______ _______ _____ _____    ______ ____
ROOT
ATOM      1  C   UNL     1       1.528   7.054  20.666  0.00  0.00    +0.000 A 
ATOM      2  C   UNL     1       2.365   7.454  19.617  0.00  0.00    +0.000 A 
ATOM      3  C   UNL     1       2.981   6.472  18.852  0.00  0.00    +0.000 A 
ATOM      4  C   UNL     1       2.795   5.113  19.081  0.00  0.00    +0.000 A 
ATOM      5  C   UNL     1       1.987   4.680  20.122  0.00  0.00    +0.000 A 
ATOM      6  C   UNL     1       1.357   5.671  20.900  0.00  0.00    +0.000 A 
ATOM      7  C   UNL     1       3.554   4.321  18.069  0.00  0.00    +0.000 C 
ATOM      8  N   UNL     1       4.229   5.336  17.275  0.00  0.00    +0.000 N 
ATOM      9  C   UNL     1       3.904   6.625  17.711  0.00  0.00    +0.000 C 
ATOM     10  O   UNL     1       4.258   7.719  17.312  0.00  0.00    +0.000 OA
ENDROOT
BRANCH   8  11
ATOM     11  C   UNL     1       5.128   4.978  16.230  0.00  0.00    +0.000 A 
ATOM     12  C   UNL     1       4.695   4.318  15.074  0.00  0.00    +0.000 A 
ATOM     13  C   UNL     1       5.588   4.013  14.037  0.00  0.00    +0.000 A 
ATOM     14  C   UNL     1       6.933   4.352  14.141  0.00  0.00    +0.000 A 
ATOM     15  C   UNL     1       7.390   4.989  15.287  0.00  0.00    +0.000 A 
ATOM     16  C   UNL     1       6.496   5.301  16.319  0.00  0.00    +0.000 A 
ENDBRANCH   8  11
BRANCH   1  19
ATOM     17  C   UNL     1       0.086   9.877  21.806  0.00  0.00    +0.000 C 
ATOM     18  C   UNL     1      -0.479   8.507  21.385  0.00  0.00    +0.000 C 
ATOM     19  N   UNL     1       0.850   7.986  21.473  0.00  0.00    +0.000 N 
ATOM     20  C   UNL     1       1.357   9.111  22.198  0.00  0.00    +0.000 C 
BRANCH  17  21
ATOM     21  O   UNL     1      -0.622  10.592  22.847  0.00  0.00    +0.000 OA
BRANCH  21  22
ATOM     22  C   UNL     1      -0.856  11.976  22.585  0.00  0.00    +0.000 C 
BRANCH  22  28
ATOM     23  C   UNL     1      -1.548  14.824  23.740  0.00  0.00    +0.000 C 
ATOM     24  N   UNL     1      -2.377  13.650  23.774  0.00  0.00    +0.000 N 
ATOM     25  C   UNL     1      -3.607  13.568  24.350  0.00  0.00    +0.000 A 
ATOM     26  N   UNL     1      -4.073  12.350  24.220  0.00  0.00    +0.000 NA
ATOM     27  N   UNL     1      -3.131  11.616  23.540  0.00  0.00    +0.000 NA
ATOM     28  C   UNL     1      -2.108  12.404  23.264  0.00  0.00    +0.000 A 
ENDBRANCH  22  28
ENDBRANCH  21  22
ENDBRANCH  17  21
ENDBRANCH   1  19
BRANCH   5  29
ATOM     29  C   UNL     1       1.771   3.230  20.451  0.00  0.00    +0.000 C 
ATOM     30  F   UNL     1       1.003   3.028  21.557  0.00  0.00    +0.000 F 
ATOM     31  F   UNL     1       1.150   2.560  19.442  0.00  0.00    +0.000 F 
ATOM     32  F   UNL     1       2.937   2.569  20.682  0.00  0.00    +0.000 F 
ENDBRANCH   5  29
TORSDOF 6
ENDMDL
MODEL 4
REMARK VINA RESULT:      -8.4      3.786     10.400
REMARK  Name = 
REMARK  7 active torsions:
REMARK  status: ('A' for Active; 'I' for Inactive)
REMARK    1  A    between atoms: C_1  and  N_2
REMARK    2  A    between atoms: C_6  and  C_7
REMARK    3  A    between atoms: C_7  and  O_8
REMARK    4  A    between atoms: O_8  and  C_9
REMARK    5  A    between atoms: N_11  and  C_12
REMARK    6  A    between atoms: C_16  and  C_17
REMARK    7  A    between atoms: N_23  and  C_24
REMARK                            x       y       z     vdW  Elec       q    Type
REMARK                         _______ _______ _______ _____ _____    ______ ____
ROOT
ATOM      1  C   UNL     1       1.056   9.168  19.446  0.00  0.00    +0.000 A 
ATOM      2  C   UNL     1       0.867   9.520  20.788  0.00  0.00    +0.000 A 
ATOM      3  C   UNL     1      -0.130  10.436  21.098  0.00  0.00    +0.000 A 
ATOM      4  C   UNL     1      -0.951  11.009  20.132  0.00  0.00    +0.000 A 
ATOM      5  C   UNL     1      -0.782  10.696  18.791  0.00  0.00    +0.000 A 
ATOM      6  C   UNL     1       0.226   9.766  18.471  0.00  0.00    +0.000 A 
ATOM      7  C   UNL     1      -1.943  11.912  20.784  0.00  0.00    +0.000 C 
ATOM      8  N   UNL     1      -1.591  11.849  22.194  0.00  0.00    +0.000 N 
ATOM      9  C   UNL     1      -0.521  10.975  22.414  0.00  0.00    +0.000 C 
ATOM     10  O   UNL     1       0.056  10.656  23.437  0.00  0.00    +0.000 OA
ENDROOT
BRANCH   8  11
ATOM     11  C   UNL     1      -2.270  12.644  23.161  0.00  0.00    +0.000 A 
ATOM     12  C   UNL     1      -1.779  13.887  23.575  0.00  0.00    +0.000 A 
ATOM     13  C   UNL     1      -2.485  14.675  24.496  0.00  0.00    +0.000 A 
ATOM     14  C   UNL     1      -3.690  14.228  25.029  0.00  0.00    +0.000 A 
ATOM     15  C   UNL     1      -4.186  12.988  24.649  0.00  0.00    +0.000 A 
ATOM     16  C   UNL     1      -3.485  12.207  23.722  0.00  0.00    +0.000 A 
ENDBRANCH   8  11
BRANCH   1  19
ATOM     17  C   UNL     1       2.569   6.430  18.196  0.00  0.00    +0.000 C 
ATOM     18  C   UNL     1       2.546   7.906  17.760  0.00  0.00    +0.000 C 
ATOM     19  N   UNL     1       2.029   8.231  19.053  0.00  0.00    +0.000 N 
ATOM     20  C   UNL     1       2.361   6.961  19.622  0.00  0.00    +0.000 C 
BRANCH  17  21
ATOM     21  O   UNL     1       3.776   5.678  17.923  0.00  0.00    +0.000 OA
BRANCH  21  22
ATOM     22  C   UNL     1       3.585   4.461  17.202  0.00  0.00    +0.000 C 
BRANCH  22  28
ATOM     23  C   UNL     1       4.157   2.657  19.720  0.00  0.00    +0.000 C 
ATOM     24  N   UNL     1       2.906   2.804  19.025  0.00  0.00    +0.000 N 
ATOM     25  C   UNL     1       1.752   2.150  19.329  0.00  0.00    +0.000 A 
ATOM     26  N   UNL     1       0.813   2.500  18.483  0.00  0.00    +0.000 NA
ATOM     27  N   UNL     1       1.362   3.405  17.607  0.00  0.00    +0.000 NA
ATOM     28  C   UNL     1       2.626   3.595  17.938  0.00  0.00    +0.000 A 
ENDBRANCH  22  28
ENDBRANCH  21  22
ENDBRANCH  17  21
ENDBRANCH   1  19
BRANCH   5  29
ATOM     29  C   UNL     1      -1.607  11.305  17.692  0.00  0.00    +0.000 C 
ATOM     30  F   UNL     1      -2.922  11.453  18.012  0.00  0.00    +0.000 F 
ATOM     31  F   UNL     1      -1.168  12.546  17.347  0.00  0.00    +0.000 F 
ATOM     32  F   UNL     1      -1.581  10.565  16.552  0.00  0.00    +0.000 F 
ENDBRANCH   5  29
TORSDOF 6
ENDMDL
MODEL 5
REMARK VINA RESULT:      -8.4      0.552      1.220
REMARK  Name = 
REMARK  7 active torsions:
REMARK  status: ('A' for Active; 'I' for Inactive)
REMARK    1  A    between atoms: C_1  and  N_2
REMARK    2  A    between atoms: C_6  and  C_7
REMARK    3  A    between atoms: C_7  and  O_8
REMARK    4  A    between atoms: O_8  and  C_9
REMARK    5  A    between atoms: N_11  and  C_12
REMARK    6  A    between atoms: C_16  and  C_17
REMARK    7  A    between atoms: N_23  and  C_24
REMARK                            x       y       z     vdW  Elec       q    Type
REMARK                         _______ _______ _______ _____ _____    ______ ____
ROOT
ATOM      1  C   UNL     1       1.529   7.067  20.682  0.00  0.00    +0.000 A 
ATOM      2  C   UNL     1       2.321   7.468  19.599  0.00  0.00    +0.000 A 
ATOM      3  C   UNL     1       2.979   6.491  18.863  0.00  0.00    +0.000 A 
ATOM      4  C   UNL     1       2.877   5.135  19.153  0.00  0.00    +0.000 A 
ATOM      5  C   UNL     1       2.114   4.702  20.227  0.00  0.00    +0.000 A 
ATOM      6  C   UNL     1       1.443   5.687  20.977  0.00  0.00    +0.000 A 
ATOM      7  C   UNL     1       3.661   4.345  18.159  0.00  0.00    +0.000 C 
ATOM      8  N   UNL     1       4.261   5.362  17.310  0.00  0.00    +0.000 N 
ATOM      9  C   UNL     1       3.870   6.648  17.698  0.00  0.00    +0.000 C 
ATOM     10  O   UNL     1       4.153   7.742  17.246  0.00  0.00    +0.000 OA
ENDROOT
BRANCH   8  11
ATOM     11  C   UNL     1       5.160   5.012  16.261  0.00  0.00    +0.000 A 
ATOM     12  C   UNL     1       4.720   4.397  15.083  0.00  0.00    +0.000 A 
ATOM     13  C   UNL     1       5.614   4.099  14.044  0.00  0.00    +0.000 A 
ATOM     14  C   UNL     1       6.966   4.400  14.169  0.00  0.00    +0.000 A 
ATOM     15  C   UNL     1       7.429   4.992  15.337  0.00  0.00    +0.000 A 
ATOM     16  C   UNL     1       6.535   5.297  16.370  0.00  0.00    +0.000 A 
ENDBRANCH   8  11
BRANCH   1  19
ATOM     17  C   UNL     1       0.028   9.878  21.772  0.00  0.00    +0.000 C 
ATOM     18  C   UNL     1      -0.513   8.509  21.320  0.00  0.00    +0.000 C 
ATOM     19  N   UNL     1       0.813   7.992  21.463  0.00  0.00    +0.000 N 
ATOM     20  C   UNL     1       1.284   9.115  22.215  0.00  0.00    +0.000 C 
BRANCH  17  21
ATOM     21  O   UNL     1      -0.728  10.585  22.785  0.00  0.00    +0.000 OA
BRANCH  21  22
ATOM     22  C   UNL     1      -0.823  11.998  22.598  0.00  0.00    +0.000 C 
BRANCH  22  28
ATOM     23  C   UNL     1      -3.626  12.442  23.966  0.00  0.00    +0.000 C 
ATOM     24  N   UNL     1      -3.329  12.496  22.560  0.00  0.00    +0.000 N 
ATOM     25  C   UNL     1      -4.235  12.720  21.570  0.00  0.00    +0.000 A 
ATOM     26  N   UNL     1      -3.633  12.680  20.406  0.00  0.00    +0.000 NA
ATOM     27  N   UNL     1      -2.303  12.428  20.637  0.00  0.00    +0.000 NA
ATOM     28  C   UNL     1      -2.117  12.323  21.940  0.00  0.00    +0.000 A 
ENDBRANCH  22  28
ENDBRANCH  21  22
ENDBRANCH  17  21
ENDBRANCH   1  19
BRANCH   5  29
ATOM     29  C   UNL     1       1.989   3.256  20.621  0.00  0.00    +0.000 C 
ATOM     30  F   UNL     1       3.183   2.655  20.882  0.00  0.00    +0.000 F 
ATOM     31  F   UNL     1       1.239   3.093  21.745  0.00  0.00    +0.000 F 
ATOM     32  F   UNL     1       1.396   2.504  19.657  0.00  0.00    +0.000 F 
ENDBRANCH   5  29
TORSDOF 6
ENDMDL
MODEL 6
REMARK VINA RESULT:      -8.2      0.564      1.378
REMARK  Name = 
REMARK  7 active torsions:
REMARK  status: ('A' for Active; 'I' for Inactive)
REMARK    1  A    between atoms: C_1  and  N_2
REMARK    2  A    between atoms: C_6  and  C_7
REMARK    3  A    between atoms: C_7  and  O_8
REMARK    4  A    between atoms: O_8  and  C_9
REMARK    5  A    between atoms: N_11  and  C_12
REMARK    6  A    between atoms: C_16  and  C_17
REMARK    7  A    between atoms: N_23  and  C_24
REMARK                            x       y       z     vdW  Elec       q    Type
REMARK                         _______ _______ _______ _____ _____    ______ ____
ROOT
ATOM      1  C   UNL     1       1.504   7.176  20.650  0.00  0.00    +0.000 A 
ATOM      2  C   UNL     1       2.286   7.570  19.557  0.00  0.00    +0.000 A 
ATOM      3  C   UNL     1       2.960   6.591  18.839  0.00  0.00    +0.000 A 
ATOM      4  C   UNL     1       2.885   5.239  19.157  0.00  0.00    +0.000 A 
ATOM      5  C   UNL     1       2.135   4.813  20.243  0.00  0.00    +0.000 A 
ATOM      6  C   UNL     1       1.446   5.801  20.974  0.00  0.00    +0.000 A 
ATOM      7  C   UNL     1       3.682   4.444  18.177  0.00  0.00    +0.000 C 
ATOM      8  N   UNL     1       4.260   5.455  17.305  0.00  0.00    +0.000 N 
ATOM      9  C   UNL     1       3.845   6.740  17.668  0.00  0.00    +0.000 C 
ATOM     10  O   UNL     1       4.104   7.830  17.192  0.00  0.00    +0.000 OA
ENDROOT
BRANCH   8  11
ATOM     11  C   UNL     1       5.162   5.100  16.261  0.00  0.00    +0.000 A 
ATOM     12  C   UNL     1       6.536   5.355  16.352  0.00  0.00    +0.000 A 
ATOM     13  C   UNL     1       7.414   4.959  15.332  0.00  0.00    +0.000 A 
ATOM     14  C   UNL     1       6.934   4.312  14.199  0.00  0.00    +0.000 A 
ATOM     15  C   UNL     1       5.572   4.067  14.078  0.00  0.00    +0.000 A 
ATOM     16  C   UNL     1       4.697   4.455  15.100  0.00  0.00    +0.000 A 
ENDBRANCH   8  11
BRANCH   1  19
ATOM     17  C   UNL     1       0.143  10.031  21.806  0.00  0.00    +0.000 C 
ATOM     18  C   UNL     1      -0.456   8.780  21.138  0.00  0.00    +0.000 C 
ATOM     19  N   UNL     1       0.773   8.103  21.414  0.00  0.00    +0.000 N 
ATOM     20  C   UNL     1       1.232   9.091  22.342  0.00  0.00    +0.000 C 
BRANCH  17  21
ATOM     21  O   UNL     1      -0.685  10.726  22.770  0.00  0.00    +0.000 OA
BRANCH  21  22
ATOM     22  C   UNL     1      -0.834  12.128  22.546  0.00  0.00    +0.000 C 
BRANCH  22  28
ATOM     23  C   UNL     1      -3.629  12.442  23.964  0.00  0.00    +0.000 C 
ATOM     24  N   UNL     1      -3.361  12.507  22.552  0.00  0.00    +0.000 N 
ATOM     25  C   UNL     1      -4.294  12.686  21.578  0.00  0.00    +0.000 A 
ATOM     26  N   UNL     1      -3.712  12.673  20.404  0.00  0.00    +0.000 NA
ATOM     27  N   UNL     1      -2.366  12.485  20.611  0.00  0.00    +0.000 NA
ATOM     28  C   UNL     1      -2.153  12.391  21.911  0.00  0.00    +0.000 A 
ENDBRANCH  22  28
ENDBRANCH  21  22
ENDBRANCH  17  21
ENDBRANCH   1  19
BRANCH   5  29
ATOM     29  C   UNL     1       2.040   3.375  20.668  0.00  0.00    +0.000 C 
ATOM     30  F   UNL     1       1.442   2.570  19.745  0.00  0.00    +0.000 F 
ATOM     31  F   UNL     1       3.262   2.825  20.902  0.00  0.00    +0.000 F 
ATOM     32  F   UNL     1       1.328   3.217  21.815  0.00  0.00    +0.000 F 
ENDBRANCH   5  29
TORSDOF 6
ENDMDL
MODEL 7
REMARK VINA RESULT:      -8.2      3.687     10.543
REMARK  Name = 
REMARK  7 active torsions:
REMARK  status: ('A' for Active; 'I' for Inactive)
REMARK    1  A    between atoms: C_1  and  N_2
REMARK    2  A    between atoms: C_6  and  C_7
REMARK    3  A    between atoms: C_7  and  O_8
REMARK    4  A    between atoms: O_8  and  C_9
REMARK    5  A    between atoms: N_11  and  C_12
REMARK    6  A    between atoms: C_16  and  C_17
REMARK    7  A    between atoms: N_23  and  C_24
REMARK                            x       y       z     vdW  Elec       q    Type
REMARK                         _______ _______ _______ _____ _____    ______ ____
ROOT
ATOM      1  C   UNL     1       0.814   9.515  19.178  0.00  0.00    +0.000 A 
ATOM      2  C   UNL     1       0.620  10.171  20.400  0.00  0.00    +0.000 A 
ATOM      3  C   UNL     1      -0.510  10.964  20.554  0.00  0.00    +0.000 A 
ATOM      4  C   UNL     1      -1.457  11.126  19.548  0.00  0.00    +0.000 A 
ATOM      5  C   UNL     1      -1.290  10.505  18.319  0.00  0.00    +0.000 A 
ATOM      6  C   UNL     1      -0.147   9.697  18.158  0.00  0.00    +0.000 A 
ATOM      7  C   UNL     1      -2.566  11.997  20.034  0.00  0.00    +0.000 C 
ATOM      8  N   UNL     1      -2.152  12.362  21.380  0.00  0.00    +0.000 N 
ATOM      9  C   UNL     1      -0.937  11.758  21.721  0.00  0.00    +0.000 C 
ATOM     10  O   UNL     1      -0.273  11.814  22.740  0.00  0.00    +0.000 OA
ENDROOT
BRANCH   8  11
ATOM     11  C   UNL     1      -2.922  13.262  22.171  0.00  0.00    +0.000 A 
ATOM     12  C   UNL     1      -2.979  14.632  21.889  0.00  0.00    +0.000 A 
ATOM     13  C   UNL     1      -3.778  15.495  22.653  0.00  0.00    +0.000 A 
ATOM     14  C   UNL     1      -4.524  15.007  23.720  0.00  0.00    +0.000 A 
ATOM     15  C   UNL     1      -4.466  13.655  24.032  0.00  0.00    +0.000 A 
ATOM     16  C   UNL     1      -3.675  12.792  23.263  0.00  0.00    +0.000 A 
ENDBRANCH   8  11
BRANCH   1  19
ATOM     17  C   UNL     1       2.758   6.948  18.192  0.00  0.00    +0.000 C 
ATOM     18  C   UNL     1       2.675   8.424  17.764  0.00  0.00    +0.000 C 
ATOM     19  N   UNL     1       1.920   8.677  18.952  0.00  0.00    +0.000 N 
ATOM     20  C   UNL     1       2.266   7.430  19.564  0.00  0.00    +0.000 C 
BRANCH  17  21
ATOM     21  O   UNL     1       4.057   6.312  18.123  0.00  0.00    +0.000 OA
BRANCH  21  22
ATOM     22  C   UNL     1       4.082   5.048  17.460  0.00  0.00    +0.000 C 
BRANCH  22  28
ATOM     23  C   UNL     1       1.633   3.366  18.509  0.00  0.00    +0.000 C 
ATOM     24  N   UNL     1       3.005   3.251  18.923  0.00  0.00    +0.000 N 
ATOM     25  C   UNL     1       3.473   2.402  19.879  0.00  0.00    +0.000 A 
ATOM     26  N   UNL     1       4.764   2.573  20.024  0.00  0.00    +0.000 NA
ATOM     27  N   UNL     1       5.155   3.551  19.142  0.00  0.00    +0.000 NA
ATOM     28  C   UNL     1       4.092   3.958  18.471  0.00  0.00    +0.000 A 
ENDBRANCH  22  28
ENDBRANCH  21  22
ENDBRANCH  17  21
ENDBRANCH   1  19
BRANCH   5  29
ATOM     29  C   UNL     1      -2.252  10.666  17.175  0.00  0.00    +0.000 C 
ATOM     30  F   UNL     1      -2.335  11.942  16.706  0.00  0.00    +0.000 F 
ATOM     31  F   UNL     1      -1.911   9.899  16.105  0.00  0.00    +0.000 F 
ATOM     32  F   UNL     1      -3.520  10.308  17.508  0.00  0.00    +0.000 F 
ENDBRANCH   5  29
TORSDOF 6
ENDMDL
MODEL 8
REMARK VINA RESULT:      -8.2      1.504      2.032
REMARK  Name = 
REMARK  7 active torsions:
REMARK  status: ('A' for Active; 'I' for Inactive)
REMARK    1  A    between atoms: C_1  and  N_2
REMARK    2  A    between atoms: C_6  and  C_7
REMARK    3  A    between atoms: C_7  and  O_8
REMARK    4  A    between atoms: O_8  and  C_9
REMARK    5  A    between atoms: N_11  and  C_12
REMARK    6  A    between atoms: C_16  and  C_17
REMARK    7  A    between atoms: N_23  and  C_24
REMARK                            x       y       z     vdW  Elec       q    Type
REMARK                         _______ _______ _______ _____ _____    ______ ____
ROOT
ATOM      1  C   UNL     1       1.570   7.022  20.674  0.00  0.00    +0.000 A 
ATOM      2  C   UNL     1       2.435   7.423  19.648  0.00  0.00    +0.000 A 
ATOM      3  C   UNL     1       3.002   6.445  18.841  0.00  0.00    +0.000 A 
ATOM      4  C   UNL     1       2.741   5.089  19.006  0.00  0.00    +0.000 A 
ATOM      5  C   UNL     1       1.903   4.654  20.022  0.00  0.00    +0.000 A 
ATOM      6  C   UNL     1       1.323   5.641  20.843  0.00  0.00    +0.000 A 
ATOM      7  C   UNL     1       3.463   4.305  17.962  0.00  0.00    +0.000 C 
ATOM      8  N   UNL     1       4.198   5.317  17.219  0.00  0.00    +0.000 N 
ATOM      9  C   UNL     1       3.940   6.600  17.713  0.00  0.00    +0.000 C 
ATOM     10  O   UNL     1       4.356   7.691  17.366  0.00  0.00    +0.000 OA
ENDROOT
BRANCH   8  11
ATOM     11  C   UNL     1       5.084   4.959  16.162  0.00  0.00    +0.000 A 
ATOM     12  C   UNL     1       4.631   4.319  15.002  0.00  0.00    +0.000 A 
ATOM     13  C   UNL     1       5.512   4.015  13.954  0.00  0.00    +0.000 A 
ATOM     14  C   UNL     1       6.862   4.333  14.051  0.00  0.00    +0.000 A 
ATOM     15  C   UNL     1       7.337   4.950  15.202  0.00  0.00    +0.000 A 
ATOM     16  C   UNL     1       6.456   5.262  16.244  0.00  0.00    +0.000 A 
ENDBRANCH   8  11
BRANCH   1  19
ATOM     17  C   UNL     1       0.187   9.838  21.898  0.00  0.00    +0.000 C 
ATOM     18  C   UNL     1      -0.396   8.466  21.513  0.00  0.00    +0.000 C 
ATOM     19  N   UNL     1       0.938   7.951  21.520  0.00  0.00    +0.000 N 
ATOM     20  C   UNL     1       1.484   9.078  22.213  0.00  0.00    +0.000 C 
BRANCH  17  21
ATOM     21  O   UNL     1      -0.460  10.551  22.980  0.00  0.00    +0.000 OA
BRANCH  21  22
ATOM     22  C   UNL     1      -1.048  11.801  22.621  0.00  0.00    +0.000 C 
BRANCH  22  28
ATOM     23  C   UNL     1      -1.900  11.925  19.590  0.00  0.00    +0.000 C 
ATOM     24  N   UNL     1      -0.680  12.422  20.169  0.00  0.00    +0.000 N 
ATOM     25  C   UNL     1       0.338  13.008  19.484  0.00  0.00    +0.000 A 
ATOM     26  N   UNL     1       1.305  13.319  20.313  0.00  0.00    +0.000 NA
ATOM     27  N   UNL     1       0.911  12.933  21.571  0.00  0.00    +0.000 NA
ATOM     28  C   UNL     1      -0.293  12.395  21.486  0.00  0.00    +0.000 A 
ENDBRANCH  22  28
ENDBRANCH  21  22
ENDBRANCH  17  21
ENDBRANCH   1  19
BRANCH   5  29
ATOM     29  C   UNL     1       1.607   3.203  20.282  0.00  0.00    +0.000 C 
ATOM     30  F   UNL     1       0.895   2.987  21.423  0.00  0.00    +0.000 F 
ATOM     31  F   UNL     1       0.880   2.639  19.280  0.00  0.00    +0.000 F 
ATOM     32  F   UNL     1       2.735   2.455  20.400  0.00  0.00    +0.000 F 
ENDBRANCH   5  29
TORSDOF 6
ENDMDL
MODEL 9
REMARK VINA RESULT:      -8.2      1.455      2.010
REMARK  Name = 
REMARK  7 active torsions:
REMARK  status: ('A' for Active; 'I' for Inactive)
REMARK    1  A    between atoms: C_1  and  N_2
REMARK    2  A    between atoms: C_6  and  C_7
REMARK    3  A    between atoms: C_7  and  O_8
REMARK    4  A    between atoms: O_8  and  C_9
REMARK    5  A    between atoms: N_11  and  C_12
REMARK    6  A    between atoms: C_16  and  C_17
REMARK    7  A    between atoms: N_23  and  C_24
REMARK                            x       y       z     vdW  Elec       q    Type
REMARK                         _______ _______ _______ _____ _____    ______ ____
ROOT
ATOM      1  C   UNL     1       1.537   6.972  20.641  0.00  0.00    +0.000 A 
ATOM      2  C   UNL     1       2.394   7.403  19.620  0.00  0.00    +0.000 A 
ATOM      3  C   UNL     1       2.993   6.446  18.812  0.00  0.00    +0.000 A 
ATOM      4  C   UNL     1       2.770   5.082  18.970  0.00  0.00    +0.000 A 
ATOM      5  C   UNL     1       1.941   4.618  19.980  0.00  0.00    +0.000 A 
ATOM      6  C   UNL     1       1.328   5.584  20.802  0.00  0.00    +0.000 A 
ATOM      7  C   UNL     1       3.519   4.323  17.925  0.00  0.00    +0.000 C 
ATOM      8  N   UNL     1       4.227   5.359  17.191  0.00  0.00    +0.000 N 
ATOM      9  C   UNL     1       3.931   6.632  17.689  0.00  0.00    +0.000 C 
ATOM     10  O   UNL     1       4.317   7.736  17.349  0.00  0.00    +0.000 OA
ENDROOT
BRANCH   8  11
ATOM     11  C   UNL     1       5.128   5.032  16.136  0.00  0.00    +0.000 A 
ATOM     12  C   UNL     1       6.481   5.388  16.181  0.00  0.00    +0.000 A 
ATOM     13  C   UNL     1       7.361   5.018  15.153  0.00  0.00    +0.000 A 
ATOM     14  C   UNL     1       6.902   4.296  14.057  0.00  0.00    +0.000 A 
ATOM     15  C   UNL     1       5.559   3.951  13.980  0.00  0.00    +0.000 A 
ATOM     16  C   UNL     1       4.683   4.312  15.011  0.00  0.00    +0.000 A 
ENDBRANCH   8  11
BRANCH   1  19
ATOM     17  C   UNL     1       0.011   9.721  21.849  0.00  0.00    +0.000 C 
ATOM     18  C   UNL     1      -0.490   8.304  21.520  0.00  0.00    +0.000 C 
ATOM     19  N   UNL     1       0.875   7.879  21.488  0.00  0.00    +0.000 N 
ATOM     20  C   UNL     1       1.367   9.059  22.132  0.00  0.00    +0.000 C 
BRANCH  17  21
ATOM     21  O   UNL     1      -0.642  10.417  22.938  0.00  0.00    +0.000 OA
BRANCH  21  22
ATOM     22  C   UNL     1      -1.303  11.630  22.576  0.00  0.00    +0.000 C 
BRANCH  22  28
ATOM     23  C   UNL     1      -1.973  11.908  19.510  0.00  0.00    +0.000 C 
ATOM     24  N   UNL     1      -0.819  12.424  20.196  0.00  0.00    +0.000 N 
ATOM     25  C   UNL     1       0.207  13.102  19.614  0.00  0.00    +0.000 A 
ATOM     26  N   UNL     1       1.103  13.406  20.521  0.00  0.00    +0.000 NA
ATOM     27  N   UNL     1       0.654  12.920  21.726  0.00  0.00    +0.000 NA
ATOM     28  C   UNL     1      -0.512  12.332  21.531  0.00  0.00    +0.000 A 
ENDBRANCH  22  28
ENDBRANCH  21  22
ENDBRANCH  17  21
ENDBRANCH   1  19
BRANCH   5  29
ATOM     29  C   UNL     1       1.685   3.159  20.233  0.00  0.00    +0.000 C 
ATOM     30  F   UNL     1       0.988   2.544  19.237  0.00  0.00    +0.000 F 
ATOM     31  F   UNL     1       2.839   2.450  20.369  0.00  0.00    +0.000 F 
ATOM     32  F   UNL     1       0.974   2.945  21.371  0.00  0.00    +0.000 F 
ENDBRANCH   5  29
TORSDOF 6
ENDMDL
