MODEL 1
REMARK VINA RESULT:      -7.9      0.000      0.000
REMARK  Name = 
REMARK  5 active torsions:
REMARK  status: ('A' for Active; 'I' for Inactive)
REMARK    1  A    between atoms: C_4  and  C_5
REMARK    2  A    between atoms: C_5  and  N_6
REMARK    3  A    between atoms: C_9  and  N_10
REMARK    4  A    between atoms: N_10  and  C_11
REMARK    5  A    between atoms: N_19  and  C_20
REMARK                            x       y       z     vdW  Elec       q    Type
REMARK                         _______ _______ _______ _____ _____    ______ ____
ROOT
ATOM      1  N   UNL     1       0.350  11.505  20.431  0.00  0.00    +0.000 N 
ATOM      2  H   UNL     1       0.519  11.970  21.314  0.00  0.00    +0.000 HD
ENDROOT
BRANCH   1   3
ATOM      3  C   UNL     1       0.740  10.169  20.448  0.00  0.00    +0.000 A 
ATOM      4  N   UNL     1       0.555   9.431  21.567  0.00  0.00    +0.000 NA
ATOM      5  C   UNL     1       0.945   8.147  21.572  0.00  0.00    +0.000 A 
ATOM      6  N   UNL     1       1.537   7.467  20.585  0.00  0.00    +0.000 NA
ATOM      7  C   UNL     1       1.713   8.217  19.476  0.00  0.00    +0.000 A 
ATOM      8  C   UNL     1       1.329   9.540  19.341  0.00  0.00    +0.000 A 
ATOM      9  C   UNL     1       1.697   9.884  18.029  0.00  0.00    +0.000 A 
ATOM     10  N   UNL     1       2.311   8.896  17.378  0.00  0.00    +0.000 NA
ATOM     11  N   UNL     1       2.327   7.856  18.276  0.00  0.00    +0.000 N 
BRANCH  11  12
ATOM     12  C   UNL     1       2.958   6.620  17.934  0.00  0.00    +0.000 A 
ATOM     13  C   UNL     1       2.233   5.420  18.043  0.00  0.00    +0.000 A 
ATOM     14  C   UNL     1       2.818   4.205  17.677  0.00  0.00    +0.000 A 
ATOM     15  C   UNL     1       4.126   4.174  17.200  0.00  0.00    +0.000 A 
ATOM     16  C   UNL     1       4.857   5.354  17.099  0.00  0.00    +0.000 A 
ATOM     17  C   UNL     1       4.277   6.572  17.463  0.00  0.00    +0.000 A 
ENDBRANCH  11  12
ENDBRANCH   1   3
BRANCH   1  21
ATOM     18  N   UNL     1      -0.795  14.770  19.663  0.00  0.00    +0.000 NA
ATOM     19  C   UNL     1      -0.099  13.928  18.682  0.00  0.00    +0.000 C 
ATOM     20  C   UNL     1      -0.764  12.572  18.472  0.00  0.00    +0.000 C 
ATOM     21  C   UNL     1      -0.937  11.826  19.795  0.00  0.00    +0.000 C 
ATOM     22  C   UNL     1      -1.761  12.713  20.730  0.00  0.00    +0.000 C 
ATOM     23  C   UNL     1      -1.122  14.091  20.918  0.00  0.00    +0.000 C 
BRANCH  18  24
ATOM     24  C   UNL     1      -0.102  16.058  19.884  0.00  0.00    +0.000 C 
BRANCH  24  28
ATOM     25  C   UNL     1       0.608  18.604  16.443  0.00  0.00    +0.000 A 
ATOM     26  C   UNL     1      -0.688  18.418  16.921  0.00  0.00    +0.000 A 
ATOM     27  C   UNL     1      -0.914  17.595  18.027  0.00  0.00    +0.000 A 
ATOM     28  C   UNL     1       0.150  16.940  18.670  0.00  0.00    +0.000 A 
ATOM     29  C   UNL     1       1.448  17.138  18.174  0.00  0.00    +0.000 A 
ATOM     30  C   UNL     1       1.674  17.962  17.068  0.00  0.00    +0.000 A 
ENDBRANCH  24  28
ENDBRANCH  18  24
ENDBRANCH   1  21
TORSDOF 5
ENDMDL
MODEL 2
REMARK VINA RESULT:      -7.8      3.425      9.441
REMARK  Name = 
REMARK  5 active torsions:
REMARK  status: ('A' for Active; 'I' for Inactive)
REMARK    1  A    between atoms: C_4  and  C_5
REMARK    2  A    between atoms: C_5  and  N_6
REMARK    3  A    between atoms: C_9  and  N_10
REMARK    4  A    between atoms: N_10  and  C_11
REMARK    5  A    between atoms: N_19  and  C_20
REMARK                            x       y       z     vdW  Elec       q    Type
REMARK                         _______ _______ _______ _____ _____    ______ ____
ROOT
ATOM      1  N   UNL     1       2.503   7.399  19.430  0.00  0.00    +0.000 N 
ATOM      2  H   UNL     1       3.255   7.530  18.765  0.00  0.00    +0.000 HD
ENDROOT
BRANCH   1   3
ATOM      3  C   UNL     1       1.615   8.471  19.449  0.00  0.00    +0.000 A 
ATOM      4  N   UNL     1       1.175   8.999  18.283  0.00  0.00    +0.000 NA
ATOM      5  C   UNL     1       0.327  10.038  18.318  0.00  0.00    +0.000 A 
ATOM      6  N   UNL     1      -0.152  10.668  19.395  0.00  0.00    +0.000 NA
ATOM      7  C   UNL     1       0.296  10.129  20.549  0.00  0.00    +0.000 A 
ATOM      8  C   UNL     1       1.148   9.042  20.642  0.00  0.00    +0.000 A 
ATOM      9  C   UNL     1       1.315   8.840  22.023  0.00  0.00    +0.000 A 
ATOM     10  N   UNL     1       0.673   9.739  22.768  0.00  0.00    +0.000 NA
ATOM     11  N   UNL     1       0.039  10.547  21.856  0.00  0.00    +0.000 N 
BRANCH  11  12
ATOM     12  C   UNL     1      -0.726  11.671  22.298  0.00  0.00    +0.000 A 
ATOM     13  C   UNL     1      -1.911  11.459  23.024  0.00  0.00    +0.000 A 
ATOM     14  C   UNL     1      -2.652  12.544  23.498  0.00  0.00    +0.000 A 
ATOM     15  C   UNL     1      -2.221  13.846  23.257  0.00  0.00    +0.000 A 
ATOM     16  C   UNL     1      -1.056  14.068  22.529  0.00  0.00    +0.000 A 
ATOM     17  C   UNL     1      -0.310  12.987  22.052  0.00  0.00    +0.000 A 
ENDBRANCH  11  12
ENDBRANCH   1   3
BRANCH   1  21
ATOM     18  N   UNL     1       4.170   4.447  18.397  0.00  0.00    +0.000 NA
ATOM     19  C   UNL     1       4.147   4.890  19.795  0.00  0.00    +0.000 C 
ATOM     20  C   UNL     1       2.737   5.091  20.342  0.00  0.00    +0.000 C 
ATOM     21  C   UNL     1       1.930   6.045  19.462  0.00  0.00    +0.000 C 
ATOM     22  C   UNL     1       1.902   5.468  18.046  0.00  0.00    +0.000 C 
ATOM     23  C   UNL     1       3.312   5.227  17.502  0.00  0.00    +0.000 C 
BRANCH  18  24
ATOM     24  C   UNL     1       5.547   4.308  17.877  0.00  0.00    +0.000 C 
BRANCH  24  28
ATOM     25  C   UNL     1       8.217   7.709  18.234  0.00  0.00    +0.000 A 
ATOM     26  C   UNL     1       8.308   6.650  19.135  0.00  0.00    +0.000 A 
ATOM     27  C   UNL     1       7.445   5.557  19.020  0.00  0.00    +0.000 A 
ATOM     28  C   UNL     1       6.473   5.508  18.006  0.00  0.00    +0.000 A 
ATOM     29  C   UNL     1       6.395   6.584  17.109  0.00  0.00    +0.000 A 
ATOM     30  C   UNL     1       7.259   7.677  17.223  0.00  0.00    +0.000 A 
ENDBRANCH  24  28
ENDBRANCH  18  24
ENDBRANCH   1  21
TORSDOF 5
ENDMDL
MODEL 3
REMARK VINA RESULT:      -7.8      0.683      1.045
REMARK  Name = 
REMARK  5 active torsions:
REMARK  status: ('A' for Active; 'I' for Inactive)
REMARK    1  A    between atoms: C_4  and  C_5
REMARK    2  A    between atoms: C_5  and  N_6
REMARK    3  A    between atoms: C_9  and  N_10
REMARK    4  A    between atoms: N_10  and  C_11
REMARK    5  A    between atoms: N_19  and  C_20
REMARK                            x       y       z     vdW  Elec       q    Type
REMARK                         _______ _______ _______ _____ _____    ______ ____
ROOT
ATOM      1  N   UNL     1       0.750  11.470  19.812  0.00  0.00    +0.000 N 
ATOM      2  H   UNL     1       1.283  12.102  20.396  0.00  0.00    +0.000 HD
ENDROOT
BRANCH   1   3
ATOM      3  C   UNL     1       1.015  10.133  20.093  0.00  0.00    +0.000 A 
ATOM      4  N   UNL     1       0.756   9.642  21.327  0.00  0.00    +0.000 NA
ATOM      5  C   UNL     1       1.025   8.353  21.586  0.00  0.00    +0.000 A 
ATOM      6  N   UNL     1       1.558   7.447  20.760  0.00  0.00    +0.000 NA
ATOM      7  C   UNL     1       1.810   7.952  19.534  0.00  0.00    +0.000 A 
ATOM      8  C   UNL     1       1.550   9.253  19.140  0.00  0.00    +0.000 A 
ATOM      9  C   UNL     1       1.956   9.305  17.795  0.00  0.00    +0.000 A 
ATOM     10  N   UNL     1       2.481   8.160  17.360  0.00  0.00    +0.000 NA
ATOM     11  N   UNL     1       2.396   7.314  18.439  0.00  0.00    +0.000 N 
BRANCH  11  12
ATOM     12  C   UNL     1       2.911   5.983  18.354  0.00  0.00    +0.000 A 
ATOM     13  C   UNL     1       4.200   5.708  18.843  0.00  0.00    +0.000 A 
ATOM     14  C   UNL     1       4.707   4.407  18.805  0.00  0.00    +0.000 A 
ATOM     15  C   UNL     1       3.939   3.370  18.281  0.00  0.00    +0.000 A 
ATOM     16  C   UNL     1       2.667   3.634  17.782  0.00  0.00    +0.000 A 
ATOM     17  C   UNL     1       2.153   4.933  17.819  0.00  0.00    +0.000 A 
ENDBRANCH  11  12
ENDBRANCH   1   3
BRANCH   1  21
ATOM     18  N   UNL     1      -0.472  14.795  19.700  0.00  0.00    +0.000 NA
ATOM     19  C   UNL     1      -0.108  14.048  18.490  0.00  0.00    +0.000 C 
ATOM     20  C   UNL     1      -0.844  12.719  18.357  0.00  0.00    +0.000 C 
ATOM     21  C   UNL     1      -0.655  11.852  19.602  0.00  0.00    +0.000 C 
ATOM     22  C   UNL     1      -1.154  12.648  20.810  0.00  0.00    +0.000 C 
ATOM     23  C   UNL     1      -0.449  14.000  20.930  0.00  0.00    +0.000 C 
BRANCH  18  24
ATOM     24  C   UNL     1       0.292  16.055  19.829  0.00  0.00    +0.000 C 
BRANCH  24  28
ATOM     25  C   UNL     1       0.577  18.626  16.346  0.00  0.00    +0.000 A 
ATOM     26  C   UNL     1      -0.639  18.479  17.009  0.00  0.00    +0.000 A 
ATOM     27  C   UNL     1      -0.730  17.647  18.129  0.00  0.00    +0.000 A 
ATOM     28  C   UNL     1       0.393  16.946  18.600  0.00  0.00    +0.000 A 
ATOM     29  C   UNL     1       1.609  17.106  17.918  0.00  0.00    +0.000 A 
ATOM     30  C   UNL     1       1.700  17.938  16.799  0.00  0.00    +0.000 A 
ENDBRANCH  24  28
ENDBRANCH  18  24
ENDBRANCH   1  21
TORSDOF 5
ENDMDL
MODEL 4
REMARK VINA RESULT:      -7.7      3.267      9.470
REMARK  Name = 
REMARK  5 active torsions:
REMARK  status: ('A' for Active; 'I' for Inactive)
REMARK    1  A    between atoms: C_4  and  C_5
REMARK    2  A    between atoms: C_5  and  N_6
REMARK    3  A    between atoms: C_9  and  N_10
REMARK    4  A    between atoms: N_10  and  C_11
REMARK    5  A    between atoms: N_19  and  C_20
REMARK                            x       y       z     vdW  Elec       q    Type
REMARK                         _______ _______ _______ _____ _____    ______ ____
ROOT
ATOM      1  N   UNL     1       2.593   7.139  19.960  0.00  0.00    +0.000 N 
ATOM      2  H   UNL     1       3.478   7.246  19.479  0.00  0.00    +0.000 HD
ENDROOT
BRANCH   1   3
ATOM      3  C   UNL     1       1.782   8.264  19.840  0.00  0.00    +0.000 A 
ATOM      4  N   UNL     1       1.503   8.762  18.612  0.00  0.00    +0.000 NA
ATOM      5  C   UNL     1       0.728   9.852  18.513  0.00  0.00    +0.000 A 
ATOM      6  N   UNL     1       0.181  10.562  19.505  0.00  0.00    +0.000 NA
ATOM      7  C   UNL     1       0.468  10.052  20.722  0.00  0.00    +0.000 A 
ATOM      8  C   UNL     1       1.231   8.919  20.950  0.00  0.00    +0.000 A 
ATOM      9  C   UNL     1       1.238   8.773  22.348  0.00  0.00    +0.000 A 
ATOM     10  N   UNL     1       0.584   9.745  22.983  0.00  0.00    +0.000 NA
ATOM     11  N   UNL     1       0.105  10.546  21.975  0.00  0.00    +0.000 N 
BRANCH  11  12
ATOM     12  C   UNL     1      -0.625  11.735  22.286  0.00  0.00    +0.000 A 
ATOM     13  C   UNL     1      -0.117  12.984  21.889  0.00  0.00    +0.000 A 
ATOM     14  C   UNL     1      -0.833  14.155  22.149  0.00  0.00    +0.000 A 
ATOM     15  C   UNL     1      -2.061  14.093  22.805  0.00  0.00    +0.000 A 
ATOM     16  C   UNL     1      -2.568  12.864  23.214  0.00  0.00    +0.000 A 
ATOM     17  C   UNL     1      -1.856  11.690  22.955  0.00  0.00    +0.000 A 
ENDBRANCH  11  12
ENDBRANCH   1   3
BRANCH   1  21
ATOM     18  N   UNL     1       4.067   4.321  18.394  0.00  0.00    +0.000 NA
ATOM     19  C   UNL     1       4.121   4.535  19.846  0.00  0.00    +0.000 C 
ATOM     20  C   UNL     1       2.745   4.706  20.482  0.00  0.00    +0.000 C 
ATOM     21  C   UNL     1       1.954   5.824  19.803  0.00  0.00    +0.000 C 
ATOM     22  C   UNL     1       1.842   5.484  18.316  0.00  0.00    +0.000 C 
ATOM     23  C   UNL     1       3.216   5.272  17.676  0.00  0.00    +0.000 C 
BRANCH  18  24
ATOM     24  C   UNL     1       5.415   4.207  17.796  0.00  0.00    +0.000 C 
BRANCH  24  28
ATOM     25  C   UNL     1       8.031   7.650  18.155  0.00  0.00    +0.000 A 
ATOM     26  C   UNL     1       7.066   7.606  17.151  0.00  0.00    +0.000 A 
ATOM     27  C   UNL     1       6.227   6.494  17.035  0.00  0.00    +0.000 A 
ATOM     28  C   UNL     1       6.342   5.407  17.918  0.00  0.00    +0.000 A 
ATOM     29  C   UNL     1       7.321   5.468  18.922  0.00  0.00    +0.000 A 
ATOM     30  C   UNL     1       8.159   6.580  19.039  0.00  0.00    +0.000 A 
ENDBRANCH  24  28
ENDBRANCH  18  24
ENDBRANCH   1  21
TORSDOF 5
ENDMDL
MODEL 5
REMARK VINA RESULT:      -7.6      2.644      9.708
REMARK  Name = 
REMARK  5 active torsions:
REMARK  status: ('A' for Active; 'I' for Inactive)
REMARK    1  A    between atoms: C_4  and  C_5
REMARK    2  A    between atoms: C_5  and  N_6
REMARK    3  A    between atoms: C_9  and  N_10
REMARK    4  A    between atoms: N_10  and  C_11
REMARK    5  A    between atoms: N_19  and  C_20
REMARK                            x       y       z     vdW  Elec       q    Type
REMARK                         _______ _______ _______ _____ _____    ______ ____
ROOT
ATOM      1  N   UNL     1       2.678   6.221  20.326  0.00  0.00    +0.000 N 
ATOM      2  H   UNL     1       3.604   5.968  20.002  0.00  0.00    +0.000 HD
ENDROOT
BRANCH   1   3
ATOM      3  C   UNL     1       2.208   7.391  19.736  0.00  0.00    +0.000 A 
ATOM      4  N   UNL     1       2.476   7.639  18.432  0.00  0.00    +0.000 NA
ATOM      5  C   UNL     1       2.024   8.776  17.880  0.00  0.00    +0.000 A 
ATOM      6  N   UNL     1       1.330   9.753  18.471  0.00  0.00    +0.000 NA
ATOM      7  C   UNL     1       1.071   9.490  19.769  0.00  0.00    +0.000 A 
ATOM      8  C   UNL     1       1.458   8.343  20.441  0.00  0.00    +0.000 A 
ATOM      9  C   UNL     1       0.956   8.508  21.744  0.00  0.00    +0.000 A 
ATOM     10  N   UNL     1       0.339   9.676  21.925  0.00  0.00    +0.000 NA
ATOM     11  N   UNL     1       0.411  10.293  20.700  0.00  0.00    +0.000 N 
BRANCH  11  12
ATOM     12  C   UNL     1      -0.120  11.609  20.525  0.00  0.00    +0.000 A 
ATOM     13  C   UNL     1       0.695  12.724  20.787  0.00  0.00    +0.000 A 
ATOM     14  C   UNL     1       0.208  14.018  20.584  0.00  0.00    +0.000 A 
ATOM     15  C   UNL     1      -1.090  14.213  20.120  0.00  0.00    +0.000 A 
ATOM     16  C   UNL     1      -1.909  13.117  19.869  0.00  0.00    +0.000 A 
ATOM     17  C   UNL     1      -1.428  11.820  20.068  0.00  0.00    +0.000 A 
ENDBRANCH  11  12
ENDBRANCH   1   3
BRANCH   1  21
ATOM     18  N   UNL     1       3.003   3.085  18.707  0.00  0.00    +0.000 NA
ATOM     19  C   UNL     1       3.481   3.319  20.075  0.00  0.00    +0.000 C 
ATOM     20  C   UNL     1       2.397   3.841  21.012  0.00  0.00    +0.000 C 
ATOM     21  C   UNL     1       1.736   5.099  20.451  0.00  0.00    +0.000 C 
ATOM     22  C   UNL     1       1.164   4.756  19.073  0.00  0.00    +0.000 C 
ATOM     23  C   UNL     1       2.236   4.195  18.137  0.00  0.00    +0.000 C 
BRANCH  18  24
ATOM     24  C   UNL     1       4.084   2.626  17.808  0.00  0.00    +0.000 C 
BRANCH  24  28
ATOM     25  C   UNL     1       6.672   5.628  16.042  0.00  0.00    +0.000 A 
ATOM     26  C   UNL     1       6.778   5.322  17.398  0.00  0.00    +0.000 A 
ATOM     27  C   UNL     1       5.940   4.358  17.965  0.00  0.00    +0.000 A 
ATOM     28  C   UNL     1       4.981   3.687  17.188  0.00  0.00    +0.000 A 
ATOM     29  C   UNL     1       4.888   4.009  15.825  0.00  0.00    +0.000 A 
ATOM     30  C   UNL     1       5.727   4.972  15.257  0.00  0.00    +0.000 A 
ENDBRANCH  24  28
ENDBRANCH  18  24
ENDBRANCH   1  21
TORSDOF 5
ENDMDL
MODEL 6
REMARK VINA RESULT:      -7.5      2.604      9.532
REMARK  Name = 
REMARK  5 active torsions:
REMARK  status: ('A' for Active; 'I' for Inactive)
REMARK    1  A    between atoms: C_4  and  C_5
REMARK    2  A    between atoms: C_5  and  N_6
REMARK    3  A    between atoms: C_9  and  N_10
REMARK    4  A    between atoms: N_10  and  C_11
REMARK    5  A    between atoms: N_19  and  C_20
REMARK                            x       y       z     vdW  Elec       q    Type
REMARK                         _______ _______ _______ _____ _____    ______ ____
ROOT
ATOM      1  N   UNL     1       2.616   5.670  20.822  0.00  0.00    +0.000 N 
ATOM      2  H   UNL     1       3.590   5.400  20.875  0.00  0.00    +0.000 HD
ENDROOT
BRANCH   1   3
ATOM      3  C   UNL     1       2.406   6.743  19.961  0.00  0.00    +0.000 A 
ATOM      4  N   UNL     1       3.018   6.764  18.754  0.00  0.00    +0.000 NA
ATOM      5  C   UNL     1       2.814   7.810  17.938  0.00  0.00    +0.000 A 
ATOM      6  N   UNL     1       2.070   8.896  18.170  0.00  0.00    +0.000 NA
ATOM      7  C   UNL     1       1.467   8.859  19.378  0.00  0.00    +0.000 A 
ATOM      8  C   UNL     1       1.577   7.825  20.292  0.00  0.00    +0.000 A 
ATOM      9  C   UNL     1       0.772   8.221  21.374  0.00  0.00    +0.000 A 
ATOM     10  N   UNL     1       0.223   9.424  21.209  0.00  0.00    +0.000 NA
ATOM     11  N   UNL     1       0.655   9.828  19.969  0.00  0.00    +0.000 N 
BRANCH  11  12
ATOM     12  C   UNL     1       0.292  11.116  19.465  0.00  0.00    +0.000 A 
ATOM     13  C   UNL     1       1.299  12.047  19.155  0.00  0.00    +0.000 A 
ATOM     14  C   UNL     1       0.968  13.296  18.625  0.00  0.00    +0.000 A 
ATOM     15  C   UNL     1      -0.365  13.630  18.398  0.00  0.00    +0.000 A 
ATOM     16  C   UNL     1      -1.371  12.720  18.712  0.00  0.00    +0.000 A 
ATOM     17  C   UNL     1      -1.046  11.469  19.241  0.00  0.00    +0.000 A 
ENDBRANCH  11  12
ENDBRANCH   1   3
BRANCH   1  21
ATOM     18  N   UNL     1       2.931   2.836  18.717  0.00  0.00    +0.000 NA
ATOM     19  C   UNL     1       3.398   2.840  20.109  0.00  0.00    +0.000 C 
ATOM     20  C   UNL     1       2.309   3.213  21.110  0.00  0.00    +0.000 C 
ATOM     21  C   UNL     1       1.663   4.552  20.755  0.00  0.00    +0.000 C 
ATOM     22  C   UNL     1       1.103   4.443  19.336  0.00  0.00    +0.000 C 
ATOM     23  C   UNL     1       2.179   4.031  18.329  0.00  0.00    +0.000 C 
BRANCH  18  24
ATOM     24  C   UNL     1       4.018   2.520  17.765  0.00  0.00    +0.000 C 
BRANCH  24  28
ATOM     25  C   UNL     1       6.490   5.818  16.411  0.00  0.00    +0.000 A 
ATOM     26  C   UNL     1       5.675   5.139  15.509  0.00  0.00    +0.000 A 
ATOM     27  C   UNL     1       4.882   4.074  15.946  0.00  0.00    +0.000 A 
ATOM     28  C   UNL     1       4.896   3.669  17.292  0.00  0.00    +0.000 A 
ATOM     29  C   UNL     1       5.724   4.365  18.186  0.00  0.00    +0.000 A 
ATOM     30  C   UNL     1       6.516   5.430  17.749  0.00  0.00    +0.000 A 
ENDBRANCH  24  28
ENDBRANCH  18  24
ENDBRANCH   1  21
TORSDOF 5
ENDMDL
MODEL 7
REMARK VINA RESULT:      -7.5      2.956      9.453
REMARK  Name = 
REMARK  5 active torsions:
REMARK  status: ('A' for Active; 'I' for Inactive)
REMARK    1  A    between atoms: C_4  and  C_5
REMARK    2  A    between atoms: C_5  and  N_6
REMARK    3  A    between atoms: C_9  and  N_10
REMARK    4  A    between atoms: N_10  and  C_11
REMARK    5  A    between atoms: N_19  and  C_20
REMARK                            x       y       z     vdW  Elec       q    Type
REMARK                         _______ _______ _______ _____ _____    ______ ____
ROOT
ATOM      1  N   UNL     1       2.619   6.682  20.104  0.00  0.00    +0.000 N 
ATOM      2  H   UNL     1       3.625   6.687  19.989  0.00  0.00    +0.000 HD
ENDROOT
BRANCH   1   3
ATOM      3  C   UNL     1       2.027   7.864  19.668  0.00  0.00    +0.000 A 
ATOM      4  N   UNL     1       2.266   8.311  18.413  0.00  0.00    +0.000 NA
ATOM      5  C   UNL     1       1.696   9.457  18.010  0.00  0.00    +0.000 A 
ATOM      6  N   UNL     1       0.901  10.268  18.716  0.00  0.00    +0.000 NA
ATOM      7  C   UNL     1       0.672   9.807  19.964  0.00  0.00    +0.000 A 
ATOM      8  C   UNL     1       1.179   8.628  20.483  0.00  0.00    +0.000 A 
ATOM      9  C   UNL     1       0.662   8.564  21.788  0.00  0.00    +0.000 A 
ATOM     10  N   UNL     1      -0.076   9.625  22.115  0.00  0.00    +0.000 NA
ATOM     11  N   UNL     1      -0.071  10.404  20.984  0.00  0.00    +0.000 N 
BRANCH  11  12
ATOM     12  C   UNL     1      -0.738  11.668  20.977  0.00  0.00    +0.000 A 
ATOM     13  C   UNL     1      -0.155  12.763  21.639  0.00  0.00    +0.000 A 
ATOM     14  C   UNL     1      -0.772  14.016  21.612  0.00  0.00    +0.000 A 
ATOM     15  C   UNL     1      -1.973  14.191  20.927  0.00  0.00    +0.000 A 
ATOM     16  C   UNL     1      -2.565  13.111  20.279  0.00  0.00    +0.000 A 
ATOM     17  C   UNL     1      -1.952  11.856  20.302  0.00  0.00    +0.000 A 
ENDBRANCH  11  12
ENDBRANCH   1   3
BRANCH   1  21
ATOM     18  N   UNL     1       4.070   4.096  18.162  0.00  0.00    +0.000 NA
ATOM     19  C   UNL     1       4.098   4.090  19.629  0.00  0.00    +0.000 C 
ATOM     20  C   UNL     1       2.713   4.196  20.260  0.00  0.00    +0.000 C 
ATOM     21  C   UNL     1       1.958   5.419  19.741  0.00  0.00    +0.000 C 
ATOM     22  C   UNL     1       1.871   5.308  18.218  0.00  0.00    +0.000 C 
ATOM     23  C   UNL     1       3.253   5.162  17.578  0.00  0.00    +0.000 C 
BRANCH  18  24
ATOM     24  C   UNL     1       5.428   4.043  17.578  0.00  0.00    +0.000 C 
BRANCH  24  28
ATOM     25  C   UNL     1       8.068   7.422  18.235  0.00  0.00    +0.000 A 
ATOM     26  C   UNL     1       8.133   6.310  19.072  0.00  0.00    +0.000 A 
ATOM     27  C   UNL     1       7.279   5.224  18.860  0.00  0.00    +0.000 A 
ATOM     28  C   UNL     1       6.343   5.235  17.812  0.00  0.00    +0.000 A 
ATOM     29  C   UNL     1       6.291   6.364  16.981  0.00  0.00    +0.000 A 
ATOM     30  C   UNL     1       7.146   7.450  17.192  0.00  0.00    +0.000 A 
ENDBRANCH  24  28
ENDBRANCH  18  24
ENDBRANCH   1  21
TORSDOF 5
ENDMDL
MODEL 8
REMARK VINA RESULT:      -7.5      3.132      9.698
REMARK  Name = 
REMARK  5 active torsions:
REMARK  status: ('A' for Active; 'I' for Inactive)
REMARK    1  A    between atoms: C_4  and  C_5
REMARK    2  A    between atoms: C_5  and  N_6
REMARK    3  A    between atoms: C_9  and  N_10
REMARK    4  A    between atoms: N_10  and  C_11
REMARK    5  A    between atoms: N_19  and  C_20
REMARK                            x       y       z     vdW  Elec       q    Type
REMARK                         _______ _______ _______ _____ _____    ______ ____
ROOT
ATOM      1  N   UNL     1       2.749   6.356  20.139  0.00  0.00    +0.000 N 
ATOM      2  H   UNL     1       3.621   6.160  19.663  0.00  0.00    +0.000 HD
ENDROOT
BRANCH   1   3
ATOM      3  C   UNL     1       2.164   7.544  19.710  0.00  0.00    +0.000 A 
ATOM      4  N   UNL     1       2.439   8.019  18.473  0.00  0.00    +0.000 NA
ATOM      5  C   UNL     1       1.874   9.170  18.077  0.00  0.00    +0.000 A 
ATOM      6  N   UNL     1       1.053   9.961  18.774  0.00  0.00    +0.000 NA
ATOM      7  C   UNL     1       0.789   9.474  20.005  0.00  0.00    +0.000 A 
ATOM      8  C   UNL     1       1.287   8.287  20.515  0.00  0.00    +0.000 A 
ATOM      9  C   UNL     1       0.731   8.192  21.802  0.00  0.00    +0.000 A 
ATOM     10  N   UNL     1      -0.022   9.242  22.128  0.00  0.00    +0.000 NA
ATOM     11  N   UNL     1       0.013  10.045  21.014  0.00  0.00    +0.000 N 
BRANCH  11  12
ATOM     12  C   UNL     1      -0.662  11.306  21.013  0.00  0.00    +0.000 A 
ATOM     13  C   UNL     1      -0.452  12.204  22.074  0.00  0.00    +0.000 A 
ATOM     14  C   UNL     1      -1.071  13.456  22.073  0.00  0.00    +0.000 A 
ATOM     15  C   UNL     1      -1.903  13.825  21.019  0.00  0.00    +0.000 A 
ATOM     16  C   UNL     1      -2.128  12.939  19.970  0.00  0.00    +0.000 A 
ATOM     17  C   UNL     1      -1.510  11.686  19.964  0.00  0.00    +0.000 A 
ENDBRANCH  11  12
ENDBRANCH   1   3
BRANCH   1  21
ATOM     18  N   UNL     1       3.145   3.209  18.558  0.00  0.00    +0.000 NA
ATOM     19  C   UNL     1       3.674   3.490  19.898  0.00  0.00    +0.000 C 
ATOM     20  C   UNL     1       2.611   3.979  20.877  0.00  0.00    +0.000 C 
ATOM     21  C   UNL     1       1.866   5.195  20.326  0.00  0.00    +0.000 C 
ATOM     22  C   UNL     1       1.250   4.801  18.983  0.00  0.00    +0.000 C 
ATOM     23  C   UNL     1       2.303   4.272  18.007  0.00  0.00    +0.000 C 
BRANCH  18  24
ATOM     24  C   UNL     1       4.205   2.784  17.618  0.00  0.00    +0.000 C 
BRANCH  24  28
ATOM     25  C   UNL     1       6.932   5.843  16.194  0.00  0.00    +0.000 A 
ATOM     26  C   UNL     1       5.982   5.297  15.333  0.00  0.00    +0.000 A 
ATOM     27  C   UNL     1       5.108   4.309  15.793  0.00  0.00    +0.000 A 
ATOM     28  C   UNL     1       5.171   3.848  17.119  0.00  0.00    +0.000 A 
ATOM     29  C   UNL     1       6.136   4.409  17.971  0.00  0.00    +0.000 A 
ATOM     30  C   UNL     1       7.009   5.398  17.511  0.00  0.00    +0.000 A 
ENDBRANCH  24  28
ENDBRANCH  18  24
ENDBRANCH   1  21
TORSDOF 5
ENDMDL
MODEL 9
REMARK VINA RESULT:      -7.5      2.601      9.167
REMARK  Name = 
REMARK  5 active torsions:
REMARK  status: ('A' for Active; 'I' for Inactive)
REMARK    1  A    between atoms: C_4  and  C_5
REMARK    2  A    between atoms: C_5  and  N_6
REMARK    3  A    between atoms: C_9  and  N_10
REMARK    4  A    between atoms: N_10  and  C_11
REMARK    5  A    between atoms: N_19  and  C_20
REMARK                            x       y       z     vdW  Elec       q    Type
REMARK                         _______ _______ _______ _____ _____    ______ ____
ROOT
ATOM      1  N   UNL     1       2.726   5.709  20.052  0.00  0.00    +0.000 N 
ATOM      2  H   UNL     1       3.662   5.922  19.731  0.00  0.00    +0.000 HD
ENDROOT
BRANCH   1   3
ATOM      3  C   UNL     1       1.977   6.854  20.309  0.00  0.00    +0.000 A 
ATOM      4  N   UNL     1       1.183   6.905  21.404  0.00  0.00    +0.000 NA
ATOM      5  C   UNL     1       0.460   8.012  21.633  0.00  0.00    +0.000 A 
ATOM      6  N   UNL     1       0.395   9.117  20.883  0.00  0.00    +0.000 NA
ATOM      7  C   UNL     1       1.192   9.050  19.796  0.00  0.00    +0.000 A 
ATOM      8  C   UNL     1       2.004   7.977  19.469  0.00  0.00    +0.000 A 
ATOM      9  C   UNL     1       2.646   8.367  18.281  0.00  0.00    +0.000 A 
ATOM     10  N   UNL     1       2.257   9.563  17.841  0.00  0.00    +0.000 NA
ATOM     11  N   UNL     1       1.348   9.992  18.778  0.00  0.00    +0.000 N 
BRANCH  11  12
ATOM     12  C   UNL     1       0.677  11.242  18.610  0.00  0.00    +0.000 A 
ATOM     13  C   UNL     1      -0.711  11.258  18.383  0.00  0.00    +0.000 A 
ATOM     14  C   UNL     1      -1.392  12.470  18.256  0.00  0.00    +0.000 A 
ATOM     15  C   UNL     1      -0.701  13.676  18.353  0.00  0.00    +0.000 A 
ATOM     16  C   UNL     1       0.674  13.672  18.565  0.00  0.00    +0.000 A 
ATOM     17  C   UNL     1       1.361  12.463  18.694  0.00  0.00    +0.000 A 
ENDBRANCH  11  12
ENDBRANCH   1   3
BRANCH   1  21
ATOM     18  N   UNL     1       4.183   3.755  17.479  0.00  0.00    +0.000 NA
ATOM     19  C   UNL     1       4.187   3.335  18.886  0.00  0.00    +0.000 C 
ATOM     20  C   UNL     1       2.793   3.278  19.503  0.00  0.00    +0.000 C 
ATOM     21  C   UNL     1       2.059   4.609  19.340  0.00  0.00    +0.000 C 
ATOM     22  C   UNL     1       1.995   4.931  17.846  0.00  0.00    +0.000 C 
ATOM     23  C   UNL     1       3.386   4.953  17.209  0.00  0.00    +0.000 C 
BRANCH  18  24
ATOM     24  C   UNL     1       5.550   3.849  16.921  0.00  0.00    +0.000 C 
BRANCH  24  28
ATOM     25  C   UNL     1       8.038   7.114  18.326  0.00  0.00    +0.000 A 
ATOM     26  C   UNL     1       7.312   7.245  17.144  0.00  0.00    +0.000 A 
ATOM     27  C   UNL     1       6.515   6.191  16.691  0.00  0.00    +0.000 A 
ATOM     28  C   UNL     1       6.433   4.987  17.411  0.00  0.00    +0.000 A 
ATOM     29  C   UNL     1       7.172   4.872  18.598  0.00  0.00    +0.000 A 
ATOM     30  C   UNL     1       7.969   5.927  19.051  0.00  0.00    +0.000 A 
ENDBRANCH  24  28
ENDBRANCH  18  24
ENDBRANCH   1  21
TORSDOF 5
ENDMDL
