MODEL 1
REMARK VINA RESULT:      -8.4      0.000      0.000
REMARK  Name = 
REMARK  7 active torsions:
REMARK  status: ('A' for Active; 'I' for Inactive)
REMARK    1  A    between atoms: C_1  and  C_2
REMARK    2  A    between atoms: C_5  and  C_6
REMARK    3  A    between atoms: C_6  and  O_8
REMARK    4  A    between atoms: C_10  and  S_11
REMARK    5  A    between atoms: S_11  and  N_14
REMARK    6  A    between atoms: N_14  and  C_15
REMARK    7  A    between atoms: C_20  and  N_21
REMARK                            x       y       z     vdW  Elec       q    Type
REMARK                         _______ _______ _______ _____ _____    ______ ____
ROOT
ATOM      1  S   UNL     1       2.584   3.058  18.213  0.00  0.00    +0.000 S 
ATOM      2  O   UNL     1       1.924   2.017  18.974  0.00  0.00    +0.000 OA
ATOM      3  O   UNL     1       2.317   3.208  16.800  0.00  0.00    +0.000 OA
ENDROOT
BRANCH   1  10
ATOM      4  C   UNL     1       2.013   3.616  21.387  0.00  0.00    +0.000 C 
ATOM      5  C   UNL     1       2.049   4.761  20.416  0.00  0.00    +0.000 A 
ATOM      6  C   UNL     1       1.909   6.062  20.941  0.00  0.00    +0.000 A 
ATOM      7  C   UNL     1       1.972   7.188  20.119  0.00  0.00    +0.000 A 
ATOM      8  C   UNL     1       2.178   7.041  18.747  0.00  0.00    +0.000 A 
ATOM      9  C   UNL     1       2.286   5.759  18.198  0.00  0.00    +0.000 A 
ATOM     10  C   UNL     1       2.236   4.619  19.024  0.00  0.00    +0.000 A 
BRANCH   8  11
ATOM     11  C   UNL     1       2.265   8.267  17.915  0.00  0.00    +0.000 C 
ATOM     12  O   UNL     1       3.052   8.376  16.990  0.00  0.00    +0.000 OA
BRANCH  11  13
ATOM     13  O   UNL     1       1.368   9.221  18.236  0.00  0.00    +0.000 OA
ATOM     14  H   UNL     1       0.430   8.998  18.088  0.00  0.00    +0.000 HD
ENDBRANCH  11  13
ENDBRANCH   8  11
ENDBRANCH   1  10
BRANCH   1  15
ATOM     15  N   UNL     1       4.251   2.888  18.351  0.00  0.00    +0.000 N 
ATOM     16  H   UNL     1       4.508   2.583  19.291  0.00  0.00    +0.000 HD
BRANCH  15  17
ATOM     17  C   UNL     1       5.129   3.826  17.734  0.00  0.00    +0.000 A 
ATOM     18  C   UNL     1       5.868   4.723  18.492  0.00  0.00    +0.000 A 
ATOM     19  C   UNL     1       6.803   5.521  17.847  0.00  0.00    +0.000 A 
ATOM     20  F   UNL     1       7.547   6.374  18.568  0.00  0.00    +0.000 F 
ATOM     21  C   UNL     1       7.009   5.438  16.470  0.00  0.00    +0.000 A 
ATOM     22  C   UNL     1       6.263   4.556  15.676  0.00  0.00    +0.000 A 
ATOM     23  C   UNL     1       5.316   3.759  16.350  0.00  0.00    +0.000 A 
BRANCH  22  24
ATOM     24  N   UNL     1       6.439   4.467  14.315  0.00  0.00    +0.000 N 
ATOM     25  C   UNL     1       5.533   3.803  13.384  0.00  0.00    +0.000 C 
ATOM     26  C   UNL     1       6.442   3.457  12.212  0.00  0.00    +0.000 C 
ATOM     27  C   UNL     1       7.397   4.637  12.149  0.00  0.00    +0.000 C 
ATOM     28  C   UNL     1       7.569   5.066  13.604  0.00  0.00    +0.000 C 
ENDBRANCH  22  24
ENDBRANCH  15  17
ENDBRANCH   1  15
TORSDOF 6
ENDMDL
MODEL 2
REMARK VINA RESULT:      -8.2      3.638      7.494
REMARK  Name = 
REMARK  7 active torsions:
REMARK  status: ('A' for Active; 'I' for Inactive)
REMARK    1  A    between atoms: C_1  and  C_2
REMARK    2  A    between atoms: C_5  and  C_6
REMARK    3  A    between atoms: C_6  and  O_8
REMARK    4  A    between atoms: C_10  and  S_11
REMARK    5  A    between atoms: S_11  and  N_14
REMARK    6  A    between atoms: N_14  and  C_15
REMARK    7  A    between atoms: C_20  and  N_21
REMARK                            x       y       z     vdW  Elec       q    Type
REMARK                         _______ _______ _______ _____ _____    ______ ____
ROOT
ATOM      1  S   UNL     1       2.465   4.224  19.939  0.00  0.00    +0.000 S 
ATOM      2  O   UNL     1       1.281   4.308  19.108  0.00  0.00    +0.000 OA
ATOM      3  O   UNL     1       2.625   3.130  20.871  0.00  0.00    +0.000 OA
ENDROOT
BRANCH   1  10
ATOM      4  C   UNL     1       2.682   3.170  16.848  0.00  0.00    +0.000 C 
ATOM      5  C   UNL     1       3.867   3.814  17.509  0.00  0.00    +0.000 A 
ATOM      6  C   UNL     1       5.021   4.010  16.723  0.00  0.00    +0.000 A 
ATOM      7  C   UNL     1       6.155   4.638  17.241  0.00  0.00    +0.000 A 
ATOM      8  C   UNL     1       6.163   5.088  18.562  0.00  0.00    +0.000 A 
ATOM      9  C   UNL     1       5.042   4.875  19.371  0.00  0.00    +0.000 A 
ATOM     10  C   UNL     1       3.889   4.253  18.851  0.00  0.00    +0.000 A 
BRANCH   8  11
ATOM     11  C   UNL     1       7.380   5.774  19.062  0.00  0.00    +0.000 C 
ATOM     12  O   UNL     1       7.954   6.638  18.422  0.00  0.00    +0.000 OA
BRANCH  11  13
ATOM     13  O   UNL     1       7.760   5.397  20.300  0.00  0.00    +0.000 OA
ATOM     14  H   UNL     1       7.529   4.486  20.562  0.00  0.00    +0.000 HD
ENDBRANCH  11  13
ENDBRANCH   8  11
ENDBRANCH   1  10
BRANCH   1  15
ATOM     15  N   UNL     1       2.617   5.630  20.850  0.00  0.00    +0.000 N 
ATOM     16  H   UNL     1       2.356   5.461  21.823  0.00  0.00    +0.000 HD
BRANCH  15  17
ATOM     17  C   UNL     1       2.233   6.890  20.306  0.00  0.00    +0.000 A 
ATOM     18  C   UNL     1       2.417   7.177  18.961  0.00  0.00    +0.000 A 
ATOM     19  C   UNL     1       1.903   8.367  18.463  0.00  0.00    +0.000 A 
ATOM     20  F   UNL     1       2.047   8.649  17.158  0.00  0.00    +0.000 F 
ATOM     21  C   UNL     1       1.217   9.266  19.279  0.00  0.00    +0.000 A 
ATOM     22  C   UNL     1       1.035   9.011  20.645  0.00  0.00    +0.000 A 
ATOM     23  C   UNL     1       1.567   7.801  21.132  0.00  0.00    +0.000 A 
BRANCH  22  24
ATOM     24  N   UNL     1       0.374   9.890  21.472  0.00  0.00    +0.000 N 
ATOM     25  C   UNL     1       0.002   9.633  22.860  0.00  0.00    +0.000 C 
ATOM     26  C   UNL     1      -1.173  10.576  23.078  0.00  0.00    +0.000 C 
ATOM     27  C   UNL     1      -0.799  11.799  22.259  0.00  0.00    +0.000 C 
ATOM     28  C   UNL     1      -0.028  11.237  21.066  0.00  0.00    +0.000 C 
ENDBRANCH  22  24
ENDBRANCH  15  17
ENDBRANCH   1  15
TORSDOF 6
ENDMDL
MODEL 3
REMARK VINA RESULT:      -8.0      0.257      1.034
REMARK  Name = 
REMARK  7 active torsions:
REMARK  status: ('A' for Active; 'I' for Inactive)
REMARK    1  A    between atoms: C_1  and  C_2
REMARK    2  A    between atoms: C_5  and  C_6
REMARK    3  A    between atoms: C_6  and  O_8
REMARK    4  A    between atoms: C_10  and  S_11
REMARK    5  A    between atoms: S_11  and  N_14
REMARK    6  A    between atoms: N_14  and  C_15
REMARK    7  A    between atoms: C_20  and  N_21
REMARK                            x       y       z     vdW  Elec       q    Type
REMARK                         _______ _______ _______ _____ _____    ______ ____
ROOT
ATOM      1  S   UNL     1       2.740   3.108  18.174  0.00  0.00    +0.000 S 
ATOM      2  O   UNL     1       2.137   2.023  18.922  0.00  0.00    +0.000 OA
ATOM      3  O   UNL     1       2.467   3.261  16.763  0.00  0.00    +0.000 OA
ENDROOT
BRANCH   1  10
ATOM      4  C   UNL     1       2.032   3.575  21.336  0.00  0.00    +0.000 C 
ATOM      5  C   UNL     1       2.062   4.742  20.391  0.00  0.00    +0.000 A 
ATOM      6  C   UNL     1       1.856   6.025  20.937  0.00  0.00    +0.000 A 
ATOM      7  C   UNL     1       1.909   7.171  20.141  0.00  0.00    +0.000 A 
ATOM      8  C   UNL     1       2.171   7.062  18.776  0.00  0.00    +0.000 A 
ATOM      9  C   UNL     1       2.345   5.797  18.204  0.00  0.00    +0.000 A 
ATOM     10  C   UNL     1       2.306   4.637  19.004  0.00  0.00    +0.000 A 
BRANCH   8  11
ATOM     11  C   UNL     1       2.244   8.308  17.973  0.00  0.00    +0.000 C 
ATOM     12  O   UNL     1       1.609   9.308  18.259  0.00  0.00    +0.000 OA
BRANCH  11  13
ATOM     13  O   UNL     1       3.109   8.253  16.940  0.00  0.00    +0.000 OA
ATOM     14  H   UNL     1       3.959   8.714  17.065  0.00  0.00    +0.000 HD
ENDBRANCH  11  13
ENDBRANCH   8  11
ENDBRANCH   1  10
BRANCH   1  15
ATOM     15  N   UNL     1       4.414   3.028  18.313  0.00  0.00    +0.000 N 
ATOM     16  H   UNL     1       4.687   2.773  19.263  0.00  0.00    +0.000 HD
BRANCH  15  17
ATOM     17  C   UNL     1       5.242   3.985  17.657  0.00  0.00    +0.000 A 
ATOM     18  C   UNL     1       5.832   5.025  18.360  0.00  0.00    +0.000 A 
ATOM     19  C   UNL     1       6.733   5.846  17.695  0.00  0.00    +0.000 A 
ATOM     20  F   UNL     1       7.334   6.841  18.367  0.00  0.00    +0.000 F 
ATOM     21  C   UNL     1       7.049   5.647  16.352  0.00  0.00    +0.000 A 
ATOM     22  C   UNL     1       6.453   4.617  15.611  0.00  0.00    +0.000 A 
ATOM     23  C   UNL     1       5.539   3.798  16.303  0.00  0.00    +0.000 A 
BRANCH  22  24
ATOM     24  N   UNL     1       6.739   4.411  14.282  0.00  0.00    +0.000 N 
ATOM     25  C   UNL     1       7.826   5.040  13.539  0.00  0.00    +0.000 C 
ATOM     26  C   UNL     1       7.333   4.983  12.099  0.00  0.00    +0.000 C 
ATOM     27  C   UNL     1       6.594   3.658  12.034  0.00  0.00    +0.000 C 
ATOM     28  C   UNL     1       5.988   3.491  13.426  0.00  0.00    +0.000 C 
ENDBRANCH  22  24
ENDBRANCH  15  17
ENDBRANCH   1  15
TORSDOF 6
ENDMDL
MODEL 4
REMARK VINA RESULT:      -8.0      3.765      7.619
REMARK  Name = 
REMARK  7 active torsions:
REMARK  status: ('A' for Active; 'I' for Inactive)
REMARK    1  A    between atoms: C_1  and  C_2
REMARK    2  A    between atoms: C_5  and  C_6
REMARK    3  A    between atoms: C_6  and  O_8
REMARK    4  A    between atoms: C_10  and  S_11
REMARK    5  A    between atoms: S_11  and  N_14
REMARK    6  A    between atoms: N_14  and  C_15
REMARK    7  A    between atoms: C_20  and  N_21
REMARK                            x       y       z     vdW  Elec       q    Type
REMARK                         _______ _______ _______ _____ _____    ______ ____
ROOT
ATOM      1  S   UNL     1       2.231   4.462  20.280  0.00  0.00    +0.000 S 
ATOM      2  O   UNL     1       0.985   4.526  19.544  0.00  0.00    +0.000 OA
ATOM      3  O   UNL     1       2.420   3.462  21.306  0.00  0.00    +0.000 OA
ENDROOT
BRANCH   1  10
ATOM      4  C   UNL     1       2.084   3.261  17.239  0.00  0.00    +0.000 C 
ATOM      5  C   UNL     1       3.377   3.809  17.770  0.00  0.00    +0.000 A 
ATOM      6  C   UNL     1       4.474   3.855  16.886  0.00  0.00    +0.000 A 
ATOM      7  C   UNL     1       5.703   4.388  17.280  0.00  0.00    +0.000 A 
ATOM      8  C   UNL     1       5.866   4.891  18.571  0.00  0.00    +0.000 A 
ATOM      9  C   UNL     1       4.801   4.826  19.476  0.00  0.00    +0.000 A 
ATOM     10  C   UNL     1       3.555   4.301  19.081  0.00  0.00    +0.000 A 
BRANCH   8  11
ATOM     11  C   UNL     1       7.181   5.471  18.938  0.00  0.00    +0.000 C 
ATOM     12  O   UNL     1       7.601   5.468  20.082  0.00  0.00    +0.000 OA
BRANCH  11  13
ATOM     13  O   UNL     1       7.886   5.952  17.894  0.00  0.00    +0.000 OA
ATOM     14  H   UNL     1       8.334   5.290  17.335  0.00  0.00    +0.000 HD
ENDBRANCH  11  13
ENDBRANCH   8  11
ENDBRANCH   1  10
BRANCH   1  15
ATOM     15  N   UNL     1       2.527   5.943  21.021  0.00  0.00    +0.000 N 
ATOM     16  H   UNL     1       2.396   5.875  22.031  0.00  0.00    +0.000 HD
BRANCH  15  17
ATOM     17  C   UNL     1       2.095   7.157  20.412  0.00  0.00    +0.000 A 
ATOM     18  C   UNL     1       2.398   7.443  19.088  0.00  0.00    +0.000 A 
ATOM     19  C   UNL     1       1.840   8.575  18.512  0.00  0.00    +0.000 A 
ATOM     20  F   UNL     1       2.100   8.853  17.225  0.00  0.00    +0.000 F 
ATOM     21  C   UNL     1       0.991   9.418  19.229  0.00  0.00    +0.000 A 
ATOM     22  C   UNL     1       0.683   9.165  20.573  0.00  0.00    +0.000 A 
ATOM     23  C   UNL     1       1.264   8.013  21.140  0.00  0.00    +0.000 A 
BRANCH  22  24
ATOM     24  N   UNL     1      -0.139   9.990  21.304  0.00  0.00    +0.000 N 
ATOM     25  C   UNL     1      -0.840  11.162  20.791  0.00  0.00    +0.000 C 
ATOM     26  C   UNL     1      -1.052  12.007  22.040  0.00  0.00    +0.000 C 
ATOM     27  C   UNL     1      -1.307  10.974  23.123  0.00  0.00    +0.000 C 
ATOM     28  C   UNL     1      -0.446   9.778  22.720  0.00  0.00    +0.000 C 
ENDBRANCH  22  24
ENDBRANCH  15  17
ENDBRANCH   1  15
TORSDOF 6
ENDMDL
MODEL 5
REMARK VINA RESULT:      -7.9      3.763      7.604
REMARK  Name = 
REMARK  7 active torsions:
REMARK  status: ('A' for Active; 'I' for Inactive)
REMARK    1  A    between atoms: C_1  and  C_2
REMARK    2  A    between atoms: C_5  and  C_6
REMARK    3  A    between atoms: C_6  and  O_8
REMARK    4  A    between atoms: C_10  and  S_11
REMARK    5  A    between atoms: S_11  and  N_14
REMARK    6  A    between atoms: N_14  and  C_15
REMARK    7  A    between atoms: C_20  and  N_21
REMARK                            x       y       z     vdW  Elec       q    Type
REMARK                         _______ _______ _______ _____ _____    ______ ____
ROOT
ATOM      1  S   UNL     1       1.864   4.532  20.807  0.00  0.00    +0.000 S 
ATOM      2  O   UNL     1       0.509   4.709  20.325  0.00  0.00    +0.000 OA
ATOM      3  O   UNL     1       2.125   3.695  21.957  0.00  0.00    +0.000 OA
ENDROOT
BRANCH   1  10
ATOM      4  C   UNL     1       1.064   2.286  18.565  0.00  0.00    +0.000 C 
ATOM      5  C   UNL     1       2.390   2.986  18.489  0.00  0.00    +0.000 A 
ATOM      6  C   UNL     1       3.216   2.694  17.384  0.00  0.00    +0.000 A 
ATOM      7  C   UNL     1       4.447   3.329  17.209  0.00  0.00    +0.000 A 
ATOM      8  C   UNL     1       4.883   4.276  18.136  0.00  0.00    +0.000 A 
ATOM      9  C   UNL     1       4.097   4.558  19.258  0.00  0.00    +0.000 A 
ATOM     10  C   UNL     1       2.848   3.930  19.434  0.00  0.00    +0.000 A 
BRANCH   8  11
ATOM     11  C   UNL     1       6.186   4.945  17.896  0.00  0.00    +0.000 C 
ATOM     12  O   UNL     1       6.282   6.148  17.726  0.00  0.00    +0.000 OA
BRANCH  11  13
ATOM     13  O   UNL     1       7.250   4.118  17.934  0.00  0.00    +0.000 OA
ATOM     14  H   UNL     1       7.191   3.369  18.556  0.00  0.00    +0.000 HD
ENDBRANCH  11  13
ENDBRANCH   8  11
ENDBRANCH   1  10
BRANCH   1  15
ATOM     15  N   UNL     1       2.537   6.031  21.167  0.00  0.00    +0.000 N 
ATOM     16  H   UNL     1       2.726   6.112  22.167  0.00  0.00    +0.000 HD
BRANCH  15  17
ATOM     17  C   UNL     1       2.067   7.210  20.519  0.00  0.00    +0.000 A 
ATOM     18  C   UNL     1       2.320   7.438  19.174  0.00  0.00    +0.000 A 
ATOM     19  C   UNL     1       1.726   8.536  18.566  0.00  0.00    +0.000 A 
ATOM     20  F   UNL     1       1.937   8.757  17.260  0.00  0.00    +0.000 F 
ATOM     21  C   UNL     1       0.892   9.401  19.275  0.00  0.00    +0.000 A 
ATOM     22  C   UNL     1       0.636   9.207  20.639  0.00  0.00    +0.000 A 
ATOM     23  C   UNL     1       1.251   8.090  21.237  0.00  0.00    +0.000 A 
BRANCH  22  24
ATOM     24  N   UNL     1      -0.171  10.055  21.361  0.00  0.00    +0.000 N 
ATOM     25  C   UNL     1      -0.794  11.273  20.852  0.00  0.00    +0.000 C 
ATOM     26  C   UNL     1      -1.010  12.098  22.113  0.00  0.00    +0.000 C 
ATOM     27  C   UNL     1      -1.355  11.054  23.161  0.00  0.00    +0.000 C 
ATOM     28  C   UNL     1      -0.540   9.827  22.759  0.00  0.00    +0.000 C 
ENDBRANCH  22  24
ENDBRANCH  15  17
ENDBRANCH   1  15
TORSDOF 6
ENDMDL
MODEL 6
REMARK VINA RESULT:      -7.5      3.148      7.569
REMARK  Name = 
REMARK  7 active torsions:
REMARK  status: ('A' for Active; 'I' for Inactive)
REMARK    1  A    between atoms: C_1  and  C_2
REMARK    2  A    between atoms: C_5  and  C_6
REMARK    3  A    between atoms: C_6  and  O_8
REMARK    4  A    between atoms: C_10  and  S_11
REMARK    5  A    between atoms: S_11  and  N_14
REMARK    6  A    between atoms: N_14  and  C_15
REMARK    7  A    between atoms: C_20  and  N_21
REMARK                            x       y       z     vdW  Elec       q    Type
REMARK                         _______ _______ _______ _____ _____    ______ ____
ROOT
ATOM      1  S   UNL     1       4.538   4.253  17.280  0.00  0.00    +0.000 S 
ATOM      2  O   UNL     1       3.561   3.258  16.886  0.00  0.00    +0.000 OA
ATOM      3  O   UNL     1       5.395   4.021  18.421  0.00  0.00    +0.000 OA
ENDROOT
BRANCH   1  10
ATOM      4  C   UNL     1       7.211   6.134  17.101  0.00  0.00    +0.000 C 
ATOM      5  C   UNL     1       6.738   5.380  15.891  0.00  0.00    +0.000 A 
ATOM      6  C   UNL     1       7.531   5.457  14.728  0.00  0.00    +0.000 A 
ATOM      7  C   UNL     1       7.191   4.755  13.569  0.00  0.00    +0.000 A 
ATOM      8  C   UNL     1       6.048   3.956  13.546  0.00  0.00    +0.000 A 
ATOM      9  C   UNL     1       5.228   3.890  14.677  0.00  0.00    +0.000 A 
ATOM     10  C   UNL     1       5.571   4.586  15.853  0.00  0.00    +0.000 A 
BRANCH   8  11
ATOM     11  C   UNL     1       5.740   3.207  12.302  0.00  0.00    +0.000 C 
ATOM     12  O   UNL     1       4.682   3.330  11.710  0.00  0.00    +0.000 OA
BRANCH  11  13
ATOM     13  O   UNL     1       6.747   2.426  11.861  0.00  0.00    +0.000 OA
ATOM     14  H   UNL     1       6.604   1.983  11.004  0.00  0.00    +0.000 HD
ENDBRANCH  11  13
ENDBRANCH   8  11
ENDBRANCH   1  10
BRANCH   1  15
ATOM     15  N   UNL     1       3.765   5.717  17.576  0.00  0.00    +0.000 N 
ATOM     16  H   UNL     1       4.397   6.501  17.409  0.00  0.00    +0.000 HD
BRANCH  15  17
ATOM     17  C   UNL     1       2.871   5.855  18.678  0.00  0.00    +0.000 A 
ATOM     18  C   UNL     1       2.475   4.753  19.422  0.00  0.00    +0.000 A 
ATOM     19  C   UNL     1       1.711   4.965  20.562  0.00  0.00    +0.000 A 
ATOM     20  F   UNL     1       1.342   3.913  21.310  0.00  0.00    +0.000 F 
ATOM     21  C   UNL     1       1.340   6.247  20.965  0.00  0.00    +0.000 A 
ATOM     22  C   UNL     1       1.709   7.377  20.222  0.00  0.00    +0.000 A 
ATOM     23  C   UNL     1       2.480   7.140  19.067  0.00  0.00    +0.000 A 
BRANCH  22  24
ATOM     24  N   UNL     1       1.342   8.649  20.592  0.00  0.00    +0.000 N 
ATOM     25  C   UNL     1       1.212   9.130  21.964  0.00  0.00    +0.000 C 
ATOM     26  C   UNL     1       0.237  10.292  21.827  0.00  0.00    +0.000 C 
ATOM     27  C   UNL     1       0.608  10.906  20.489  0.00  0.00    +0.000 C 
ATOM     28  C   UNL     1       1.055   9.720  19.636  0.00  0.00    +0.000 C 
ENDBRANCH  22  24
ENDBRANCH  15  17
ENDBRANCH   1  15
TORSDOF 6
ENDMDL
MODEL 7
REMARK VINA RESULT:      -7.5      1.812      3.164
REMARK  Name = 
REMARK  7 active torsions:
REMARK  status: ('A' for Active; 'I' for Inactive)
REMARK    1  A    between atoms: C_1  and  C_2
REMARK    2  A    between atoms: C_5  and  C_6
REMARK    3  A    between atoms: C_6  and  O_8
REMARK    4  A    between atoms: C_10  and  S_11
REMARK    5  A    between atoms: S_11  and  N_14
REMARK    6  A    between atoms: N_14  and  C_15
REMARK    7  A    between atoms: C_20  and  N_21
REMARK                            x       y       z     vdW  Elec       q    Type
REMARK                         _______ _______ _______ _____ _____    ______ ____
ROOT
ATOM      1  S   UNL     1       2.535   2.960  18.201  0.00  0.00    +0.000 S 
ATOM      2  O   UNL     1       1.994   1.910  19.040  0.00  0.00    +0.000 OA
ATOM      3  O   UNL     1       2.116   3.080  16.822  0.00  0.00    +0.000 OA
ENDROOT
BRANCH   1  10
ATOM      4  C   UNL     1       2.046   3.511  21.391  0.00  0.00    +0.000 C 
ATOM      5  C   UNL     1       2.068   4.659  20.423  0.00  0.00    +0.000 A 
ATOM      6  C   UNL     1       1.952   5.959  20.956  0.00  0.00    +0.000 A 
ATOM      7  C   UNL     1       2.005   7.088  20.136  0.00  0.00    +0.000 A 
ATOM      8  C   UNL     1       2.177   6.945  18.759  0.00  0.00    +0.000 A 
ATOM      9  C   UNL     1       2.260   5.664  18.203  0.00  0.00    +0.000 A 
ATOM     10  C   UNL     1       2.220   4.521  19.026  0.00  0.00    +0.000 A 
BRANCH   8  11
ATOM     11  C   UNL     1       2.254   8.173  17.929  0.00  0.00    +0.000 C 
ATOM     12  O   UNL     1       3.037   8.288  17.003  0.00  0.00    +0.000 OA
BRANCH  11  13
ATOM     13  O   UNL     1       1.352   9.121  18.256  0.00  0.00    +0.000 OA
ATOM     14  H   UNL     1       1.323   9.381  19.196  0.00  0.00    +0.000 HD
ENDBRANCH  11  13
ENDBRANCH   8  11
ENDBRANCH   1  10
BRANCH   1  15
ATOM     15  N   UNL     1       4.212   2.848  18.165  0.00  0.00    +0.000 N 
ATOM     16  H   UNL     1       4.587   2.707  19.104  0.00  0.00    +0.000 HD
BRANCH  15  17
ATOM     17  C   UNL     1       4.976   3.687  17.303  0.00  0.00    +0.000 A 
ATOM     18  C   UNL     1       4.946   3.519  15.926  0.00  0.00    +0.000 A 
ATOM     19  C   UNL     1       5.604   4.448  15.132  0.00  0.00    +0.000 A 
ATOM     20  F   UNL     1       5.562   4.318  13.797  0.00  0.00    +0.000 F 
ATOM     21  C   UNL     1       6.286   5.531  15.686  0.00  0.00    +0.000 A 
ATOM     22  C   UNL     1       6.351   5.714  17.074  0.00  0.00    +0.000 A 
ATOM     23  C   UNL     1       5.680   4.758  17.862  0.00  0.00    +0.000 A 
BRANCH  22  24
ATOM     24  N   UNL     1       7.029   6.766  17.644  0.00  0.00    +0.000 N 
ATOM     25  C   UNL     1       6.831   8.177  17.325  0.00  0.00    +0.000 C 
ATOM     26  C   UNL     1       8.163   8.805  17.713  0.00  0.00    +0.000 C 
ATOM     27  C   UNL     1       8.580   8.013  18.940  0.00  0.00    +0.000 C 
ATOM     28  C   UNL     1       8.043   6.606  18.687  0.00  0.00    +0.000 C 
ENDBRANCH  22  24
ENDBRANCH  15  17
ENDBRANCH   1  15
TORSDOF 6
ENDMDL
MODEL 8
REMARK VINA RESULT:      -7.3      7.363     10.893
REMARK  Name = 
REMARK  7 active torsions:
REMARK  status: ('A' for Active; 'I' for Inactive)
REMARK    1  A    between atoms: C_1  and  C_2
REMARK    2  A    between atoms: C_5  and  C_6
REMARK    3  A    between atoms: C_6  and  O_8
REMARK    4  A    between atoms: C_10  and  S_11
REMARK    5  A    between atoms: S_11  and  N_14
REMARK    6  A    between atoms: N_14  and  C_15
REMARK    7  A    between atoms: C_20  and  N_21
REMARK                            x       y       z     vdW  Elec       q    Type
REMARK                         _______ _______ _______ _____ _____    ______ ____
ROOT
ATOM      1  S   UNL     1       0.289  10.663  18.674  0.00  0.00    +0.000 S 
ATOM      2  O   UNL     1       1.670  11.094  18.585  0.00  0.00    +0.000 OA
ATOM      3  O   UNL     1      -0.173   9.535  17.896  0.00  0.00    +0.000 OA
ENDROOT
BRANCH   1  10
ATOM      4  C   UNL     1       1.401   8.226  20.555  0.00  0.00    +0.000 C 
ATOM      5  C   UNL     1       0.508   9.281  21.140  0.00  0.00    +0.000 A 
ATOM      6  C   UNL     1       0.247   9.216  22.524  0.00  0.00    +0.000 A 
ATOM      7  C   UNL     1      -0.538  10.179  23.162  0.00  0.00    +0.000 A 
ATOM      8  C   UNL     1      -1.082  11.235  22.430  0.00  0.00    +0.000 A 
ATOM      9  C   UNL     1      -0.865  11.302  21.050  0.00  0.00    +0.000 A 
ATOM     10  C   UNL     1      -0.063  10.341  20.402  0.00  0.00    +0.000 A 
BRANCH   8  11
ATOM     11  C   UNL     1      -1.887  12.250  23.154  0.00  0.00    +0.000 C 
ATOM     12  O   UNL     1      -1.436  13.337  23.471  0.00  0.00    +0.000 OA
BRANCH  11  13
ATOM     13  O   UNL     1      -3.165  11.886  23.380  0.00  0.00    +0.000 OA
ATOM     14  H   UNL     1      -3.295  11.077  23.910  0.00  0.00    +0.000 HD
ENDBRANCH  11  13
ENDBRANCH   8  11
ENDBRANCH   1  10
BRANCH   1  15
ATOM     15  N   UNL     1      -0.729  11.942  18.279  0.00  0.00    +0.000 N 
ATOM     16  H   UNL     1      -0.664  12.685  18.976  0.00  0.00    +0.000 HD
BRANCH  15  17
ATOM     17  C   UNL     1      -2.026  11.696  17.741  0.00  0.00    +0.000 A 
ATOM     18  C   UNL     1      -2.190  11.256  16.436  0.00  0.00    +0.000 A 
ATOM     19  C   UNL     1      -3.464  10.907  16.010  0.00  0.00    +0.000 A 
ATOM     20  F   UNL     1      -3.638  10.452  14.759  0.00  0.00    +0.000 F 
ATOM     21  C   UNL     1      -4.567  10.991  16.860  0.00  0.00    +0.000 A 
ATOM     22  C   UNL     1      -4.434  11.451  18.178  0.00  0.00    +0.000 A 
ATOM     23  C   UNL     1      -3.134  11.804  18.588  0.00  0.00    +0.000 A 
BRANCH  22  24
ATOM     24  N   UNL     1      -5.510  11.556  19.029  0.00  0.00    +0.000 N 
ATOM     25  C   UNL     1      -5.678  12.571  20.063  0.00  0.00    +0.000 C 
ATOM     26  C   UNL     1      -6.621  11.899  21.051  0.00  0.00    +0.000 C 
ATOM     27  C   UNL     1      -7.546  11.090  20.158  0.00  0.00    +0.000 C 
ATOM     28  C   UNL     1      -6.664  10.657  18.989  0.00  0.00    +0.000 C 
ENDBRANCH  22  24
ENDBRANCH  15  17
ENDBRANCH   1  15
TORSDOF 6
ENDMDL
MODEL 9
REMARK VINA RESULT:      -7.3      7.426     10.877
REMARK  Name = 
REMARK  7 active torsions:
REMARK  status: ('A' for Active; 'I' for Inactive)
REMARK    1  A    between atoms: C_1  and  C_2
REMARK    2  A    between atoms: C_5  and  C_6
REMARK    3  A    between atoms: C_6  and  O_8
REMARK    4  A    between atoms: C_10  and  S_11
REMARK    5  A    between atoms: S_11  and  N_14
REMARK    6  A    between atoms: N_14  and  C_15
REMARK    7  A    between atoms: C_20  and  N_21
REMARK                            x       y       z     vdW  Elec       q    Type
REMARK                         _______ _______ _______ _____ _____    ______ ____
ROOT
ATOM      1  S   UNL     1       0.162  11.220  18.869  0.00  0.00    +0.000 S 
ATOM      2  O   UNL     1      -0.331  12.567  18.666  0.00  0.00    +0.000 OA
ATOM      3  O   UNL     1       1.558  10.915  18.650  0.00  0.00    +0.000 OA
ENDROOT
BRANCH   1  10
ATOM      4  C   UNL     1       1.182   8.607  20.556  0.00  0.00    +0.000 C 
ATOM      5  C   UNL     1       0.267   9.609  21.200  0.00  0.00    +0.000 A 
ATOM      6  C   UNL     1      -0.054   9.414  22.559  0.00  0.00    +0.000 A 
ATOM      7  C   UNL     1      -0.863  10.318  23.251  0.00  0.00    +0.000 A 
ATOM      8  C   UNL     1      -1.371  11.442  22.599  0.00  0.00    +0.000 A 
ATOM      9  C   UNL     1      -1.093  11.639  21.243  0.00  0.00    +0.000 A 
ATOM     10  C   UNL     1      -0.267  10.738  20.542  0.00  0.00    +0.000 A 
BRANCH   8  11
ATOM     11  C   UNL     1      -2.204  12.389  23.381  0.00  0.00    +0.000 C 
ATOM     12  O   UNL     1      -1.849  13.531  23.618  0.00  0.00    +0.000 OA
BRANCH  11  13
ATOM     13  O   UNL     1      -3.402  11.896  23.756  0.00  0.00    +0.000 OA
ATOM     14  H   UNL     1      -3.694  12.117  24.661  0.00  0.00    +0.000 HD
ENDBRANCH  11  13
ENDBRANCH   8  11
ENDBRANCH   1  10
BRANCH   1  15
ATOM     15  N   UNL     1      -0.700  10.150  17.900  0.00  0.00    +0.000 N 
ATOM     16  H   UNL     1      -0.071   9.631  17.285  0.00  0.00    +0.000 HD
BRANCH  15  17
ATOM     17  C   UNL     1      -1.955  10.528  17.342  0.00  0.00    +0.000 A 
ATOM     18  C   UNL     1      -2.191  10.434  15.978  0.00  0.00    +0.000 A 
ATOM     19  C   UNL     1      -3.472  10.690  15.508  0.00  0.00    +0.000 A 
ATOM     20  F   UNL     1      -3.725  10.577  14.195  0.00  0.00    +0.000 F 
ATOM     21  C   UNL     1      -4.511  11.035  16.372  0.00  0.00    +0.000 A 
ATOM     22  C   UNL     1      -4.298  11.157  17.752  0.00  0.00    +0.000 A 
ATOM     23  C   UNL     1      -2.990  10.898  18.207  0.00  0.00    +0.000 A 
BRANCH  22  24
ATOM     24  N   UNL     1      -5.304  11.510  18.621  0.00  0.00    +0.000 N 
ATOM     25  C   UNL     1      -6.701  11.101  18.514  0.00  0.00    +0.000 C 
ATOM     26  C   UNL     1      -7.437  12.199  19.270  0.00  0.00    +0.000 C 
ATOM     27  C   UNL     1      -6.486  12.542  20.404  0.00  0.00    +0.000 C 
ATOM     28  C   UNL     1      -5.094  12.340  19.808  0.00  0.00    +0.000 C 
ENDBRANCH  22  24
ENDBRANCH  15  17
ENDBRANCH   1  15
TORSDOF 6
ENDMDL
