MODEL 1
REMARK VINA RESULT:      -7.1      0.000      0.000
REMARK  Name = 
REMARK  4 active torsions:
REMARK  status: ('A' for Active; 'I' for Inactive)
REMARK    1  A    between atoms: C_1  and  C_2
REMARK    2  A    between atoms: N_4  and  C_5
REMARK    3  A    between atoms: C_13  and  C_14
REMARK    4  A    between atoms: N_23  and  C_24
REMARK                            x       y       z     vdW  Elec       q    Type
REMARK                         _______ _______ _______ _____ _____    ______ ____
ROOT
ATOM      1  C   UNL     1       0.431  13.425  18.751  0.00  0.00    +0.000 C 
ATOM      2  C   UNL     1       1.151  12.088  18.611  0.00  0.00    +0.000 C 
ATOM      3  O   UNL     1       2.330  12.148  18.249  0.00  0.00    +0.000 OA
ATOM      4  N   UNL     1       0.449  10.899  18.854  0.00  0.00    +0.000 N 
ATOM      5  C   UNL     1      -0.916  11.019  19.021  0.00  0.00    +0.000 A 
ATOM      6  N   UNL     1      -1.462  11.856  19.849  0.00  0.00    +0.000 NA
ATOM      7  C   UNL     1      -2.722  12.216  19.433  0.00  0.00    +0.000 A 
ATOM      8  C   UNL     1      -3.220  11.470  18.389  0.00  0.00    +0.000 A 
ATOM      9  S   UNL     1      -1.973  10.405  17.814  0.00  0.00    +0.000 S 
ENDROOT
BRANCH   7  10
ATOM     10  C   UNL     1      -3.397  13.251  20.263  0.00  0.00    +0.000 A 
ATOM     11  N   UNL     1      -2.690  13.861  21.192  0.00  0.00    +0.000 NA
ATOM     12  C   UNL     1      -3.376  13.507  22.313  0.00  0.00    +0.000 A 
ATOM     13  C   UNL     1      -2.926  13.328  23.623  0.00  0.00    +0.000 A 
ATOM     14  F   UNL     1      -1.640  13.522  23.947  0.00  0.00    +0.000 F 
ATOM     15  C   UNL     1      -3.809  12.812  24.564  0.00  0.00    +0.000 A 
ATOM     16  C   UNL     1      -5.140  12.568  24.226  0.00  0.00    +0.000 A 
ATOM     17  C   UNL     1      -5.641  12.795  22.932  0.00  0.00    +0.000 A 
ATOM     18  C   UNL     1      -4.702  13.200  21.985  0.00  0.00    +0.000 A 
ATOM     19  N   UNL     1      -4.720  13.347  20.615  0.00  0.00    +0.000 N 
ATOM     20  C   UNL     1      -5.746  13.985  19.829  0.00  0.00    +0.000 C 
ENDBRANCH   7  10
BRANCH   4  21
ATOM     21  C   UNL     1       1.079   9.637  19.169  0.00  0.00    +0.000 A 
ATOM     22  C   UNL     1       0.975   9.063  20.449  0.00  0.00    +0.000 A 
ATOM     23  C   UNL     1       1.555   7.831  20.769  0.00  0.00    +0.000 A 
ATOM     24  C   UNL     1       2.250   7.121  19.804  0.00  0.00    +0.000 A 
ATOM     25  C   UNL     1       2.345   7.631  18.519  0.00  0.00    +0.000 A 
ATOM     26  C   UNL     1       1.761   8.868  18.201  0.00  0.00    +0.000 A 
ENDBRANCH   4  21
TORSDOF 2
ENDMDL
MODEL 2
REMARK VINA RESULT:      -7.0      0.950      1.089
REMARK  Name = 
REMARK  4 active torsions:
REMARK  status: ('A' for Active; 'I' for Inactive)
REMARK    1  A    between atoms: C_1  and  C_2
REMARK    2  A    between atoms: N_4  and  C_5
REMARK    3  A    between atoms: C_13  and  C_14
REMARK    4  A    between atoms: N_23  and  C_24
REMARK                            x       y       z     vdW  Elec       q    Type
REMARK                         _______ _______ _______ _____ _____    ______ ____
ROOT
ATOM      1  C   UNL     1      -0.178  13.709  19.151  0.00  0.00    +0.000 C 
ATOM      2  C   UNL     1       0.689  12.482  18.890  0.00  0.00    +0.000 C 
ATOM      3  O   UNL     1       1.880  12.705  18.651  0.00  0.00    +0.000 OA
ATOM      4  N   UNL     1       0.099  11.209  18.894  0.00  0.00    +0.000 N 
ATOM      5  C   UNL     1      -1.279  11.175  18.949  0.00  0.00    +0.000 A 
ATOM      6  N   UNL     1      -1.974  11.823  19.833  0.00  0.00    +0.000 NA
ATOM      7  C   UNL     1      -3.229  12.122  19.357  0.00  0.00    +0.000 A 
ATOM      8  C   UNL     1      -3.562  11.500  18.175  0.00  0.00    +0.000 A 
ATOM      9  S   UNL     1      -2.168  10.654  17.574  0.00  0.00    +0.000 S 
ENDROOT
BRANCH   7  10
ATOM     10  C   UNL     1      -4.073  12.953  20.259  0.00  0.00    +0.000 A 
ATOM     11  N   UNL     1      -3.641  14.155  20.581  0.00  0.00    +0.000 NA
ATOM     12  C   UNL     1      -3.531  14.035  21.933  0.00  0.00    +0.000 A 
ATOM     13  C   UNL     1      -2.663  14.671  22.823  0.00  0.00    +0.000 A 
ATOM     14  F   UNL     1      -1.764  15.569  22.394  0.00  0.00    +0.000 F 
ATOM     15  C   UNL     1      -2.651  14.258  24.150  0.00  0.00    +0.000 A 
ATOM     16  C   UNL     1      -3.554  13.294  24.598  0.00  0.00    +0.000 A 
ATOM     17  C   UNL     1      -4.483  12.678  23.740  0.00  0.00    +0.000 A 
ATOM     18  C   UNL     1      -4.388  13.030  22.396  0.00  0.00    +0.000 A 
ATOM     19  N   UNL     1      -4.951  12.550  21.233  0.00  0.00    +0.000 N 
ATOM     20  C   UNL     1      -6.337  12.217  21.019  0.00  0.00    +0.000 C 
ENDBRANCH   7  10
BRANCH   4  21
ATOM     21  C   UNL     1       0.833   9.979  19.084  0.00  0.00    +0.000 A 
ATOM     22  C   UNL     1       0.865   9.327  20.330  0.00  0.00    +0.000 A 
ATOM     23  C   UNL     1       1.547   8.122  20.530  0.00  0.00    +0.000 A 
ATOM     24  C   UNL     1       2.212   7.518  19.476  0.00  0.00    +0.000 A 
ATOM     25  C   UNL     1       2.175   8.106  18.222  0.00  0.00    +0.000 A 
ATOM     26  C   UNL     1       1.488   9.316  18.023  0.00  0.00    +0.000 A 
ENDBRANCH   4  21
TORSDOF 2
ENDMDL
MODEL 3
REMARK VINA RESULT:      -7.0      2.840      3.834
REMARK  Name = 
REMARK  4 active torsions:
REMARK  status: ('A' for Active; 'I' for Inactive)
REMARK    1  A    between atoms: C_1  and  C_2
REMARK    2  A    between atoms: N_4  and  C_5
REMARK    3  A    between atoms: C_13  and  C_14
REMARK    4  A    between atoms: N_23  and  C_24
REMARK                            x       y       z     vdW  Elec       q    Type
REMARK                         _______ _______ _______ _____ _____    ______ ____
ROOT
ATOM      1  C   UNL     1      -3.083  12.982  20.045  0.00  0.00    +0.000 C 
ATOM      2  C   UNL     1      -1.696  12.366  19.888  0.00  0.00    +0.000 C 
ATOM      3  O   UNL     1      -0.786  12.926  20.507  0.00  0.00    +0.000 OA
ATOM      4  N   UNL     1      -1.526  11.259  19.044  0.00  0.00    +0.000 N 
ATOM      5  C   UNL     1      -2.609  10.917  18.260  0.00  0.00    +0.000 A 
ATOM      6  N   UNL     1      -3.806  10.746  18.731  0.00  0.00    +0.000 NA
ATOM      7  C   UNL     1      -4.758  11.006  17.774  0.00  0.00    +0.000 A 
ATOM      8  C   UNL     1      -4.267  11.165  16.498  0.00  0.00    +0.000 A 
ATOM      9  S   UNL     1      -2.530  11.158  16.560  0.00  0.00    +0.000 S 
ENDROOT
BRANCH   7  10
ATOM     10  C   UNL     1      -6.170  10.935  18.242  0.00  0.00    +0.000 A 
ATOM     11  N   UNL     1      -7.002  11.879  17.851  0.00  0.00    +0.000 NA
ATOM     12  C   UNL     1      -7.360  12.419  19.048  0.00  0.00    +0.000 A 
ATOM     13  C   UNL     1      -7.744  13.723  19.366  0.00  0.00    +0.000 A 
ATOM     14  F   UNL     1      -7.822  14.673  18.422  0.00  0.00    +0.000 F 
ATOM     15  C   UNL     1      -7.915  14.059  20.703  0.00  0.00    +0.000 A 
ATOM     16  C   UNL     1      -7.796  13.087  21.697  0.00  0.00    +0.000 A 
ATOM     17  C   UNL     1      -7.471  11.750  21.405  0.00  0.00    +0.000 A 
ATOM     18  C   UNL     1      -7.191  11.476  20.069  0.00  0.00    +0.000 A 
ATOM     19  N   UNL     1      -6.670  10.390  19.398  0.00  0.00    +0.000 N 
ATOM     20  C   UNL     1      -7.038   9.009  19.576  0.00  0.00    +0.000 C 
ENDBRANCH   7  10
BRANCH   4  21
ATOM     21  C   UNL     1      -0.411  10.343  19.126  0.00  0.00    +0.000 A 
ATOM     22  C   UNL     1      -0.089   9.683  20.326  0.00  0.00    +0.000 A 
ATOM     23  C   UNL     1       0.970   8.773  20.421  0.00  0.00    +0.000 A 
ATOM     24  C   UNL     1       1.737   8.482  19.305  0.00  0.00    +0.000 A 
ATOM     25  C   UNL     1       1.431   9.082  18.094  0.00  0.00    +0.000 A 
ATOM     26  C   UNL     1       0.367   9.994  18.001  0.00  0.00    +0.000 A 
ENDBRANCH   4  21
TORSDOF 2
ENDMDL
MODEL 4
REMARK VINA RESULT:      -6.8      9.108     12.879
REMARK  Name = 
REMARK  4 active torsions:
REMARK  status: ('A' for Active; 'I' for Inactive)
REMARK    1  A    between atoms: C_1  and  C_2
REMARK    2  A    between atoms: N_4  and  C_5
REMARK    3  A    between atoms: C_13  and  C_14
REMARK    4  A    between atoms: N_23  and  C_24
REMARK                            x       y       z     vdW  Elec       q    Type
REMARK                         _______ _______ _______ _____ _____    ______ ____
ROOT
ATOM      1  C   UNL     1       4.166   7.380  16.569  0.00  0.00    +0.000 C 
ATOM      2  C   UNL     1       3.493   6.689  17.750  0.00  0.00    +0.000 C 
ATOM      3  O   UNL     1       2.791   7.410  18.465  0.00  0.00    +0.000 OA
ATOM      4  N   UNL     1       3.730   5.326  17.977  0.00  0.00    +0.000 N 
ATOM      5  C   UNL     1       4.720   4.743  17.213  0.00  0.00    +0.000 A 
ATOM      6  N   UNL     1       4.773   4.838  15.920  0.00  0.00    +0.000 NA
ATOM      7  C   UNL     1       6.066   4.726  15.465  0.00  0.00    +0.000 A 
ATOM      8  C   UNL     1       6.978   4.322  16.413  0.00  0.00    +0.000 A 
ATOM      9  S   UNL     1       6.190   4.257  17.960  0.00  0.00    +0.000 S 
ENDROOT
BRANCH   7  10
ATOM     10  C   UNL     1       6.247   4.921  14.000  0.00  0.00    +0.000 A 
ATOM     11  N   UNL     1       5.192   4.790  13.221  0.00  0.00    +0.000 NA
ATOM     12  C   UNL     1       5.583   3.753  12.431  0.00  0.00    +0.000 A 
ATOM     13  C   UNL     1       4.820   2.770  11.797  0.00  0.00    +0.000 A 
ATOM     14  F   UNL     1       3.484   2.754  11.902  0.00  0.00    +0.000 F 
ATOM     15  C   UNL     1       5.479   1.722  11.164  0.00  0.00    +0.000 A 
ATOM     16  C   UNL     1       6.872   1.708  11.084  0.00  0.00    +0.000 A 
ATOM     17  C   UNL     1       7.667   2.715  11.659  0.00  0.00    +0.000 A 
ATOM     18  C   UNL     1       6.981   3.685  12.386  0.00  0.00    +0.000 A 
ATOM     19  N   UNL     1       7.363   4.703  13.232  0.00  0.00    +0.000 N 
ATOM     20  C   UNL     1       8.420   5.657  13.012  0.00  0.00    +0.000 C 
ENDBRANCH   7  10
BRANCH   4  21
ATOM     21  C   UNL     1       2.865   4.473  18.760  0.00  0.00    +0.000 A 
ATOM     22  C   UNL     1       2.927   4.454  20.165  0.00  0.00    +0.000 A 
ATOM     23  C   UNL     1       2.082   3.657  20.944  0.00  0.00    +0.000 A 
ATOM     24  C   UNL     1       1.129   2.856  20.335  0.00  0.00    +0.000 A 
ATOM     25  C   UNL     1       1.008   2.872  18.955  0.00  0.00    +0.000 A 
ATOM     26  C   UNL     1       1.857   3.675  18.176  0.00  0.00    +0.000 A 
ENDBRANCH   4  21
TORSDOF 2
ENDMDL
MODEL 5
REMARK VINA RESULT:      -6.8      0.707      1.178
REMARK  Name = 
REMARK  4 active torsions:
REMARK  status: ('A' for Active; 'I' for Inactive)
REMARK    1  A    between atoms: C_1  and  C_2
REMARK    2  A    between atoms: N_4  and  C_5
REMARK    3  A    between atoms: C_13  and  C_14
REMARK    4  A    between atoms: N_23  and  C_24
REMARK                            x       y       z     vdW  Elec       q    Type
REMARK                         _______ _______ _______ _____ _____    ______ ____
ROOT
ATOM      1  C   UNL     1      -0.360  13.877  18.721  0.00  0.00    +0.000 C 
ATOM      2  C   UNL     1       0.453  12.603  18.512  0.00  0.00    +0.000 C 
ATOM      3  O   UNL     1       1.605  12.763  18.097  0.00  0.00    +0.000 OA
ATOM      4  N   UNL     1      -0.143  11.358  18.757  0.00  0.00    +0.000 N 
ATOM      5  C   UNL     1      -1.503  11.368  18.991  0.00  0.00    +0.000 A 
ATOM      6  N   UNL     1      -2.071  12.141  19.865  0.00  0.00    +0.000 NA
ATOM      7  C   UNL     1      -3.374  12.411  19.518  0.00  0.00    +0.000 A 
ATOM      8  C   UNL     1      -3.864  11.652  18.479  0.00  0.00    +0.000 A 
ATOM      9  S   UNL     1      -2.568  10.700  17.819  0.00  0.00    +0.000 S 
ENDROOT
BRANCH   7  10
ATOM     10  C   UNL     1      -4.085  13.372  20.405  0.00  0.00    +0.000 A 
ATOM     11  N   UNL     1      -3.389  13.985  21.342  0.00  0.00    +0.000 NA
ATOM     12  C   UNL     1      -4.025  13.547  22.463  0.00  0.00    +0.000 A 
ATOM     13  C   UNL     1      -3.531  13.344  23.753  0.00  0.00    +0.000 A 
ATOM     14  F   UNL     1      -2.250  13.600  24.054  0.00  0.00    +0.000 F 
ATOM     15  C   UNL     1      -4.357  12.741  24.694  0.00  0.00    +0.000 A 
ATOM     16  C   UNL     1      -5.681  12.433  24.379  0.00  0.00    +0.000 A 
ATOM     17  C   UNL     1      -6.227  12.681  23.107  0.00  0.00    +0.000 A 
ATOM     18  C   UNL     1      -5.339  13.177  22.155  0.00  0.00    +0.000 A 
ATOM     19  N   UNL     1      -5.402  13.377  20.793  0.00  0.00    +0.000 N 
ATOM     20  C   UNL     1      -6.483  13.983  20.059  0.00  0.00    +0.000 C 
ENDBRANCH   7  10
BRANCH   4  21
ATOM     21  C   UNL     1       0.596  10.142  19.009  0.00  0.00    +0.000 A 
ATOM     22  C   UNL     1       1.403   9.554  18.019  0.00  0.00    +0.000 A 
ATOM     23  C   UNL     1       2.148   8.392  18.250  0.00  0.00    +0.000 A 
ATOM     24  C   UNL     1       2.119   7.786  19.495  0.00  0.00    +0.000 A 
ATOM     25  C   UNL     1       1.366   8.353  20.511  0.00  0.00    +0.000 A 
ATOM     26  C   UNL     1       0.621   9.520  20.277  0.00  0.00    +0.000 A 
ENDBRANCH   4  21
TORSDOF 2
ENDMDL
MODEL 6
REMARK VINA RESULT:      -6.8      2.202      2.901
REMARK  Name = 
REMARK  4 active torsions:
REMARK  status: ('A' for Active; 'I' for Inactive)
REMARK    1  A    between atoms: C_1  and  C_2
REMARK    2  A    between atoms: N_4  and  C_5
REMARK    3  A    between atoms: C_13  and  C_14
REMARK    4  A    between atoms: N_23  and  C_24
REMARK                            x       y       z     vdW  Elec       q    Type
REMARK                         _______ _______ _______ _____ _____    ______ ____
ROOT
ATOM      1  C   UNL     1       0.498  13.939  21.658  0.00  0.00    +0.000 C 
ATOM      2  C   UNL     1       1.113  12.909  20.715  0.00  0.00    +0.000 C 
ATOM      3  O   UNL     1       2.264  13.148  20.336  0.00  0.00    +0.000 OA
ATOM      4  N   UNL     1       0.351  11.804  20.310  0.00  0.00    +0.000 N 
ATOM      5  C   UNL     1      -0.986  11.827  20.650  0.00  0.00    +0.000 A 
ATOM      6  N   UNL     1      -1.412  12.051  21.855  0.00  0.00    +0.000 NA
ATOM      7  C   UNL     1      -2.672  12.601  21.843  0.00  0.00    +0.000 A 
ATOM      8  C   UNL     1      -3.295  12.591  20.615  0.00  0.00    +0.000 A 
ATOM      9  S   UNL     1      -2.168  12.025  19.419  0.00  0.00    +0.000 S 
ENDROOT
BRANCH   7  10
ATOM     10  C   UNL     1      -3.213  12.989  23.174  0.00  0.00    +0.000 A 
ATOM     11  N   UNL     1      -4.216  12.288  23.665  0.00  0.00    +0.000 NA
ATOM     12  C   UNL     1      -5.176  13.248  23.766  0.00  0.00    +0.000 A 
ATOM     13  C   UNL     1      -6.565  13.141  23.681  0.00  0.00    +0.000 A 
ATOM     14  F   UNL     1      -7.159  11.954  23.485  0.00  0.00    +0.000 F 
ATOM     15  C   UNL     1      -7.323  14.306  23.667  0.00  0.00    +0.000 A 
ATOM     16  C   UNL     1      -6.711  15.549  23.829  0.00  0.00    +0.000 A 
ATOM     17  C   UNL     1      -5.319  15.687  23.979  0.00  0.00    +0.000 A 
ATOM     18  C   UNL     1      -4.581  14.511  23.870  0.00  0.00    +0.000 A 
ATOM     19  N   UNL     1      -3.237  14.225  23.770  0.00  0.00    +0.000 N 
ATOM     20  C   UNL     1      -2.174  14.785  24.566  0.00  0.00    +0.000 C 
ENDBRANCH   7  10
BRANCH   4  21
ATOM     21  C   UNL     1       0.915  10.579  19.792  0.00  0.00    +0.000 A 
ATOM     22  C   UNL     1       1.055   9.435  20.598  0.00  0.00    +0.000 A 
ATOM     23  C   UNL     1       1.574   8.231  20.111  0.00  0.00    +0.000 A 
ATOM     24  C   UNL     1       1.960   8.129  18.785  0.00  0.00    +0.000 A 
ATOM     25  C   UNL     1       1.805   9.220  17.945  0.00  0.00    +0.000 A 
ATOM     26  C   UNL     1       1.283  10.427  18.437  0.00  0.00    +0.000 A 
ENDBRANCH   4  21
TORSDOF 2
ENDMDL
MODEL 7
REMARK VINA RESULT:      -6.7      1.875      2.736
REMARK  Name = 
REMARK  4 active torsions:
REMARK  status: ('A' for Active; 'I' for Inactive)
REMARK    1  A    between atoms: C_1  and  C_2
REMARK    2  A    between atoms: N_4  and  C_5
REMARK    3  A    between atoms: C_13  and  C_14
REMARK    4  A    between atoms: N_23  and  C_24
REMARK                            x       y       z     vdW  Elec       q    Type
REMARK                         _______ _______ _______ _____ _____    ______ ____
ROOT
ATOM      1  C   UNL     1       0.211  13.585  19.347  0.00  0.00    +0.000 C 
ATOM      2  C   UNL     1       0.976  12.326  18.953  0.00  0.00    +0.000 C 
ATOM      3  O   UNL     1       2.152  12.495  18.616  0.00  0.00    +0.000 OA
ATOM      4  N   UNL     1       0.315  11.089  18.956  0.00  0.00    +0.000 N 
ATOM      5  C   UNL     1      -1.053  11.129  19.136  0.00  0.00    +0.000 A 
ATOM      6  N   UNL     1      -1.626  11.770  20.108  0.00  0.00    +0.000 NA
ATOM      7  C   UNL     1      -2.898  12.161  19.762  0.00  0.00    +0.000 A 
ATOM      8  C   UNL     1      -3.372  11.617  18.590  0.00  0.00    +0.000 A 
ATOM      9  S   UNL     1      -2.090  10.726  17.826  0.00  0.00    +0.000 S 
ENDROOT
BRANCH   7  10
ATOM     10  C   UNL     1      -3.608  12.992  20.774  0.00  0.00    +0.000 A 
ATOM     11  N   UNL     1      -4.526  12.412  21.520  0.00  0.00    +0.000 NA
ATOM     12  C   UNL     1      -5.631  13.127  21.172  0.00  0.00    +0.000 A 
ATOM     13  C   UNL     1      -6.973  12.744  21.136  0.00  0.00    +0.000 A 
ATOM     14  F   UNL     1      -7.352  11.508  21.491  0.00  0.00    +0.000 F 
ATOM     15  C   UNL     1      -7.901  13.625  20.594  0.00  0.00    +0.000 A 
ATOM     16  C   UNL     1      -7.510  14.900  20.183  0.00  0.00    +0.000 A 
ATOM     17  C   UNL     1      -6.176  15.339  20.264  0.00  0.00    +0.000 A 
ATOM     18  C   UNL     1      -5.255  14.390  20.701  0.00  0.00    +0.000 A 
ATOM     19  N   UNL     1      -3.878  14.337  20.749  0.00  0.00    +0.000 N 
ATOM     20  C   UNL     1      -2.991  15.373  21.215  0.00  0.00    +0.000 C 
ENDBRANCH   7  10
BRANCH   4  21
ATOM     21  C   UNL     1       0.987   9.812  19.023  0.00  0.00    +0.000 A 
ATOM     22  C   UNL     1       1.664   9.278  17.912  0.00  0.00    +0.000 A 
ATOM     23  C   UNL     1       2.343   8.056  17.962  0.00  0.00    +0.000 A 
ATOM     24  C   UNL     1       2.380   7.331  19.142  0.00  0.00    +0.000 A 
ATOM     25  C   UNL     1       1.759   7.838  20.272  0.00  0.00    +0.000 A 
ATOM     26  C   UNL     1       1.078   9.066  20.219  0.00  0.00    +0.000 A 
ENDBRANCH   4  21
TORSDOF 2
ENDMDL
MODEL 8
REMARK VINA RESULT:      -6.7      3.663      8.703
REMARK  Name = 
REMARK  4 active torsions:
REMARK  status: ('A' for Active; 'I' for Inactive)
REMARK    1  A    between atoms: C_1  and  C_2
REMARK    2  A    between atoms: N_4  and  C_5
REMARK    3  A    between atoms: C_13  and  C_14
REMARK    4  A    between atoms: N_23  and  C_24
REMARK                            x       y       z     vdW  Elec       q    Type
REMARK                         _______ _______ _______ _____ _____    ______ ____
ROOT
ATOM      1  C   UNL     1       2.685  10.812  17.941  0.00  0.00    +0.000 C 
ATOM      2  C   UNL     1       1.458  11.556  18.457  0.00  0.00    +0.000 C 
ATOM      3  O   UNL     1       1.450  12.776  18.270  0.00  0.00    +0.000 OA
ATOM      4  N   UNL     1       0.454  10.844  19.131  0.00  0.00    +0.000 N 
ATOM      5  C   UNL     1       0.744   9.533  19.449  0.00  0.00    +0.000 A 
ATOM      6  N   UNL     1       1.185   8.670  18.585  0.00  0.00    +0.000 NA
ATOM      7  C   UNL     1       1.934   7.693  19.197  0.00  0.00    +0.000 A 
ATOM      8  C   UNL     1       1.875   7.696  20.572  0.00  0.00    +0.000 A 
ATOM      9  S   UNL     1       0.983   9.094  21.093  0.00  0.00    +0.000 S 
ENDROOT
BRANCH   7  10
ATOM     10  C   UNL     1       2.570   6.708  18.280  0.00  0.00    +0.000 A 
ATOM     11  N   UNL     1       1.843   5.694  17.856  0.00  0.00    +0.000 NA
ATOM     12  C   UNL     1       2.549   4.643  18.356  0.00  0.00    +0.000 A 
ATOM     13  C   UNL     1       2.113   3.379  18.760  0.00  0.00    +0.000 A 
ATOM     14  F   UNL     1       0.821   3.030  18.673  0.00  0.00    +0.000 F 
ATOM     15  C   UNL     1       3.021   2.530  19.382  0.00  0.00    +0.000 A 
ATOM     16  C   UNL     1       4.359   2.901  19.514  0.00  0.00    +0.000 A 
ATOM     17  C   UNL     1       4.843   4.142  19.063  0.00  0.00    +0.000 A 
ATOM     18  C   UNL     1       3.885   5.013  18.551  0.00  0.00    +0.000 A 
ATOM     19  N   UNL     1       3.890   6.342  18.186  0.00  0.00    +0.000 N 
ATOM     20  C   UNL     1       4.885   7.014  17.390  0.00  0.00    +0.000 C 
ENDBRANCH   7  10
BRANCH   4  21
ATOM     21  C   UNL     1      -0.903  11.313  19.289  0.00  0.00    +0.000 A 
ATOM     22  C   UNL     1      -1.278  12.132  20.369  0.00  0.00    +0.000 A 
ATOM     23  C   UNL     1      -2.580  12.618  20.527  0.00  0.00    +0.000 A 
ATOM     24  C   UNL     1      -3.554  12.310  19.591  0.00  0.00    +0.000 A 
ATOM     25  C   UNL     1      -3.219  11.537  18.491  0.00  0.00    +0.000 A 
ATOM     26  C   UNL     1      -1.911  11.051  18.334  0.00  0.00    +0.000 A 
ENDBRANCH   4  21
TORSDOF 2
ENDMDL
MODEL 9
REMARK VINA RESULT:      -6.7      1.201      1.475
REMARK  Name = 
REMARK  4 active torsions:
REMARK  status: ('A' for Active; 'I' for Inactive)
REMARK    1  A    between atoms: C_1  and  C_2
REMARK    2  A    between atoms: N_4  and  C_5
REMARK    3  A    between atoms: C_13  and  C_14
REMARK    4  A    between atoms: N_23  and  C_24
REMARK                            x       y       z     vdW  Elec       q    Type
REMARK                         _______ _______ _______ _____ _____    ______ ____
ROOT
ATOM      1  C   UNL     1       0.926  13.676  19.071  0.00  0.00    +0.000 C 
ATOM      2  C   UNL     1       1.466  12.301  18.690  0.00  0.00    +0.000 C 
ATOM      3  O   UNL     1       2.550  12.294  18.098  0.00  0.00    +0.000 OA
ATOM      4  N   UNL     1       0.709  11.158  18.985  0.00  0.00    +0.000 N 
ATOM      5  C   UNL     1      -0.576  11.377  19.438  0.00  0.00    +0.000 A 
ATOM      6  N   UNL     1      -0.860  12.178  20.418  0.00  0.00    +0.000 NA
ATOM      7  C   UNL     1      -2.135  12.679  20.297  0.00  0.00    +0.000 A 
ATOM      8  C   UNL     1      -2.903  12.076  19.327  0.00  0.00    +0.000 A 
ATOM      9  S   UNL     1      -1.908  10.966  18.433  0.00  0.00    +0.000 S 
ENDROOT
BRANCH   7  10
ATOM     10  C   UNL     1      -2.525  13.688  21.320  0.00  0.00    +0.000 A 
ATOM     11  N   UNL     1      -2.502  13.328  22.588  0.00  0.00    +0.000 NA
ATOM     12  C   UNL     1      -3.809  13.495  22.928  0.00  0.00    +0.000 A 
ATOM     13  C   UNL     1      -4.582  12.825  23.878  0.00  0.00    +0.000 A 
ATOM     14  F   UNL     1      -4.057  11.857  24.642  0.00  0.00    +0.000 F 
ATOM     15  C   UNL     1      -5.947  13.083  23.926  0.00  0.00    +0.000 A 
ATOM     16  C   UNL     1      -6.511  14.060  23.106  0.00  0.00    +0.000 A 
ATOM     17  C   UNL     1      -5.749  14.796  22.181  0.00  0.00    +0.000 A 
ATOM     18  C   UNL     1      -4.410  14.430  22.076  0.00  0.00    +0.000 A 
ATOM     19  N   UNL     1      -3.391  14.746  21.203  0.00  0.00    +0.000 N 
ATOM     20  C   UNL     1      -3.040  16.060  20.727  0.00  0.00    +0.000 C 
ENDBRANCH   7  10
BRANCH   4  21
ATOM     21  C   UNL     1       1.258   9.824  19.072  0.00  0.00    +0.000 A 
ATOM     22  C   UNL     1       1.202   9.083  20.266  0.00  0.00    +0.000 A 
ATOM     23  C   UNL     1       1.704   7.781  20.366  0.00  0.00    +0.000 A 
ATOM     24  C   UNL     1       2.270   7.169  19.260  0.00  0.00    +0.000 A 
ATOM     25  C   UNL     1       2.312   7.849  18.053  0.00  0.00    +0.000 A 
ATOM     26  C   UNL     1       1.806   9.156  17.956  0.00  0.00    +0.000 A 
ENDBRANCH   4  21
TORSDOF 2
ENDMDL
