MODEL 1
REMARK VINA RESULT:      -9.1      0.000      0.000
REMARK  Name = 
REMARK  3 active torsions:
REMARK  status: ('A' for Active; 'I' for Inactive)
REMARK    1  A    between atoms: C_2  and  C_16
REMARK    2  A    between atoms: C_7  and  C_8
REMARK    3  A    between atoms: C_18  and  O_19
REMARK                            x       y       z     vdW  Elec       q    Type
REMARK                         _______ _______ _______ _____ _____    ______ ____
ROOT
ATOM      1  O   UNL     1       8.003   6.272  18.867  0.00  0.00    +0.000 OA
ATOM      2  C   UNL     1       7.365   6.680  17.907  0.00  0.00    +0.000 C 
ATOM      3  N   UNL     1       7.404   7.960  17.378  0.00  0.00    +0.000 N 
ATOM      4  C   UNL     1       8.168   8.940  17.970  0.00  0.00    +0.000 A 
ATOM      5  N   UNL     1       8.874   8.902  19.074  0.00  0.00    +0.000 NA
ATOM      6  N   UNL     1       9.435  10.140  19.273  0.00  0.00    +0.000 NA
ATOM      7  C   UNL     1       9.102  10.914  18.261  0.00  0.00    +0.000 A 
ATOM      8  N   UNL     1       8.284  10.191  17.429  0.00  0.00    +0.000 N 
ATOM      9  H   UNL     1       6.840   8.201  16.578  0.00  0.00    +0.000 HD
ATOM     10  H   UNL     1       7.850  10.529  16.587  0.00  0.00    +0.000 HD
ENDROOT
BRANCH   2  11
ATOM     11  C   UNL     1       6.468   5.727  17.188  0.00  0.00    +0.000 A 
ATOM     12  C   UNL     1       6.951   5.114  16.028  0.00  0.00    +0.000 A 
ATOM     13  C   UNL     1       6.120   4.230  15.384  0.00  0.00    +0.000 A 
ATOM     14  N   UNL     1       4.892   3.909  15.808  0.00  0.00    +0.000 NA
ATOM     15  C   UNL     1       4.438   4.462  16.945  0.00  0.00    +0.000 A 
ATOM     16  C   UNL     1       3.184   4.072  17.396  0.00  0.00    +0.000 A 
ATOM     17  C   UNL     1       2.627   4.581  18.570  0.00  0.00    +0.000 A 
ATOM     18  C   UNL     1       3.332   5.517  19.309  0.00  0.00    +0.000 A 
ATOM     19  C   UNL     1       4.590   5.930  18.872  0.00  0.00    +0.000 A 
ATOM     20  C   UNL     1       5.181   5.398  17.693  0.00  0.00    +0.000 A 
BRANCH  13  21
ATOM     21  O   UNL     1       6.500   3.611  14.231  0.00  0.00    +0.000 OA
ATOM     22  H   UNL     1       7.430   3.355  14.297  0.00  0.00    +0.000 HD
ENDBRANCH  13  21
ENDBRANCH   2  11
BRANCH   7  23
ATOM     23  C   UNL     1       9.491  12.303  18.056  0.00  0.00    +0.000 A 
ATOM     24  C   UNL     1       8.663  13.368  18.443  0.00  0.00    +0.000 A 
ATOM     25  C   UNL     1       9.064  14.688  18.225  0.00  0.00    +0.000 A 
ATOM     26  C   UNL     1      10.290  14.945  17.624  0.00  0.00    +0.000 A 
ATOM     27  F   UNL     1      10.670  16.213  17.419  0.00  0.00    +0.000 F 
ATOM     28  C   UNL     1      11.122  13.906  17.226  0.00  0.00    +0.000 A 
ATOM     29  C   UNL     1      10.719  12.587  17.437  0.00  0.00    +0.000 A 
ENDBRANCH   7  23
TORSDOF 3
ENDMDL
MODEL 2
REMARK VINA RESULT:      -8.6      6.518      8.092
REMARK  Name = 
REMARK  3 active torsions:
REMARK  status: ('A' for Active; 'I' for Inactive)
REMARK    1  A    between atoms: C_2  and  C_16
REMARK    2  A    between atoms: C_7  and  C_8
REMARK    3  A    between atoms: C_18  and  O_19
REMARK                            x       y       z     vdW  Elec       q    Type
REMARK                         _______ _______ _______ _____ _____    ______ ____
ROOT
ATOM      1  O   UNL     1       3.040   7.587  17.524  0.00  0.00    +0.000 OA
ATOM      2  C   UNL     1       2.914   7.063  18.621  0.00  0.00    +0.000 C 
ATOM      3  N   UNL     1       2.143   7.533  19.672  0.00  0.00    +0.000 N 
ATOM      4  C   UNL     1       1.469   8.728  19.567  0.00  0.00    +0.000 A 
ATOM      5  N   UNL     1       1.473   9.613  18.600  0.00  0.00    +0.000 NA
ATOM      6  N   UNL     1       0.667  10.663  18.968  0.00  0.00    +0.000 NA
ATOM      7  C   UNL     1       0.139  10.388  20.143  0.00  0.00    +0.000 A 
ATOM      8  N   UNL     1       0.642   9.181  20.558  0.00  0.00    +0.000 N 
ATOM      9  H   UNL     1       2.101   7.026  20.543  0.00  0.00    +0.000 HD
ATOM     10  H   UNL     1       0.441   8.726  21.433  0.00  0.00    +0.000 HD
ENDROOT
BRANCH   2  11
ATOM     11  C   UNL     1       3.620   5.774  18.884  0.00  0.00    +0.000 A 
ATOM     12  C   UNL     1       4.952   5.656  18.474  0.00  0.00    +0.000 A 
ATOM     13  C   UNL     1       5.593   4.469  18.734  0.00  0.00    +0.000 A 
ATOM     14  N   UNL     1       5.029   3.434  19.367  0.00  0.00    +0.000 NA
ATOM     15  C   UNL     1       3.763   3.556  19.801  0.00  0.00    +0.000 A 
ATOM     16  C   UNL     1       3.217   2.491  20.503  0.00  0.00    +0.000 A 
ATOM     17  C   UNL     1       1.914   2.522  21.002  0.00  0.00    +0.000 A 
ATOM     18  C   UNL     1       1.127   3.641  20.784  0.00  0.00    +0.000 A 
ATOM     19  C   UNL     1       1.651   4.721  20.074  0.00  0.00    +0.000 A 
ATOM     20  C   UNL     1       2.986   4.713  19.584  0.00  0.00    +0.000 A 
BRANCH  13  21
ATOM     21  O   UNL     1       6.881   4.259  18.343  0.00  0.00    +0.000 OA
ATOM     22  H   UNL     1       7.387   5.076  18.456  0.00  0.00    +0.000 HD
ENDBRANCH  13  21
ENDBRANCH   2  11
BRANCH   7  23
ATOM     23  C   UNL     1      -0.787  11.218  20.901  0.00  0.00    +0.000 A 
ATOM     24  C   UNL     1      -1.654  12.125  20.272  0.00  0.00    +0.000 A 
ATOM     25  C   UNL     1      -2.524  12.911  21.031  0.00  0.00    +0.000 A 
ATOM     26  C   UNL     1      -2.531  12.791  22.416  0.00  0.00    +0.000 A 
ATOM     27  F   UNL     1      -3.369  13.545  23.138  0.00  0.00    +0.000 F 
ATOM     28  C   UNL     1      -1.676  11.905  23.060  0.00  0.00    +0.000 A 
ATOM     29  C   UNL     1      -0.802  11.124  22.303  0.00  0.00    +0.000 A 
ENDBRANCH   7  23
TORSDOF 3
ENDMDL
MODEL 3
REMARK VINA RESULT:      -8.6      6.402      8.106
REMARK  Name = 
REMARK  3 active torsions:
REMARK  status: ('A' for Active; 'I' for Inactive)
REMARK    1  A    between atoms: C_2  and  C_16
REMARK    2  A    between atoms: C_7  and  C_8
REMARK    3  A    between atoms: C_18  and  O_19
REMARK                            x       y       z     vdW  Elec       q    Type
REMARK                         _______ _______ _______ _____ _____    ______ ____
ROOT
ATOM      1  O   UNL     1       2.992   7.675  17.303  0.00  0.00    +0.000 OA
ATOM      2  C   UNL     1       2.960   7.143  18.404  0.00  0.00    +0.000 C 
ATOM      3  N   UNL     1       2.236   7.574  19.503  0.00  0.00    +0.000 N 
ATOM      4  C   UNL     1       1.501   8.736  19.447  0.00  0.00    +0.000 A 
ATOM      5  N   UNL     1       1.403   9.622  18.486  0.00  0.00    +0.000 NA
ATOM      6  N   UNL     1       0.573  10.632  18.909  0.00  0.00    +0.000 NA
ATOM      7  C   UNL     1       0.133  10.330  20.113  0.00  0.00    +0.000 A 
ATOM      8  N   UNL     1       0.717   9.147  20.490  0.00  0.00    +0.000 N 
ATOM      9  H   UNL     1       2.272   7.063  20.372  0.00  0.00    +0.000 HD
ATOM     10  H   UNL     1       0.593   8.681  21.373  0.00  0.00    +0.000 HD
ENDROOT
BRANCH   2  11
ATOM     11  C   UNL     1       3.741   5.888  18.614  0.00  0.00    +0.000 A 
ATOM     12  C   UNL     1       5.107   5.999  18.890  0.00  0.00    +0.000 A 
ATOM     13  C   UNL     1       5.810   4.837  19.094  0.00  0.00    +0.000 A 
ATOM     14  N   UNL     1       5.266   3.615  19.064  0.00  0.00    +0.000 NA
ATOM     15  C   UNL     1       3.945   3.503  18.842  0.00  0.00    +0.000 A 
ATOM     16  C   UNL     1       3.393   2.230  18.870  0.00  0.00    +0.000 A 
ATOM     17  C   UNL     1       2.031   2.008  18.659  0.00  0.00    +0.000 A 
ATOM     18  C   UNL     1       1.197   3.084  18.399  0.00  0.00    +0.000 A 
ATOM     19  C   UNL     1       1.731   4.372  18.358  0.00  0.00    +0.000 A 
ATOM     20  C   UNL     1       3.111   4.614  18.598  0.00  0.00    +0.000 A 
BRANCH  13  21
ATOM     21  O   UNL     1       7.151   4.853  19.339  0.00  0.00    +0.000 OA
ATOM     22  H   UNL     1       7.312   5.240  20.210  0.00  0.00    +0.000 HD
ENDBRANCH  13  21
ENDBRANCH   2  11
BRANCH   7  23
ATOM     23  C   UNL     1      -0.781  11.113  20.933  0.00  0.00    +0.000 A 
ATOM     24  C   UNL     1      -0.817  10.987  22.330  0.00  0.00    +0.000 A 
ATOM     25  C   UNL     1      -1.712  11.749  23.084  0.00  0.00    +0.000 A 
ATOM     26  C   UNL     1      -2.570  12.637  22.445  0.00  0.00    +0.000 A 
ATOM     27  F   UNL     1      -3.424  13.366  23.174  0.00  0.00    +0.000 F 
ATOM     28  C   UNL     1      -2.556  12.772  21.063  0.00  0.00    +0.000 A 
ATOM     29  C   UNL     1      -1.667  12.007  20.308  0.00  0.00    +0.000 A 
ENDBRANCH   7  23
TORSDOF 3
ENDMDL
MODEL 4
REMARK VINA RESULT:      -8.6      6.548      7.873
REMARK  Name = 
REMARK  3 active torsions:
REMARK  status: ('A' for Active; 'I' for Inactive)
REMARK    1  A    between atoms: C_2  and  C_16
REMARK    2  A    between atoms: C_7  and  C_8
REMARK    3  A    between atoms: C_18  and  O_19
REMARK                            x       y       z     vdW  Elec       q    Type
REMARK                         _______ _______ _______ _____ _____    ______ ____
ROOT
ATOM      1  O   UNL     1       2.288   7.143  17.787  0.00  0.00    +0.000 OA
ATOM      2  C   UNL     1       2.586   6.833  18.932  0.00  0.00    +0.000 C 
ATOM      3  N   UNL     1       2.231   7.513  20.086  0.00  0.00    +0.000 N 
ATOM      4  C   UNL     1       1.524   8.692  20.015  0.00  0.00    +0.000 A 
ATOM      5  N   UNL     1       1.148   9.384  18.967  0.00  0.00    +0.000 NA
ATOM      6  N   UNL     1       0.494  10.511  19.403  0.00  0.00    +0.000 NA
ATOM      7  C   UNL     1       0.436  10.474  20.719  0.00  0.00    +0.000 A 
ATOM      8  N   UNL     1       1.096   9.346  21.137  0.00  0.00    +0.000 N 
ATOM      9  H   UNL     1       2.524   7.176  20.989  0.00  0.00    +0.000 HD
ATOM     10  H   UNL     1       1.241   9.066  22.093  0.00  0.00    +0.000 HD
ENDROOT
BRANCH   2  11
ATOM     11  C   UNL     1       3.382   5.590  19.152  0.00  0.00    +0.000 A 
ATOM     12  C   UNL     1       4.681   5.539  18.637  0.00  0.00    +0.000 A 
ATOM     13  C   UNL     1       5.407   4.394  18.858  0.00  0.00    +0.000 A 
ATOM     14  N   UNL     1       4.956   3.340  19.547  0.00  0.00    +0.000 NA
ATOM     15  C   UNL     1       3.724   3.399  20.082  0.00  0.00    +0.000 A 
ATOM     16  C   UNL     1       3.297   2.317  20.839  0.00  0.00    +0.000 A 
ATOM     17  C   UNL     1       2.039   2.284  21.443  0.00  0.00    +0.000 A 
ATOM     18  C   UNL     1       1.175   3.354  21.275  0.00  0.00    +0.000 A 
ATOM     19  C   UNL     1       1.578   4.449  20.511  0.00  0.00    +0.000 A 
ATOM     20  C   UNL     1       2.867   4.507  19.914  0.00  0.00    +0.000 A 
BRANCH  13  21
ATOM     21  O   UNL     1       6.670   4.249  18.366  0.00  0.00    +0.000 OA
ATOM     22  H   UNL     1       7.309   4.509  19.044  0.00  0.00    +0.000 HD
ENDBRANCH  13  21
ENDBRANCH   2  11
BRANCH   7  23
ATOM     23  C   UNL     1      -0.181  11.460  21.595  0.00  0.00    +0.000 A 
ATOM     24  C   UNL     1      -1.136  11.100  22.558  0.00  0.00    +0.000 A 
ATOM     25  C   UNL     1      -1.713  12.073  23.378  0.00  0.00    +0.000 A 
ATOM     26  C   UNL     1      -1.337  13.403  23.237  0.00  0.00    +0.000 A 
ATOM     27  F   UNL     1      -1.892  14.331  24.027  0.00  0.00    +0.000 F 
ATOM     28  C   UNL     1      -0.400  13.783  22.285  0.00  0.00    +0.000 A 
ATOM     29  C   UNL     1       0.174  12.813  21.462  0.00  0.00    +0.000 A 
ENDBRANCH   7  23
TORSDOF 3
ENDMDL
MODEL 5
REMARK VINA RESULT:      -8.0      1.297      2.605
REMARK  Name = 
REMARK  3 active torsions:
REMARK  status: ('A' for Active; 'I' for Inactive)
REMARK    1  A    between atoms: C_2  and  C_16
REMARK    2  A    between atoms: C_7  and  C_8
REMARK    3  A    between atoms: C_18  and  O_19
REMARK                            x       y       z     vdW  Elec       q    Type
REMARK                         _______ _______ _______ _____ _____    ______ ____
ROOT
ATOM      1  O   UNL     1       7.959   6.220  18.856  0.00  0.00    +0.000 OA
ATOM      2  C   UNL     1       7.194   6.676  18.018  0.00  0.00    +0.000 C 
ATOM      3  N   UNL     1       7.195   7.970  17.522  0.00  0.00    +0.000 N 
ATOM      4  C   UNL     1       8.075   8.908  18.012  0.00  0.00    +0.000 A 
ATOM      5  N   UNL     1       8.942   8.814  18.991  0.00  0.00    +0.000 NA
ATOM      6  N   UNL     1       9.571  10.029  19.131  0.00  0.00    +0.000 NA
ATOM      7  C   UNL     1       9.112  10.843  18.203  0.00  0.00    +0.000 A 
ATOM      8  N   UNL     1       8.150  10.171  17.492  0.00  0.00    +0.000 N 
ATOM      9  H   UNL     1       6.522   8.252  16.827  0.00  0.00    +0.000 HD
ATOM     10  H   UNL     1       7.602  10.547  16.737  0.00  0.00    +0.000 HD
ENDROOT
BRANCH   2  11
ATOM     11  C   UNL     1       6.164   5.774  17.424  0.00  0.00    +0.000 A 
ATOM     12  C   UNL     1       5.002   5.523  18.161  0.00  0.00    +0.000 A 
ATOM     13  C   UNL     1       4.057   4.701  17.597  0.00  0.00    +0.000 A 
ATOM     14  N   UNL     1       4.173   4.146  16.385  0.00  0.00    +0.000 NA
ATOM     15  C   UNL     1       5.267   4.417  15.653  0.00  0.00    +0.000 A 
ATOM     16  C   UNL     1       5.340   3.875  14.377  0.00  0.00    +0.000 A 
ATOM     17  C   UNL     1       6.430   4.103  13.536  0.00  0.00    +0.000 A 
ATOM     18  C   UNL     1       7.484   4.882  13.983  0.00  0.00    +0.000 A 
ATOM     19  C   UNL     1       7.437   5.431  15.264  0.00  0.00    +0.000 A 
ATOM     20  C   UNL     1       6.321   5.229  16.121  0.00  0.00    +0.000 A 
BRANCH  13  21
ATOM     21  O   UNL     1       2.910   4.381  18.259  0.00  0.00    +0.000 OA
ATOM     22  H   UNL     1       2.668   5.107  18.849  0.00  0.00    +0.000 HD
ENDBRANCH  13  21
ENDBRANCH   2  11
BRANCH   7  23
ATOM     23  C   UNL     1       9.512  12.225  17.976  0.00  0.00    +0.000 A 
ATOM     24  C   UNL     1       8.665  13.301  18.282  0.00  0.00    +0.000 A 
ATOM     25  C   UNL     1       9.078  14.614  18.044  0.00  0.00    +0.000 A 
ATOM     26  C   UNL     1      10.336  14.852  17.503  0.00  0.00    +0.000 A 
ATOM     27  F   UNL     1      10.728  16.113  17.279  0.00  0.00    +0.000 F 
ATOM     28  C   UNL     1      11.188  13.802  17.186  0.00  0.00    +0.000 A 
ATOM     29  C   UNL     1      10.773  12.490  17.417  0.00  0.00    +0.000 A 
ENDBRANCH   7  23
TORSDOF 3
ENDMDL
MODEL 6
REMARK VINA RESULT:      -8.0      6.831      9.481
REMARK  Name = 
REMARK  3 active torsions:
REMARK  status: ('A' for Active; 'I' for Inactive)
REMARK    1  A    between atoms: C_2  and  C_16
REMARK    2  A    between atoms: C_7  and  C_8
REMARK    3  A    between atoms: C_18  and  O_19
REMARK                            x       y       z     vdW  Elec       q    Type
REMARK                         _______ _______ _______ _____ _____    ______ ____
ROOT
ATOM      1  O   UNL     1       0.641   8.694  20.967  0.00  0.00    +0.000 OA
ATOM      2  C   UNL     1       0.719   9.365  19.947  0.00  0.00    +0.000 C 
ATOM      3  N   UNL     1       1.442   9.047  18.808  0.00  0.00    +0.000 N 
ATOM      4  C   UNL     1       2.218   7.911  18.765  0.00  0.00    +0.000 A 
ATOM      5  N   UNL     1       2.475   7.033  19.704  0.00  0.00    +0.000 NA
ATOM      6  N   UNL     1       3.333   6.089  19.192  0.00  0.00    +0.000 NA
ATOM      7  C   UNL     1       3.557   6.375  17.926  0.00  0.00    +0.000 A 
ATOM      8  N   UNL     1       2.882   7.533  17.631  0.00  0.00    +0.000 N 
ATOM      9  H   UNL     1       1.442   9.666  18.013  0.00  0.00    +0.000 HD
ATOM     10  H   UNL     1       2.889   8.011  16.745  0.00  0.00    +0.000 HD
ENDROOT
BRANCH   2  11
ATOM     11  C   UNL     1      -0.049  10.642  19.871  0.00  0.00    +0.000 A 
ATOM     12  C   UNL     1      -0.127  11.293  18.636  0.00  0.00    +0.000 A 
ATOM     13  C   UNL     1      -0.848  12.461  18.578  0.00  0.00    +0.000 A 
ATOM     14  N   UNL     1      -1.492  12.998  19.621  0.00  0.00    +0.000 NA
ATOM     15  C   UNL     1      -1.457  12.356  20.801  0.00  0.00    +0.000 A 
ATOM     16  C   UNL     1      -2.177  12.903  21.854  0.00  0.00    +0.000 A 
ATOM     17  C   UNL     1      -2.211  12.308  23.116  0.00  0.00    +0.000 A 
ATOM     18  C   UNL     1      -1.496  11.143  23.340  0.00  0.00    +0.000 A 
ATOM     19  C   UNL     1      -0.759  10.578  22.299  0.00  0.00    +0.000 A 
ATOM     20  C   UNL     1      -0.738  11.159  21.002  0.00  0.00    +0.000 A 
BRANCH  13  21
ATOM     21  O   UNL     1      -0.951  13.174  17.422  0.00  0.00    +0.000 OA
ATOM     22  H   UNL     1      -1.393  14.014  17.602  0.00  0.00    +0.000 HD
ENDBRANCH  13  21
ENDBRANCH   2  11
BRANCH   7  23
ATOM     23  C   UNL     1       4.396   5.631  16.997  0.00  0.00    +0.000 A 
ATOM     24  C   UNL     1       4.547   4.239  17.088  0.00  0.00    +0.000 A 
ATOM     25  C   UNL     1       5.366   3.557  16.184  0.00  0.00    +0.000 A 
ATOM     26  C   UNL     1       6.031   4.265  15.189  0.00  0.00    +0.000 A 
ATOM     27  F   UNL     1       6.812   3.606  14.324  0.00  0.00    +0.000 F 
ATOM     28  C   UNL     1       5.901   5.643  15.085  0.00  0.00    +0.000 A 
ATOM     29  C   UNL     1       5.089   6.326  15.992  0.00  0.00    +0.000 A 
ENDBRANCH   7  23
TORSDOF 3
ENDMDL
MODEL 7
REMARK VINA RESULT:      -8.0      6.614      9.451
REMARK  Name = 
REMARK  3 active torsions:
REMARK  status: ('A' for Active; 'I' for Inactive)
REMARK    1  A    between atoms: C_2  and  C_16
REMARK    2  A    between atoms: C_7  and  C_8
REMARK    3  A    between atoms: C_18  and  O_19
REMARK                            x       y       z     vdW  Elec       q    Type
REMARK                         _______ _______ _______ _____ _____    ______ ____
ROOT
ATOM      1  O   UNL     1       0.741   8.314  21.272  0.00  0.00    +0.000 OA
ATOM      2  C   UNL     1       0.847   9.091  20.334  0.00  0.00    +0.000 C 
ATOM      3  N   UNL     1       1.569   8.880  19.170  0.00  0.00    +0.000 N 
ATOM      4  C   UNL     1       2.311   7.733  19.004  0.00  0.00    +0.000 A 
ATOM      5  N   UNL     1       2.534   6.749  19.840  0.00  0.00    +0.000 NA
ATOM      6  N   UNL     1       3.368   5.842  19.230  0.00  0.00    +0.000 NA
ATOM      7  C   UNL     1       3.611   6.261  18.005  0.00  0.00    +0.000 A 
ATOM      8  N   UNL     1       2.973   7.464  17.837  0.00  0.00    +0.000 N 
ATOM      9  H   UNL     1       1.593   9.584  18.449  0.00  0.00    +0.000 HD
ATOM     10  H   UNL     1       3.001   8.038  17.011  0.00  0.00    +0.000 HD
ENDROOT
BRANCH   2  11
ATOM     11  C   UNL     1       0.117  10.392  20.397  0.00  0.00    +0.000 A 
ATOM     12  C   UNL     1       0.576  11.362  21.293  0.00  0.00    +0.000 A 
ATOM     13  C   UNL     1      -0.097  12.559  21.331  0.00  0.00    +0.000 A 
ATOM     14  N   UNL     1      -1.146  12.856  20.555  0.00  0.00    +0.000 NA
ATOM     15  C   UNL     1      -1.565  11.944  19.662  0.00  0.00    +0.000 A 
ATOM     16  C   UNL     1      -2.619  12.295  18.829  0.00  0.00    +0.000 A 
ATOM     17  C   UNL     1      -3.123  11.422  17.863  0.00  0.00    +0.000 A 
ATOM     18  C   UNL     1      -2.571  10.158  17.732  0.00  0.00    +0.000 A 
ATOM     19  C   UNL     1      -1.516   9.780  18.563  0.00  0.00    +0.000 A 
ATOM     20  C   UNL     1      -0.975  10.670  19.532  0.00  0.00    +0.000 A 
BRANCH  13  21
ATOM     21  O   UNL     1       0.265  13.549  22.196  0.00  0.00    +0.000 OA
ATOM     22  H   UNL     1       1.200  13.452  22.419  0.00  0.00    +0.000 HD
ENDBRANCH  13  21
ENDBRANCH   2  11
BRANCH   7  23
ATOM     23  C   UNL     1       4.434   5.599  17.002  0.00  0.00    +0.000 A 
ATOM     24  C   UNL     1       5.083   6.318  15.986  0.00  0.00    +0.000 A 
ATOM     25  C   UNL     1       5.859   5.651  15.035  0.00  0.00    +0.000 A 
ATOM     26  C   UNL     1       5.989   4.268  15.100  0.00  0.00    +0.000 A 
ATOM     27  F   UNL     1       6.737   3.634  14.188  0.00  0.00    +0.000 F 
ATOM     28  C   UNL     1       5.350   3.537  16.092  0.00  0.00    +0.000 A 
ATOM     29  C   UNL     1       4.569   4.202  17.039  0.00  0.00    +0.000 A 
ENDBRANCH   7  23
TORSDOF 3
ENDMDL
MODEL 8
REMARK VINA RESULT:      -7.9      7.072      8.816
REMARK  Name = 
REMARK  3 active torsions:
REMARK  status: ('A' for Active; 'I' for Inactive)
REMARK    1  A    between atoms: C_2  and  C_16
REMARK    2  A    between atoms: C_7  and  C_8
REMARK    3  A    between atoms: C_18  and  O_19
REMARK                            x       y       z     vdW  Elec       q    Type
REMARK                         _______ _______ _______ _____ _____    ______ ____
ROOT
ATOM      1  O   UNL     1       2.176   8.202  18.606  0.00  0.00    +0.000 OA
ATOM      2  C   UNL     1       1.960   7.617  19.658  0.00  0.00    +0.000 C 
ATOM      3  N   UNL     1       1.282   8.123  20.755  0.00  0.00    +0.000 N 
ATOM      4  C   UNL     1       0.825   9.422  20.758  0.00  0.00    +0.000 A 
ATOM      5  N   UNL     1       0.983  10.370  19.868  0.00  0.00    +0.000 NA
ATOM      6  N   UNL     1       0.371  11.509  20.333  0.00  0.00    +0.000 NA
ATOM      7  C   UNL     1      -0.197  11.232  21.488  0.00  0.00    +0.000 A 
ATOM      8  N   UNL     1       0.088   9.926  21.795  0.00  0.00    +0.000 N 
ATOM      9  H   UNL     1       1.152   7.560  21.581  0.00  0.00    +0.000 HD
ATOM     10  H   UNL     1      -0.189   9.441  22.632  0.00  0.00    +0.000 HD
ENDROOT
BRANCH   2  11
ATOM     11  C   UNL     1       2.432   6.208  19.803  0.00  0.00    +0.000 A 
ATOM     12  C   UNL     1       1.943   5.455  20.874  0.00  0.00    +0.000 A 
ATOM     13  C   UNL     1       2.375   4.156  20.987  0.00  0.00    +0.000 A 
ATOM     14  N   UNL     1       3.216   3.568  20.129  0.00  0.00    +0.000 NA
ATOM     15  C   UNL     1       3.658   4.272  19.073  0.00  0.00    +0.000 A 
ATOM     16  C   UNL     1       4.485   3.625  18.166  0.00  0.00    +0.000 A 
ATOM     17  C   UNL     1       4.990   4.266  17.034  0.00  0.00    +0.000 A 
ATOM     18  C   UNL     1       4.673   5.595  16.805  0.00  0.00    +0.000 A 
ATOM     19  C   UNL     1       3.849   6.269  17.707  0.00  0.00    +0.000 A 
ATOM     20  C   UNL     1       3.306   5.620  18.849  0.00  0.00    +0.000 A 
BRANCH  13  21
ATOM     21  O   UNL     1       1.971   3.361  22.017  0.00  0.00    +0.000 OA
ATOM     22  H   UNL     1       1.848   2.458  21.695  0.00  0.00    +0.000 HD
ENDBRANCH  13  21
ENDBRANCH   2  11
BRANCH   7  23
ATOM     23  C   UNL     1      -0.966  12.143  22.326  0.00  0.00    +0.000 A 
ATOM     24  C   UNL     1      -0.509  13.434  22.628  0.00  0.00    +0.000 A 
ATOM     25  C   UNL     1      -1.269  14.279  23.441  0.00  0.00    +0.000 A 
ATOM     26  C   UNL     1      -2.484  13.836  23.950  0.00  0.00    +0.000 A 
ATOM     27  F   UNL     1      -3.209  14.651  24.726  0.00  0.00    +0.000 F 
ATOM     28  C   UNL     1      -2.952  12.559  23.669  0.00  0.00    +0.000 A 
ATOM     29  C   UNL     1      -2.191  11.712  22.863  0.00  0.00    +0.000 A 
ENDBRANCH   7  23
TORSDOF 3
ENDMDL
MODEL 9
REMARK VINA RESULT:      -7.9      5.527      6.313
REMARK  Name = 
REMARK  3 active torsions:
REMARK  status: ('A' for Active; 'I' for Inactive)
REMARK    1  A    between atoms: C_2  and  C_16
REMARK    2  A    between atoms: C_7  and  C_8
REMARK    3  A    between atoms: C_18  and  O_19
REMARK                            x       y       z     vdW  Elec       q    Type
REMARK                         _______ _______ _______ _____ _____    ______ ____
ROOT
ATOM      1  O   UNL     1       1.947   7.190  19.639  0.00  0.00    +0.000 OA
ATOM      2  C   UNL     1       2.518   7.504  18.604  0.00  0.00    +0.000 C 
ATOM      3  N   UNL     1       2.584   8.774  18.055  0.00  0.00    +0.000 N 
ATOM      4  C   UNL     1       1.921   9.827  18.642  0.00  0.00    +0.000 A 
ATOM      5  N   UNL     1       1.115   9.840  19.676  0.00  0.00    +0.000 NA
ATOM      6  N   UNL     1       0.670  11.127  19.863  0.00  0.00    +0.000 NA
ATOM      7  C   UNL     1       1.247  11.900  18.966  0.00  0.00    +0.000 A 
ATOM      8  N   UNL     1       2.028  11.105  18.166  0.00  0.00    +0.000 N 
ATOM      9  H   UNL     1       3.084   8.934  17.194  0.00  0.00    +0.000 HD
ATOM     10  H   UNL     1       2.568  11.412  17.374  0.00  0.00    +0.000 HD
ENDROOT
BRANCH   2  11
ATOM     11  C   UNL     1       3.253   6.449  17.845  0.00  0.00    +0.000 A 
ATOM     12  C   UNL     1       4.389   6.826  17.123  0.00  0.00    +0.000 A 
ATOM     13  C   UNL     1       5.063   5.843  16.440  0.00  0.00    +0.000 A 
ATOM     14  N   UNL     1       4.711   4.552  16.441  0.00  0.00    +0.000 NA
ATOM     15  C   UNL     1       3.645   4.175  17.167  0.00  0.00    +0.000 A 
ATOM     16  C   UNL     1       3.330   2.824  17.198  0.00  0.00    +0.000 A 
ATOM     17  C   UNL     1       2.248   2.330  17.929  0.00  0.00    +0.000 A 
ATOM     18  C   UNL     1       1.448   3.210  18.639  0.00  0.00    +0.000 A 
ATOM     19  C   UNL     1       1.739   4.574  18.617  0.00  0.00    +0.000 A 
ATOM     20  C   UNL     1       2.854   5.086  17.899  0.00  0.00    +0.000 A 
BRANCH  13  21
ATOM     21  O   UNL     1       6.163   6.128  15.688  0.00  0.00    +0.000 OA
ATOM     22  H   UNL     1       6.612   5.305  15.453  0.00  0.00    +0.000 HD
ENDBRANCH  13  21
ENDBRANCH   2  11
BRANCH   7  23
ATOM     23  C   UNL     1       1.073  13.337  18.809  0.00  0.00    +0.000 A 
ATOM     24  C   UNL     1      -0.191  13.942  18.873  0.00  0.00    +0.000 A 
ATOM     25  C   UNL     1      -0.322  15.323  18.710  0.00  0.00    +0.000 A 
ATOM     26  C   UNL     1       0.808  16.100  18.486  0.00  0.00    +0.000 A 
ATOM     27  F   UNL     1       0.677  17.424  18.333  0.00  0.00    +0.000 F 
ATOM     28  C   UNL     1       2.069  15.522  18.411  0.00  0.00    +0.000 A 
ATOM     29  C   UNL     1       2.200  14.141  18.567  0.00  0.00    +0.000 A 
ENDBRANCH   7  23
TORSDOF 3
ENDMDL
