MODEL 1
REMARK VINA RESULT:      -8.4      0.000      0.000
REMARK  Name = 
REMARK  5 active torsions:
REMARK  status: ('A' for Active; 'I' for Inactive)
REMARK    1  A    between atoms: C_1  and  C_2
REMARK    2  A    between atoms: C_12  and  C_13
REMARK    3  A    between atoms: N_15  and  C_16
REMARK    4  A    between atoms: C_20  and  C_21
REMARK    5  A    between atoms: N_23  and  C_24
REMARK                            x       y       z     vdW  Elec       q    Type
REMARK                         _______ _______ _______ _____ _____    ______ ____
ROOT
ATOM      1  C   UNL     1       3.265   6.266  18.308  0.00  0.00    +0.000 C 
ATOM      2  O   UNL     1       2.761   5.214  17.937  0.00  0.00    +0.000 OA
ATOM      3  N   UNL     1       4.613   6.601  18.223  0.00  0.00    +0.000 N 
ATOM      4  H   UNL     1       4.925   7.421  18.728  0.00  0.00    +0.000 HD
ENDROOT
BRANCH   1  16
ATOM      5  C   UNL     1       1.947   5.817  20.986  0.00  0.00    +0.000 C 
ATOM      6  C   UNL     1       1.784   7.080  20.189  0.00  0.00    +0.000 A 
ATOM      7  N   UNL     1       0.973   8.009  20.767  0.00  0.00    +0.000 NA
ATOM      8  C   UNL     1       0.696   9.146  20.110  0.00  0.00    +0.000 A 
ATOM      9  C   UNL     1      -0.151  10.075  20.691  0.00  0.00    +0.000 A 
ATOM     10  C   UNL     1      -0.490  11.243  20.019  0.00  0.00    +0.000 A 
ATOM     11  F   UNL     1      -1.320  12.119  20.598  0.00  0.00    +0.000 F 
ATOM     12  C   UNL     1       0.013  11.514  18.756  0.00  0.00    +0.000 A 
ATOM     13  C   UNL     1       0.878  10.602  18.158  0.00  0.00    +0.000 A 
ATOM     14  C   UNL     1       1.227   9.419  18.832  0.00  0.00    +0.000 A 
ATOM     15  C   UNL     1       2.088   8.470  18.261  0.00  0.00    +0.000 A 
ATOM     16  C   UNL     1       2.387   7.286  18.945  0.00  0.00    +0.000 A 
ENDBRANCH   1  16
BRANCH   3  17
ATOM     17  C   UNL     1       5.632   5.804  17.647  0.00  0.00    +0.000 A 
ATOM     18  C   UNL     1       6.657   5.216  18.395  0.00  0.00    +0.000 A 
ATOM     19  C   UNL     1       7.672   4.486  17.774  0.00  0.00    +0.000 A 
ATOM     20  C   UNL     1       7.686   4.345  16.390  0.00  0.00    +0.000 A 
ATOM     21  C   UNL     1       6.668   4.926  15.625  0.00  0.00    +0.000 A 
ATOM     22  C   UNL     1       5.620   5.615  16.258  0.00  0.00    +0.000 A 
BRANCH  21  23
ATOM     23  C   UNL     1       6.682   4.840  14.140  0.00  0.00    +0.000 C 
ATOM     24  O   UNL     1       7.415   5.572  13.485  0.00  0.00    +0.000 OA
ATOM     25  N   UNL     1       5.864   3.862  13.595  0.00  0.00    +0.000 N 
ATOM     26  H   UNL     1       5.440   3.179  14.209  0.00  0.00    +0.000 HD
BRANCH  25  27
ATOM     27  C   UNL     1       5.763   3.628  12.188  0.00  0.00    +0.000 C 
ATOM     28  C   UNL     1       4.464   3.179  11.579  0.00  0.00    +0.000 C 
ATOM     29  C   UNL     1       5.616   2.223  11.662  0.00  0.00    +0.000 C 
ENDBRANCH  25  27
ENDBRANCH  21  23
ENDBRANCH   3  17
TORSDOF 4
ENDMDL
MODEL 2
REMARK VINA RESULT:      -8.3      3.602      9.081
REMARK  Name = 
REMARK  5 active torsions:
REMARK  status: ('A' for Active; 'I' for Inactive)
REMARK    1  A    between atoms: C_1  and  C_2
REMARK    2  A    between atoms: C_12  and  C_13
REMARK    3  A    between atoms: N_15  and  C_16
REMARK    4  A    between atoms: C_20  and  C_21
REMARK    5  A    between atoms: N_23  and  C_24
REMARK                            x       y       z     vdW  Elec       q    Type
REMARK                         _______ _______ _______ _____ _____    ______ ____
ROOT
ATOM      1  C   UNL     1       4.674   5.850  17.995  0.00  0.00    +0.000 C 
ATOM      2  O   UNL     1       5.017   5.336  19.053  0.00  0.00    +0.000 OA
ATOM      3  N   UNL     1       3.591   6.704  17.815  0.00  0.00    +0.000 N 
ATOM      4  H   UNL     1       3.311   6.912  16.865  0.00  0.00    +0.000 HD
ENDROOT
BRANCH   1  16
ATOM      5  C   UNL     1       7.407   7.006  17.448  0.00  0.00    +0.000 C 
ATOM      6  C   UNL     1       6.716   6.051  16.518  0.00  0.00    +0.000 A 
ATOM      7  N   UNL     1       7.420   5.756  15.388  0.00  0.00    +0.000 NA
ATOM      8  C   UNL     1       6.867   4.971  14.451  0.00  0.00    +0.000 A 
ATOM      9  C   UNL     1       7.576   4.698  13.293  0.00  0.00    +0.000 A 
ATOM     10  C   UNL     1       7.016   3.922  12.286  0.00  0.00    +0.000 A 
ATOM     11  F   UNL     1       7.717   3.683  11.171  0.00  0.00    +0.000 F 
ATOM     12  C   UNL     1       5.739   3.396  12.413  0.00  0.00    +0.000 A 
ATOM     13  C   UNL     1       5.014   3.645  13.574  0.00  0.00    +0.000 A 
ATOM     14  C   UNL     1       5.574   4.427  14.599  0.00  0.00    +0.000 A 
ATOM     15  C   UNL     1       4.872   4.709  15.780  0.00  0.00    +0.000 A 
ATOM     16  C   UNL     1       5.447   5.520  16.766  0.00  0.00    +0.000 A 
ENDBRANCH   1  16
BRANCH   3  17
ATOM     17  C   UNL     1       2.723   7.170  18.832  0.00  0.00    +0.000 A 
ATOM     18  C   UNL     1       2.355   6.396  19.936  0.00  0.00    +0.000 A 
ATOM     19  C   UNL     1       1.449   6.880  20.884  0.00  0.00    +0.000 A 
ATOM     20  C   UNL     1       0.886   8.144  20.731  0.00  0.00    +0.000 A 
ATOM     21  C   UNL     1       1.244   8.933  19.633  0.00  0.00    +0.000 A 
ATOM     22  C   UNL     1       2.194   8.464  18.710  0.00  0.00    +0.000 A 
BRANCH  21  23
ATOM     23  C   UNL     1       0.620  10.265  19.411  0.00  0.00    +0.000 C 
ATOM     24  O   UNL     1       1.114  11.270  19.910  0.00  0.00    +0.000 OA
ATOM     25  N   UNL     1      -0.491  10.269  18.581  0.00  0.00    +0.000 N 
ATOM     26  H   UNL     1      -0.718   9.432  18.062  0.00  0.00    +0.000 HD
BRANCH  25  27
ATOM     27  C   UNL     1      -1.208  11.460  18.246  0.00  0.00    +0.000 C 
ATOM     28  C   UNL     1      -2.350  11.932  19.103  0.00  0.00    +0.000 C 
ATOM     29  C   UNL     1      -2.623  11.375  17.737  0.00  0.00    +0.000 C 
ENDBRANCH  25  27
ENDBRANCH  21  23
ENDBRANCH   3  17
TORSDOF 4
ENDMDL
MODEL 3
REMARK VINA RESULT:      -8.3      3.540      9.354
REMARK  Name = 
REMARK  5 active torsions:
REMARK  status: ('A' for Active; 'I' for Inactive)
REMARK    1  A    between atoms: C_1  and  C_2
REMARK    2  A    between atoms: C_12  and  C_13
REMARK    3  A    between atoms: N_15  and  C_16
REMARK    4  A    between atoms: C_20  and  C_21
REMARK    5  A    between atoms: N_23  and  C_24
REMARK                            x       y       z     vdW  Elec       q    Type
REMARK                         _______ _______ _______ _____ _____    ______ ____
ROOT
ATOM      1  C   UNL     1       4.805   5.562  18.082  0.00  0.00    +0.000 C 
ATOM      2  O   UNL     1       5.238   5.057  19.110  0.00  0.00    +0.000 OA
ATOM      3  N   UNL     1       3.640   6.315  17.969  0.00  0.00    +0.000 N 
ATOM      4  H   UNL     1       3.302   6.519  17.037  0.00  0.00    +0.000 HD
ENDROOT
BRANCH   1  16
ATOM      5  C   UNL     1       7.426   6.936  17.489  0.00  0.00    +0.000 C 
ATOM      6  C   UNL     1       6.771   5.969  16.545  0.00  0.00    +0.000 A 
ATOM      7  N   UNL     1       7.450   5.771  15.380  0.00  0.00    +0.000 NA
ATOM      8  C   UNL     1       6.921   4.984  14.431  0.00  0.00    +0.000 A 
ATOM      9  C   UNL     1       7.603   4.809  13.239  0.00  0.00    +0.000 A 
ATOM     10  C   UNL     1       7.063   4.034  12.220  0.00  0.00    +0.000 A 
ATOM     11  F   UNL     1       7.738   3.890  11.073  0.00  0.00    +0.000 F 
ATOM     12  C   UNL     1       5.833   3.411  12.369  0.00  0.00    +0.000 A 
ATOM     13  C   UNL     1       5.136   3.562  13.564  0.00  0.00    +0.000 A 
ATOM     14  C   UNL     1       5.676   4.342  14.601  0.00  0.00    +0.000 A 
ATOM     15  C   UNL     1       5.001   4.526  15.816  0.00  0.00    +0.000 A 
ATOM     16  C   UNL     1       5.552   5.338  16.814  0.00  0.00    +0.000 A 
ENDBRANCH   1  16
BRANCH   3  17
ATOM     17  C   UNL     1       2.775   6.672  19.033  0.00  0.00    +0.000 A 
ATOM     18  C   UNL     1       2.361   5.769  20.016  0.00  0.00    +0.000 A 
ATOM     19  C   UNL     1       1.461   6.154  21.013  0.00  0.00    +0.000 A 
ATOM     20  C   UNL     1       0.950   7.448  21.031  0.00  0.00    +0.000 A 
ATOM     21  C   UNL     1       1.354   8.366  20.055  0.00  0.00    +0.000 A 
ATOM     22  C   UNL     1       2.300   7.990  19.086  0.00  0.00    +0.000 A 
BRANCH  21  23
ATOM     23  C   UNL     1       0.786   9.740  20.014  0.00  0.00    +0.000 C 
ATOM     24  O   UNL     1       1.105  10.515  19.119  0.00  0.00    +0.000 OA
ATOM     25  N   UNL     1      -0.136  10.031  21.008  0.00  0.00    +0.000 N 
ATOM     26  H   UNL     1      -0.483   9.280  21.590  0.00  0.00    +0.000 HD
BRANCH  25  27
ATOM     27  C   UNL     1      -0.793  11.296  21.114  0.00  0.00    +0.000 C 
ATOM     28  C   UNL     1      -0.068  12.491  21.668  0.00  0.00    +0.000 C 
ATOM     29  C   UNL     1      -1.163  11.848  22.467  0.00  0.00    +0.000 C 
ENDBRANCH  25  27
ENDBRANCH  21  23
ENDBRANCH   3  17
TORSDOF 4
ENDMDL
MODEL 4
REMARK VINA RESULT:      -8.2      3.521      9.071
REMARK  Name = 
REMARK  5 active torsions:
REMARK  status: ('A' for Active; 'I' for Inactive)
REMARK    1  A    between atoms: C_1  and  C_2
REMARK    2  A    between atoms: C_12  and  C_13
REMARK    3  A    between atoms: N_15  and  C_16
REMARK    4  A    between atoms: C_20  and  C_21
REMARK    5  A    between atoms: N_23  and  C_24
REMARK                            x       y       z     vdW  Elec       q    Type
REMARK                         _______ _______ _______ _____ _____    ______ ____
ROOT
ATOM      1  C   UNL     1       5.062   4.952  17.947  0.00  0.00    +0.000 C 
ATOM      2  O   UNL     1       5.609   4.444  18.918  0.00  0.00    +0.000 OA
ATOM      3  N   UNL     1       3.803   5.543  17.935  0.00  0.00    +0.000 N 
ATOM      4  H   UNL     1       3.395   5.761  17.034  0.00  0.00    +0.000 HD
ENDROOT
BRANCH   1  16
ATOM      5  C   UNL     1       7.482   6.662  17.375  0.00  0.00    +0.000 C 
ATOM      6  C   UNL     1       6.896   5.705  16.378  0.00  0.00    +0.000 A 
ATOM      7  N   UNL     1       7.539   5.680  15.176  0.00  0.00    +0.000 NA
ATOM      8  C   UNL     1       7.057   4.916  14.184  0.00  0.00    +0.000 A 
ATOM      9  C   UNL     1       7.698   4.917  12.957  0.00  0.00    +0.000 A 
ATOM     10  C   UNL     1       7.202   4.168  11.897  0.00  0.00    +0.000 A 
ATOM     11  F   UNL     1       7.834   4.195  10.717  0.00  0.00    +0.000 F 
ATOM     12  C   UNL     1       6.058   3.397  12.038  0.00  0.00    +0.000 A 
ATOM     13  C   UNL     1       5.405   3.370  13.267  0.00  0.00    +0.000 A 
ATOM     14  C   UNL     1       5.901   4.122  14.345  0.00  0.00    +0.000 A 
ATOM     15  C   UNL     1       5.268   4.129  15.596  0.00  0.00    +0.000 A 
ATOM     16  C   UNL     1       5.770   4.918  16.638  0.00  0.00    +0.000 A 
ENDBRANCH   1  16
BRANCH   3  17
ATOM     17  C   UNL     1       2.951   5.706  19.055  0.00  0.00    +0.000 A 
ATOM     18  C   UNL     1       2.385   4.632  19.747  0.00  0.00    +0.000 A 
ATOM     19  C   UNL     1       1.505   4.845  20.811  0.00  0.00    +0.000 A 
ATOM     20  C   UNL     1       1.165   6.140  21.188  0.00  0.00    +0.000 A 
ATOM     21  C   UNL     1       1.723   7.228  20.507  0.00  0.00    +0.000 A 
ATOM     22  C   UNL     1       2.648   7.010  19.473  0.00  0.00    +0.000 A 
BRANCH  21  23
ATOM     23  C   UNL     1       1.340   8.624  20.850  0.00  0.00    +0.000 C 
ATOM     24  O   UNL     1       1.387   9.011  22.012  0.00  0.00    +0.000 OA
ATOM     25  N   UNL     1       0.990   9.424  19.773  0.00  0.00    +0.000 N 
ATOM     26  H   UNL     1       1.159   9.086  18.835  0.00  0.00    +0.000 HD
BRANCH  25  27
ATOM     27  C   UNL     1       0.609  10.795  19.913  0.00  0.00    +0.000 C 
ATOM     28  C   UNL     1      -0.735  11.161  20.479  0.00  0.00    +0.000 C 
ATOM     29  C   UNL     1      -0.455  11.382  19.022  0.00  0.00    +0.000 C 
ENDBRANCH  25  27
ENDBRANCH  21  23
ENDBRANCH   3  17
TORSDOF 4
ENDMDL
MODEL 5
REMARK VINA RESULT:      -8.2      4.158      9.625
REMARK  Name = 
REMARK  5 active torsions:
REMARK  status: ('A' for Active; 'I' for Inactive)
REMARK    1  A    between atoms: C_1  and  C_2
REMARK    2  A    between atoms: C_12  and  C_13
REMARK    3  A    between atoms: N_15  and  C_16
REMARK    4  A    between atoms: C_20  and  C_21
REMARK    5  A    between atoms: N_23  and  C_24
REMARK                            x       y       z     vdW  Elec       q    Type
REMARK                         _______ _______ _______ _____ _____    ______ ____
ROOT
ATOM      1  C   UNL     1       1.718   8.398  19.193  0.00  0.00    +0.000 C 
ATOM      2  O   UNL     1       1.654   8.543  20.407  0.00  0.00    +0.000 OA
ATOM      3  N   UNL     1       1.073   9.181  18.241  0.00  0.00    +0.000 N 
ATOM      4  H   UNL     1       1.063   8.845  17.286  0.00  0.00    +0.000 HD
ENDROOT
BRANCH   1  16
ATOM      5  C   UNL     1       1.704   5.661  20.466  0.00  0.00    +0.000 C 
ATOM      6  C   UNL     1       2.510   5.997  19.244  0.00  0.00    +0.000 A 
ATOM      7  N   UNL     1       3.255   4.964  18.759  0.00  0.00    +0.000 NA
ATOM      8  C   UNL     1       4.071   5.170  17.714  0.00  0.00    +0.000 A 
ATOM      9  C   UNL     1       4.846   4.123  17.243  0.00  0.00    +0.000 A 
ATOM     10  C   UNL     1       5.731   4.315  16.190  0.00  0.00    +0.000 A 
ATOM     11  F   UNL     1       6.478   3.289  15.761  0.00  0.00    +0.000 F 
ATOM     12  C   UNL     1       5.859   5.552  15.577  0.00  0.00    +0.000 A 
ATOM     13  C   UNL     1       5.080   6.615  16.024  0.00  0.00    +0.000 A 
ATOM     14  C   UNL     1       4.180   6.430  17.088  0.00  0.00    +0.000 A 
ATOM     15  C   UNL     1       3.384   7.477  17.573  0.00  0.00    +0.000 A 
ATOM     16  C   UNL     1       2.524   7.266  18.658  0.00  0.00    +0.000 A 
ENDBRANCH   1  16
BRANCH   3  17
ATOM     17  C   UNL     1       0.267  10.315  18.506  0.00  0.00    +0.000 A 
ATOM     18  C   UNL     1       0.754  11.470  19.124  0.00  0.00    +0.000 A 
ATOM     19  C   UNL     1      -0.093  12.541  19.417  0.00  0.00    +0.000 A 
ATOM     20  C   UNL     1      -1.448  12.465  19.108  0.00  0.00    +0.000 A 
ATOM     21  C   UNL     1      -1.953  11.317  18.488  0.00  0.00    +0.000 A 
ATOM     22  C   UNL     1      -1.087  10.264  18.148  0.00  0.00    +0.000 A 
BRANCH  21  23
ATOM     23  C   UNL     1      -3.405  11.181  18.193  0.00  0.00    +0.000 C 
ATOM     24  O   UNL     1      -3.831  10.179  17.633  0.00  0.00    +0.000 OA
ATOM     25  N   UNL     1      -4.200  12.226  18.639  0.00  0.00    +0.000 N 
ATOM     26  H   UNL     1      -3.799  12.920  19.255  0.00  0.00    +0.000 HD
BRANCH  25  27
ATOM     27  C   UNL     1      -5.618  12.257  18.456  0.00  0.00    +0.000 C 
ATOM     28  C   UNL     1      -6.215  12.839  17.205  0.00  0.00    +0.000 C 
ATOM     29  C   UNL     1      -6.361  13.567  18.508  0.00  0.00    +0.000 C 
ENDBRANCH  25  27
ENDBRANCH  21  23
ENDBRANCH   3  17
TORSDOF 4
ENDMDL
MODEL 6
REMARK VINA RESULT:      -8.1      4.153      9.008
REMARK  Name = 
REMARK  5 active torsions:
REMARK  status: ('A' for Active; 'I' for Inactive)
REMARK    1  A    between atoms: C_1  and  C_2
REMARK    2  A    between atoms: C_12  and  C_13
REMARK    3  A    between atoms: N_15  and  C_16
REMARK    4  A    between atoms: C_20  and  C_21
REMARK    5  A    between atoms: N_23  and  C_24
REMARK                            x       y       z     vdW  Elec       q    Type
REMARK                         _______ _______ _______ _____ _____    ______ ____
ROOT
ATOM      1  C   UNL     1       1.852   8.219  19.383  0.00  0.00    +0.000 C 
ATOM      2  O   UNL     1       1.793   8.248  20.606  0.00  0.00    +0.000 OA
ATOM      3  N   UNL     1       1.272   9.138  18.515  0.00  0.00    +0.000 N 
ATOM      4  H   UNL     1       1.242   8.900  17.531  0.00  0.00    +0.000 HD
ENDROOT
BRANCH   1  16
ATOM      5  C   UNL     1       1.645   5.381  20.390  0.00  0.00    +0.000 C 
ATOM      6  C   UNL     1       2.471   5.774  19.199  0.00  0.00    +0.000 A 
ATOM      7  N   UNL     1       3.140   4.742  18.612  0.00  0.00    +0.000 NA
ATOM      8  C   UNL     1       3.968   4.989  17.585  0.00  0.00    +0.000 A 
ATOM      9  C   UNL     1       4.666   3.939  17.012  0.00  0.00    +0.000 A 
ATOM     10  C   UNL     1       5.562   4.167  15.974  0.00  0.00    +0.000 A 
ATOM     11  F   UNL     1       6.233   3.137  15.444  0.00  0.00    +0.000 F 
ATOM     12  C   UNL     1       5.777   5.445  15.481  0.00  0.00    +0.000 A 
ATOM     13  C   UNL     1       5.075   6.513  16.033  0.00  0.00    +0.000 A 
ATOM     14  C   UNL     1       4.166   6.291  17.082  0.00  0.00    +0.000 A 
ATOM     15  C   UNL     1       3.447   7.341  17.670  0.00  0.00    +0.000 A 
ATOM     16  C   UNL     1       2.575   7.090  18.736  0.00  0.00    +0.000 A 
ENDBRANCH   1  16
BRANCH   3  17
ATOM     17  C   UNL     1       0.551  10.297  18.893  0.00  0.00    +0.000 A 
ATOM     18  C   UNL     1      -0.802  10.275  19.244  0.00  0.00    +0.000 A 
ATOM     19  C   UNL     1      -1.484  11.453  19.554  0.00  0.00    +0.000 A 
ATOM     20  C   UNL     1      -0.824  12.678  19.502  0.00  0.00    +0.000 A 
ATOM     21  C   UNL     1       0.531  12.719  19.154  0.00  0.00    +0.000 A 
ATOM     22  C   UNL     1       1.226  11.526  18.894  0.00  0.00    +0.000 A 
BRANCH  21  23
ATOM     23  C   UNL     1       1.253  14.015  19.037  0.00  0.00    +0.000 C 
ATOM     24  O   UNL     1       0.659  15.071  19.215  0.00  0.00    +0.000 OA
ATOM     25  N   UNL     1       2.610  13.915  18.772  0.00  0.00    +0.000 N 
ATOM     26  H   UNL     1       3.056  13.009  18.828  0.00  0.00    +0.000 HD
BRANCH  25  27
ATOM     27  C   UNL     1       3.463  15.056  18.641  0.00  0.00    +0.000 C 
ATOM     28  C   UNL     1       3.608  15.755  17.318  0.00  0.00    +0.000 C 
ATOM     29  C   UNL     1       4.751  14.954  17.866  0.00  0.00    +0.000 C 
ENDBRANCH  25  27
ENDBRANCH  21  23
ENDBRANCH   3  17
TORSDOF 4
ENDMDL
MODEL 7
REMARK VINA RESULT:      -8.1      1.101      1.971
REMARK  Name = 
REMARK  5 active torsions:
REMARK  status: ('A' for Active; 'I' for Inactive)
REMARK    1  A    between atoms: C_1  and  C_2
REMARK    2  A    between atoms: C_12  and  C_13
REMARK    3  A    between atoms: N_15  and  C_16
REMARK    4  A    between atoms: C_20  and  C_21
REMARK    5  A    between atoms: N_23  and  C_24
REMARK                            x       y       z     vdW  Elec       q    Type
REMARK                         _______ _______ _______ _____ _____    ______ ____
ROOT
ATOM      1  C   UNL     1       3.084   6.435  19.070  0.00  0.00    +0.000 C 
ATOM      2  O   UNL     1       2.733   5.279  19.268  0.00  0.00    +0.000 OA
ATOM      3  N   UNL     1       4.292   6.838  18.511  0.00  0.00    +0.000 N 
ATOM      4  H   UNL     1       4.531   7.820  18.570  0.00  0.00    +0.000 HD
ENDROOT
BRANCH   1  16
ATOM      5  C   UNL     1       2.356   8.717  17.233  0.00  0.00    +0.000 C 
ATOM      6  C   UNL     1       1.826   8.585  18.632  0.00  0.00    +0.000 A 
ATOM      7  N   UNL     1       0.996   9.595  19.017  0.00  0.00    +0.000 NA
ATOM      8  C   UNL     1       0.522   9.619  20.272  0.00  0.00    +0.000 A 
ATOM      9  C   UNL     1      -0.299  10.663  20.665  0.00  0.00    +0.000 A 
ATOM     10  C   UNL     1      -0.772  10.739  21.969  0.00  0.00    +0.000 A 
ATOM     11  F   UNL     1      -1.555  11.765  22.327  0.00  0.00    +0.000 F 
ATOM     12  C   UNL     1      -0.444   9.774  22.909  0.00  0.00    +0.000 A 
ATOM     13  C   UNL     1       0.368   8.708  22.532  0.00  0.00    +0.000 A 
ATOM     14  C   UNL     1       0.851   8.622  21.215  0.00  0.00    +0.000 A 
ATOM     15  C   UNL     1       1.678   7.569  20.798  0.00  0.00    +0.000 A 
ATOM     16  C   UNL     1       2.169   7.533  19.487  0.00  0.00    +0.000 A 
ENDBRANCH   1  16
BRANCH   3  17
ATOM     17  C   UNL     1       5.310   5.981  18.027  0.00  0.00    +0.000 A 
ATOM     18  C   UNL     1       6.221   5.328  18.862  0.00  0.00    +0.000 A 
ATOM     19  C   UNL     1       7.244   4.538  18.334  0.00  0.00    +0.000 A 
ATOM     20  C   UNL     1       7.380   4.402  16.955  0.00  0.00    +0.000 A 
ATOM     21  C   UNL     1       6.477   5.047  16.103  0.00  0.00    +0.000 A 
ATOM     22  C   UNL     1       5.418   5.798  16.640  0.00  0.00    +0.000 A 
BRANCH  21  23
ATOM     23  C   UNL     1       6.627   4.966  14.625  0.00  0.00    +0.000 C 
ATOM     24  O   UNL     1       7.550   5.544  14.064  0.00  0.00    +0.000 OA
ATOM     25  N   UNL     1       5.696   4.167  13.978  0.00  0.00    +0.000 N 
ATOM     26  H   UNL     1       5.088   3.577  14.530  0.00  0.00    +0.000 HD
BRANCH  25  27
ATOM     27  C   UNL     1       5.697   3.962  12.563  0.00  0.00    +0.000 C 
ATOM     28  C   UNL     1       4.525   3.310  11.884  0.00  0.00    +0.000 C 
ATOM     29  C   UNL     1       5.825   2.571  11.998  0.00  0.00    +0.000 C 
ENDBRANCH  25  27
ENDBRANCH  21  23
ENDBRANCH   3  17
TORSDOF 4
ENDMDL
MODEL 8
REMARK VINA RESULT:      -8.1      3.619      9.115
REMARK  Name = 
REMARK  5 active torsions:
REMARK  status: ('A' for Active; 'I' for Inactive)
REMARK    1  A    between atoms: C_1  and  C_2
REMARK    2  A    between atoms: C_12  and  C_13
REMARK    3  A    between atoms: N_15  and  C_16
REMARK    4  A    between atoms: C_20  and  C_21
REMARK    5  A    between atoms: N_23  and  C_24
REMARK                            x       y       z     vdW  Elec       q    Type
REMARK                         _______ _______ _______ _____ _____    ______ ____
ROOT
ATOM      1  C   UNL     1       4.655   5.776  17.951  0.00  0.00    +0.000 C 
ATOM      2  O   UNL     1       4.954   5.207  18.993  0.00  0.00    +0.000 OA
ATOM      3  N   UNL     1       3.612   6.681  17.785  0.00  0.00    +0.000 N 
ATOM      4  H   UNL     1       3.360   6.939  16.839  0.00  0.00    +0.000 HD
ENDROOT
BRANCH   1  16
ATOM      5  C   UNL     1       7.378   6.970  17.431  0.00  0.00    +0.000 C 
ATOM      6  C   UNL     1       6.704   6.013  16.489  0.00  0.00    +0.000 A 
ATOM      7  N   UNL     1       7.419   5.736  15.362  0.00  0.00    +0.000 NA
ATOM      8  C   UNL     1       6.882   4.951  14.415  0.00  0.00    +0.000 A 
ATOM      9  C   UNL     1       7.601   4.696  13.260  0.00  0.00    +0.000 A 
ATOM     10  C   UNL     1       7.058   3.921  12.243  0.00  0.00    +0.000 A 
ATOM     11  F   UNL     1       7.770   3.699  11.131  0.00  0.00    +0.000 F 
ATOM     12  C   UNL     1       5.787   3.378  12.357  0.00  0.00    +0.000 A 
ATOM     13  C   UNL     1       5.051   3.610  13.516  0.00  0.00    +0.000 A 
ATOM     14  C   UNL     1       5.594   4.391  14.550  0.00  0.00    +0.000 A 
ATOM     15  C   UNL     1       4.882   4.655  15.728  0.00  0.00    +0.000 A 
ATOM     16  C   UNL     1       5.439   5.466  16.724  0.00  0.00    +0.000 A 
ENDBRANCH   1  16
BRANCH   3  17
ATOM     17  C   UNL     1       2.741   7.141  18.804  0.00  0.00    +0.000 A 
ATOM     18  C   UNL     1       2.383   6.366  19.910  0.00  0.00    +0.000 A 
ATOM     19  C   UNL     1       1.476   6.843  20.859  0.00  0.00    +0.000 A 
ATOM     20  C   UNL     1       0.899   8.100  20.705  0.00  0.00    +0.000 A 
ATOM     21  C   UNL     1       1.247   8.891  19.604  0.00  0.00    +0.000 A 
ATOM     22  C   UNL     1       2.200   8.429  18.680  0.00  0.00    +0.000 A 
BRANCH  21  23
ATOM     23  C   UNL     1       0.609  10.216  19.381  0.00  0.00    +0.000 C 
ATOM     24  O   UNL     1      -0.591  10.366  19.575  0.00  0.00    +0.000 OA
ATOM     25  N   UNL     1       1.473  11.233  19.001  0.00  0.00    +0.000 N 
ATOM     26  H   UNL     1       2.470  11.072  19.048  0.00  0.00    +0.000 HD
BRANCH  25  27
ATOM     27  C   UNL     1       1.038  12.573  18.758  0.00  0.00    +0.000 C 
ATOM     28  C   UNL     1       2.014  13.624  18.309  0.00  0.00    +0.000 C 
ATOM     29  C   UNL     1       1.442  13.683  19.694  0.00  0.00    +0.000 C 
ENDBRANCH  25  27
ENDBRANCH  21  23
ENDBRANCH   3  17
TORSDOF 4
ENDMDL
MODEL 9
REMARK VINA RESULT:      -8.1      2.186      3.842
REMARK  Name = 
REMARK  5 active torsions:
REMARK  status: ('A' for Active; 'I' for Inactive)
REMARK    1  A    between atoms: C_1  and  C_2
REMARK    2  A    between atoms: C_12  and  C_13
REMARK    3  A    between atoms: N_15  and  C_16
REMARK    4  A    between atoms: C_20  and  C_21
REMARK    5  A    between atoms: N_23  and  C_24
REMARK                            x       y       z     vdW  Elec       q    Type
REMARK                         _______ _______ _______ _____ _____    ______ ____
ROOT
ATOM      1  C   UNL     1       2.119   7.539  19.602  0.00  0.00    +0.000 C 
ATOM      2  O   UNL     1       2.864   7.675  18.639  0.00  0.00    +0.000 OA
ATOM      3  N   UNL     1       1.958   6.379  20.352  0.00  0.00    +0.000 N 
ATOM      4  H   UNL     1       1.183   6.345  21.003  0.00  0.00    +0.000 HD
ENDROOT
BRANCH   1  16
ATOM      5  C   UNL     1       1.733   9.959  17.841  0.00  0.00    +0.000 C 
ATOM      6  C   UNL     1       1.085   9.809  19.187  0.00  0.00    +0.000 A 
ATOM      7  N   UNL     1       0.315  10.869  19.563  0.00  0.00    +0.000 NA
ATOM      8  C   UNL     1      -0.253  10.876  20.779  0.00  0.00    +0.000 A 
ATOM      9  C   UNL     1      -1.011  11.968  21.165  0.00  0.00    +0.000 A 
ATOM     10  C   UNL     1      -1.578  12.024  22.432  0.00  0.00    +0.000 A 
ATOM     11  F   UNL     1      -2.298  13.096  22.786  0.00  0.00    +0.000 F 
ATOM     12  C   UNL     1      -1.407  10.990  23.341  0.00  0.00    +0.000 A 
ATOM     13  C   UNL     1      -0.660   9.876  22.968  0.00  0.00    +0.000 A 
ATOM     14  C   UNL     1      -0.085   9.810  21.688  0.00  0.00    +0.000 A 
ATOM     15  C   UNL     1       0.682   8.710  21.278  0.00  0.00    +0.000 A 
ATOM     16  C   UNL     1       1.270   8.692  20.008  0.00  0.00    +0.000 A 
ENDBRANCH   1  16
BRANCH   3  17
ATOM     17  C   UNL     1       2.663   5.164  20.166  0.00  0.00    +0.000 A 
ATOM     18  C   UNL     1       2.387   4.002  20.892  0.00  0.00    +0.000 A 
ATOM     19  C   UNL     1       3.148   2.845  20.713  0.00  0.00    +0.000 A 
ATOM     20  C   UNL     1       4.211   2.839  19.815  0.00  0.00    +0.000 A 
ATOM     21  C   UNL     1       4.502   3.994  19.079  0.00  0.00    +0.000 A 
ATOM     22  C   UNL     1       3.701   5.139  19.223  0.00  0.00    +0.000 A 
BRANCH  21  23
ATOM     23  C   UNL     1       5.663   4.038  18.151  0.00  0.00    +0.000 C 
ATOM     24  O   UNL     1       6.793   4.233  18.583  0.00  0.00    +0.000 OA
ATOM     25  N   UNL     1       5.366   3.797  16.818  0.00  0.00    +0.000 N 
ATOM     26  H   UNL     1       4.444   3.459  16.574  0.00  0.00    +0.000 HD
BRANCH  25  27
ATOM     27  C   UNL     1       6.359   3.786  15.789  0.00  0.00    +0.000 C 
ATOM     28  C   UNL     1       6.773   5.063  15.112  0.00  0.00    +0.000 C 
ATOM     29  C   UNL     1       5.970   4.046  14.357  0.00  0.00    +0.000 C 
ENDBRANCH  25  27
ENDBRANCH  21  23
ENDBRANCH   3  17
TORSDOF 4
ENDMDL
