MODEL 1
REMARK VINA RESULT:      -8.8      0.000      0.000
REMARK  Name = 
REMARK  5 active torsions:
REMARK  status: ('A' for Active; 'I' for Inactive)
REMARK    1  A    between atoms: C_2  and  C_17
REMARK    2  A    between atoms: N_3  and  C_4
REMARK    3  A    between atoms: C_4  and  C_5
REMARK    4  A    between atoms: C_10  and  C_11
REMARK    5  A    between atoms: C_11  and  N_12
REMARK                            x       y       z     vdW  Elec       q    Type
REMARK                         _______ _______ _______ _____ _____    ______ ____
ROOT
ATOM      1  O   UNL     1       2.339   9.016  17.244  0.00  0.00    +0.000 OA
ATOM      2  C   UNL     1       2.106   8.551  18.355  0.00  0.00    +0.000 C 
ATOM      3  N   UNL     1       2.613   7.346  18.774  0.00  0.00    +0.000 N 
ATOM      4  H   UNL     1       2.395   7.010  19.702  0.00  0.00    +0.000 HD
ENDROOT
BRANCH   2   5
ATOM      5  C   UNL     1       1.192   9.194  19.271  0.00  0.00    +0.000 A 
ATOM      6  C   UNL     1       0.672  10.476  19.349  0.00  0.00    +0.000 A 
ATOM      7  C   UNL     1       0.056  10.623  20.625  0.00  0.00    +0.000 A 
ATOM      8  C   UNL     1      -0.513  11.709  21.318  0.00  0.00    +0.000 A 
ATOM      9  C   UNL     1      -0.887  11.523  22.649  0.00  0.00    +0.000 A 
ATOM     10  F   UNL     1      -1.376  12.564  23.339  0.00  0.00    +0.000 F 
ATOM     11  C   UNL     1      -0.743  10.298  23.288  0.00  0.00    +0.000 A 
ATOM     12  C   UNL     1      -0.246   9.191  22.596  0.00  0.00    +0.000 A 
ATOM     13  C   UNL     1       0.147   9.390  21.268  0.00  0.00    +0.000 A 
ATOM     14  N   UNL     1       0.695   8.514  20.363  0.00  0.00    +0.000 N 
ATOM     15  H   UNL     1       0.870   7.533  20.536  0.00  0.00    +0.000 HD
ENDBRANCH   2   5
BRANCH   3  16
ATOM     16  C   UNL     1       3.483   6.560  17.937  0.00  0.00    +0.000 C 
BRANCH  16  17
ATOM     17  C   UNL     1       3.129   5.089  17.943  0.00  0.00    +0.000 A 
ATOM     18  C   UNL     1       1.765   4.734  17.915  0.00  0.00    +0.000 A 
ATOM     19  C   UNL     1       1.360   3.401  17.967  0.00  0.00    +0.000 A 
ATOM     20  C   UNL     1       2.309   2.391  18.043  0.00  0.00    +0.000 A 
ATOM     21  C   UNL     1       3.663   2.715  18.075  0.00  0.00    +0.000 A 
ATOM     22  C   UNL     1       4.097   4.055  18.027  0.00  0.00    +0.000 A 
BRANCH  22  23
ATOM     23  C   UNL     1       5.587   4.316  18.091  0.00  0.00    +0.000 C 
BRANCH  23  24
ATOM     24  N   UNL     1       6.217   4.594  16.806  0.00  0.00    +0.000 N 
ATOM     25  C   UNL     1       5.995   3.871  15.662  0.00  0.00    +0.000 A 
ATOM     26  C   UNL     1       6.750   4.489  14.694  0.00  0.00    +0.000 A 
ATOM     27  N   UNL     1       7.381   5.591  15.205  0.00  0.00    +0.000 NA
ATOM     28  C   UNL     1       7.030   5.638  16.471  0.00  0.00    +0.000 A 
ENDBRANCH  23  24
ENDBRANCH  22  23
ENDBRANCH  16  17
ENDBRANCH   3  16
TORSDOF 5
ENDMDL
MODEL 2
REMARK VINA RESULT:      -8.5      0.745      1.272
REMARK  Name = 
REMARK  5 active torsions:
REMARK  status: ('A' for Active; 'I' for Inactive)
REMARK    1  A    between atoms: C_2  and  C_17
REMARK    2  A    between atoms: N_3  and  C_4
REMARK    3  A    between atoms: C_4  and  C_5
REMARK    4  A    between atoms: C_10  and  C_11
REMARK    5  A    between atoms: C_11  and  N_12
REMARK                            x       y       z     vdW  Elec       q    Type
REMARK                         _______ _______ _______ _____ _____    ______ ____
ROOT
ATOM      1  O   UNL     1       2.224   8.857  17.270  0.00  0.00    +0.000 OA
ATOM      2  C   UNL     1       2.182   8.390  18.404  0.00  0.00    +0.000 C 
ATOM      3  N   UNL     1       2.640   7.131  18.704  0.00  0.00    +0.000 N 
ATOM      4  H   UNL     1       2.588   6.796  19.655  0.00  0.00    +0.000 HD
ENDROOT
BRANCH   2   5
ATOM      5  C   UNL     1       1.548   9.097  19.493  0.00  0.00    +0.000 A 
ATOM      6  C   UNL     1       1.185   8.729  20.779  0.00  0.00    +0.000 A 
ATOM      7  C   UNL     1       0.332   9.743  21.302  0.00  0.00    +0.000 A 
ATOM      8  C   UNL     1      -0.437   9.866  22.474  0.00  0.00    +0.000 A 
ATOM      9  C   UNL     1      -1.301  10.955  22.589  0.00  0.00    +0.000 A 
ATOM     10  F   UNL     1      -2.083  11.054  23.675  0.00  0.00    +0.000 F 
ATOM     11  C   UNL     1      -1.395  11.926  21.599  0.00  0.00    +0.000 A 
ATOM     12  C   UNL     1      -0.589  11.858  20.460  0.00  0.00    +0.000 A 
ATOM     13  C   UNL     1       0.259  10.751  20.343  0.00  0.00    +0.000 A 
ATOM     14  N   UNL     1       1.127  10.401  19.338  0.00  0.00    +0.000 N 
ATOM     15  H   UNL     1       1.306  10.948  18.506  0.00  0.00    +0.000 HD
ENDBRANCH   2   5
BRANCH   3  16
ATOM     16  C   UNL     1       3.234   6.284  17.700  0.00  0.00    +0.000 C 
BRANCH  16  17
ATOM     17  C   UNL     1       3.007   4.813  17.969  0.00  0.00    +0.000 A 
ATOM     18  C   UNL     1       1.680   4.339  17.993  0.00  0.00    +0.000 A 
ATOM     19  C   UNL     1       1.390   3.006  18.281  0.00  0.00    +0.000 A 
ATOM     20  C   UNL     1       2.420   2.115  18.546  0.00  0.00    +0.000 A 
ATOM     21  C   UNL     1       3.740   2.558  18.530  0.00  0.00    +0.000 A 
ATOM     22  C   UNL     1       4.058   3.901  18.245  0.00  0.00    +0.000 A 
BRANCH  22  23
ATOM     23  C   UNL     1       5.518   4.301  18.273  0.00  0.00    +0.000 C 
BRANCH  23  24
ATOM     24  N   UNL     1       6.123   4.508  16.964  0.00  0.00    +0.000 N 
ATOM     25  C   UNL     1       5.801   3.793  15.839  0.00  0.00    +0.000 A 
ATOM     26  C   UNL     1       6.571   4.333  14.837  0.00  0.00    +0.000 A 
ATOM     27  N   UNL     1       7.309   5.385  15.308  0.00  0.00    +0.000 NA
ATOM     28  C   UNL     1       7.008   5.476  16.585  0.00  0.00    +0.000 A 
ENDBRANCH  23  24
ENDBRANCH  22  23
ENDBRANCH  16  17
ENDBRANCH   3  16
TORSDOF 5
ENDMDL
MODEL 3
REMARK VINA RESULT:      -8.4      1.240      1.605
REMARK  Name = 
REMARK  5 active torsions:
REMARK  status: ('A' for Active; 'I' for Inactive)
REMARK    1  A    between atoms: C_2  and  C_17
REMARK    2  A    between atoms: N_3  and  C_4
REMARK    3  A    between atoms: C_4  and  C_5
REMARK    4  A    between atoms: C_10  and  C_11
REMARK    5  A    between atoms: C_11  and  N_12
REMARK                            x       y       z     vdW  Elec       q    Type
REMARK                         _______ _______ _______ _____ _____    ______ ____
ROOT
ATOM      1  O   UNL     1       2.208   9.717  17.295  0.00  0.00    +0.000 OA
ATOM      2  C   UNL     1       1.948   9.094  18.319  0.00  0.00    +0.000 C 
ATOM      3  N   UNL     1       2.507   7.874  18.608  0.00  0.00    +0.000 N 
ATOM      4  H   UNL     1       2.263   7.405  19.468  0.00  0.00    +0.000 HD
ENDROOT
BRANCH   2   5
ATOM      5  C   UNL     1       0.947   9.556  19.255  0.00  0.00    +0.000 A 
ATOM      6  C   UNL     1       0.104  10.654  19.275  0.00  0.00    +0.000 A 
ATOM      7  C   UNL     1      -0.456  10.754  20.582  0.00  0.00    +0.000 A 
ATOM      8  C   UNL     1      -1.258  11.710  21.233  0.00  0.00    +0.000 A 
ATOM      9  C   UNL     1      -1.491  11.560  22.600  0.00  0.00    +0.000 A 
ATOM     10  F   UNL     1      -2.205  12.494  23.245  0.00  0.00    +0.000 F 
ATOM     11  C   UNL     1      -0.985  10.483  23.317  0.00  0.00    +0.000 A 
ATOM     12  C   UNL     1      -0.245   9.487  22.675  0.00  0.00    +0.000 A 
ATOM     13  C   UNL     1       0.002   9.657  21.308  0.00  0.00    +0.000 A 
ATOM     14  N   UNL     1       0.715   8.875  20.431  0.00  0.00    +0.000 N 
ATOM     15  H   UNL     1       1.160   7.997  20.664  0.00  0.00    +0.000 HD
ENDBRANCH   2   5
BRANCH   3  16
ATOM     16  C   UNL     1       3.470   7.258  17.729  0.00  0.00    +0.000 C 
BRANCH  16  17
ATOM     17  C   UNL     1       3.268   5.764  17.598  0.00  0.00    +0.000 A 
ATOM     18  C   UNL     1       2.079   5.206  18.109  0.00  0.00    +0.000 A 
ATOM     19  C   UNL     1       1.844   3.833  18.068  0.00  0.00    +0.000 A 
ATOM     20  C   UNL     1       2.790   2.985  17.508  0.00  0.00    +0.000 A 
ATOM     21  C   UNL     1       3.974   3.511  16.997  0.00  0.00    +0.000 A 
ATOM     22  C   UNL     1       4.235   4.895  17.031  0.00  0.00    +0.000 A 
BRANCH  22  23
ATOM     23  C   UNL     1       5.559   5.376  16.474  0.00  0.00    +0.000 C 
BRANCH  23  24
ATOM     24  N   UNL     1       6.516   5.831  17.475  0.00  0.00    +0.000 N 
ATOM     25  C   UNL     1       6.855   5.124  18.601  0.00  0.00    +0.000 A 
ATOM     26  C   UNL     1       7.802   5.892  19.236  0.00  0.00    +0.000 A 
ATOM     27  N   UNL     1       8.084   7.014  18.503  0.00  0.00    +0.000 NA
ATOM     28  C   UNL     1       7.307   6.942  17.445  0.00  0.00    +0.000 A 
ENDBRANCH  23  24
ENDBRANCH  22  23
ENDBRANCH  16  17
ENDBRANCH   3  16
TORSDOF 5
ENDMDL
MODEL 4
REMARK VINA RESULT:      -8.2      2.206      2.957
REMARK  Name = 
REMARK  5 active torsions:
REMARK  status: ('A' for Active; 'I' for Inactive)
REMARK    1  A    between atoms: C_2  and  C_17
REMARK    2  A    between atoms: N_3  and  C_4
REMARK    3  A    between atoms: C_4  and  C_5
REMARK    4  A    between atoms: C_10  and  C_11
REMARK    5  A    between atoms: C_11  and  N_12
REMARK                            x       y       z     vdW  Elec       q    Type
REMARK                         _______ _______ _______ _____ _____    ______ ____
ROOT
ATOM      1  O   UNL     1       2.783   8.633  18.058  0.00  0.00    +0.000 OA
ATOM      2  C   UNL     1       1.880   8.649  18.889  0.00  0.00    +0.000 C 
ATOM      3  N   UNL     1       1.760   7.697  19.871  0.00  0.00    +0.000 N 
ATOM      4  H   UNL     1       1.001   7.760  20.534  0.00  0.00    +0.000 HD
ENDROOT
BRANCH   2   5
ATOM      5  C   UNL     1       0.811   9.620  18.831  0.00  0.00    +0.000 A 
ATOM      6  C   UNL     1       0.313  10.537  19.741  0.00  0.00    +0.000 A 
ATOM      7  C   UNL     1      -0.932  11.020  19.242  0.00  0.00    +0.000 A 
ATOM      8  C   UNL     1      -1.943  11.846  19.768  0.00  0.00    +0.000 A 
ATOM      9  C   UNL     1      -3.130  11.982  19.047  0.00  0.00    +0.000 A 
ATOM     10  F   UNL     1      -4.124  12.719  19.563  0.00  0.00    +0.000 F 
ATOM     11  C   UNL     1      -3.321  11.355  17.822  0.00  0.00    +0.000 A 
ATOM     12  C   UNL     1      -2.302  10.587  17.251  0.00  0.00    +0.000 A 
ATOM     13  C   UNL     1      -1.124  10.439  17.990  0.00  0.00    +0.000 A 
ATOM     14  N   UNL     1       0.017   9.728  17.708  0.00  0.00    +0.000 N 
ATOM     15  H   UNL     1       0.183   9.207  16.857  0.00  0.00    +0.000 HD
ENDBRANCH   2   5
BRANCH   3  16
ATOM     16  C   UNL     1       2.716   6.627  20.006  0.00  0.00    +0.000 C 
BRANCH  16  17
ATOM     17  C   UNL     1       2.171   5.295  19.540  0.00  0.00    +0.000 A 
ATOM     18  C   UNL     1       1.262   4.618  20.378  0.00  0.00    +0.000 A 
ATOM     19  C   UNL     1       0.755   3.365  20.038  0.00  0.00    +0.000 A 
ATOM     20  C   UNL     1       1.140   2.762  18.848  0.00  0.00    +0.000 A 
ATOM     21  C   UNL     1       2.037   3.409  18.003  0.00  0.00    +0.000 A 
ATOM     22  C   UNL     1       2.566   4.674  18.327  0.00  0.00    +0.000 A 
BRANCH  22  23
ATOM     23  C   UNL     1       3.554   5.293  17.361  0.00  0.00    +0.000 C 
BRANCH  23  24
ATOM     24  N   UNL     1       4.947   5.233  17.786  0.00  0.00    +0.000 N 
ATOM     25  C   UNL     1       5.901   6.159  17.450  0.00  0.00    +0.000 A 
ATOM     26  C   UNL     1       7.047   5.741  18.083  0.00  0.00    +0.000 A 
ATOM     27  N   UNL     1       6.803   4.622  18.832  0.00  0.00    +0.000 NA
ATOM     28  C   UNL     1       5.531   4.348  18.646  0.00  0.00    +0.000 A 
ENDBRANCH  23  24
ENDBRANCH  22  23
ENDBRANCH  16  17
ENDBRANCH   3  16
TORSDOF 5
ENDMDL
MODEL 5
REMARK VINA RESULT:      -8.2      4.263      8.523
REMARK  Name = 
REMARK  5 active torsions:
REMARK  status: ('A' for Active; 'I' for Inactive)
REMARK    1  A    between atoms: C_2  and  C_17
REMARK    2  A    between atoms: N_3  and  C_4
REMARK    3  A    between atoms: C_4  and  C_5
REMARK    4  A    between atoms: C_10  and  C_11
REMARK    5  A    between atoms: C_11  and  N_12
REMARK                            x       y       z     vdW  Elec       q    Type
REMARK                         _______ _______ _______ _____ _____    ______ ____
ROOT
ATOM      1  O   UNL     1       6.093   5.401  18.542  0.00  0.00    +0.000 OA
ATOM      2  C   UNL     1       5.858   4.467  17.782  0.00  0.00    +0.000 C 
ATOM      3  N   UNL     1       5.166   3.348  18.176  0.00  0.00    +0.000 N 
ATOM      4  H   UNL     1       4.995   2.609  17.509  0.00  0.00    +0.000 HD
ENDROOT
BRANCH   2   5
ATOM      5  C   UNL     1       6.386   4.431  16.437  0.00  0.00    +0.000 A 
ATOM      6  C   UNL     1       7.231   5.268  15.728  0.00  0.00    +0.000 A 
ATOM      7  C   UNL     1       7.169   4.893  14.354  0.00  0.00    +0.000 A 
ATOM      8  C   UNL     1       7.688   5.441  13.166  0.00  0.00    +0.000 A 
ATOM      9  C   UNL     1       7.285   4.888  11.950  0.00  0.00    +0.000 A 
ATOM     10  F   UNL     1       7.725   5.436  10.808  0.00  0.00    +0.000 F 
ATOM     11  C   UNL     1       6.420   3.802  11.887  0.00  0.00    +0.000 A 
ATOM     12  C   UNL     1       5.950   3.201  13.058  0.00  0.00    +0.000 A 
ATOM     13  C   UNL     1       6.341   3.775  14.272  0.00  0.00    +0.000 A 
ATOM     14  N   UNL     1       6.017   3.431  15.562  0.00  0.00    +0.000 N 
ATOM     15  H   UNL     1       5.438   2.645  15.827  0.00  0.00    +0.000 HD
ENDBRANCH   2   5
BRANCH   3  16
ATOM     16  C   UNL     1       4.641   3.215  19.511  0.00  0.00    +0.000 C 
BRANCH  16  17
ATOM     17  C   UNL     1       3.129   3.165  19.541  0.00  0.00    +0.000 A 
ATOM     18  C   UNL     1       2.493   2.001  19.065  0.00  0.00    +0.000 A 
ATOM     19  C   UNL     1       1.104   1.901  19.017  0.00  0.00    +0.000 A 
ATOM     20  C   UNL     1       0.317   2.959  19.450  0.00  0.00    +0.000 A 
ATOM     21  C   UNL     1       0.920   4.121  19.924  0.00  0.00    +0.000 A 
ATOM     22  C   UNL     1       2.323   4.248  19.978  0.00  0.00    +0.000 A 
BRANCH  22  23
ATOM     23  C   UNL     1       2.893   5.556  20.485  0.00  0.00    +0.000 C 
BRANCH  23  24
ATOM     24  N   UNL     1       2.577   6.720  19.667  0.00  0.00    +0.000 N 
ATOM     25  C   UNL     1       2.887   6.840  18.336  0.00  0.00    +0.000 A 
ATOM     26  C   UNL     1       2.382   8.061  17.958  0.00  0.00    +0.000 A 
ATOM     27  N   UNL     1       1.732   8.659  19.004  0.00  0.00    +0.000 NA
ATOM     28  C   UNL     1       1.853   7.824  20.012  0.00  0.00    +0.000 A 
ENDBRANCH  23  24
ENDBRANCH  22  23
ENDBRANCH  16  17
ENDBRANCH   3  16
TORSDOF 5
ENDMDL
MODEL 6
REMARK VINA RESULT:      -8.1      1.881      3.299
REMARK  Name = 
REMARK  5 active torsions:
REMARK  status: ('A' for Active; 'I' for Inactive)
REMARK    1  A    between atoms: C_2  and  C_17
REMARK    2  A    between atoms: N_3  and  C_4
REMARK    3  A    between atoms: C_4  and  C_5
REMARK    4  A    between atoms: C_10  and  C_11
REMARK    5  A    between atoms: C_11  and  N_12
REMARK                            x       y       z     vdW  Elec       q    Type
REMARK                         _______ _______ _______ _____ _____    ______ ____
ROOT
ATOM      1  O   UNL     1       2.555   9.385  17.152  0.00  0.00    +0.000 OA
ATOM      2  C   UNL     1       2.258   8.662  18.097  0.00  0.00    +0.000 C 
ATOM      3  N   UNL     1       2.715   7.372  18.214  0.00  0.00    +0.000 N 
ATOM      4  H   UNL     1       2.445   6.820  19.016  0.00  0.00    +0.000 HD
ENDROOT
BRANCH   2   5
ATOM      5  C   UNL     1       1.316   9.082  19.109  0.00  0.00    +0.000 A 
ATOM      6  C   UNL     1       0.409  10.126  19.184  0.00  0.00    +0.000 A 
ATOM      7  C   UNL     1      -0.040  10.222  20.533  0.00  0.00    +0.000 A 
ATOM      8  C   UNL     1      -0.841  11.141  21.235  0.00  0.00    +0.000 A 
ATOM      9  C   UNL     1      -0.943  11.010  22.620  0.00  0.00    +0.000 A 
ATOM     10  F   UNL     1      -1.656  11.913  23.310  0.00  0.00    +0.000 F 
ATOM     11  C   UNL     1      -0.307   9.984  23.310  0.00  0.00    +0.000 A 
ATOM     12  C   UNL     1       0.435   9.021  22.622  0.00  0.00    +0.000 A 
ATOM     13  C   UNL     1       0.551   9.173  21.236  0.00  0.00    +0.000 A 
ATOM     14  N   UNL     1       1.232   8.417  20.314  0.00  0.00    +0.000 N 
ATOM     15  H   UNL     1       1.752   7.574  20.521  0.00  0.00    +0.000 HD
ENDBRANCH   2   5
BRANCH   3  16
ATOM     16  C   UNL     1       3.607   6.795  17.240  0.00  0.00    +0.000 C 
BRANCH  16  17
ATOM     17  C   UNL     1       4.976   6.494  17.809  0.00  0.00    +0.000 A 
ATOM     18  C   UNL     1       6.096   7.097  17.201  0.00  0.00    +0.000 A 
ATOM     19  C   UNL     1       7.392   6.829  17.638  0.00  0.00    +0.000 A 
ATOM     20  C   UNL     1       7.600   5.957  18.698  0.00  0.00    +0.000 A 
ATOM     21  C   UNL     1       6.511   5.347  19.315  0.00  0.00    +0.000 A 
ATOM     22  C   UNL     1       5.191   5.599  18.889  0.00  0.00    +0.000 A 
BRANCH  22  23
ATOM     23  C   UNL     1       4.070   4.873  19.601  0.00  0.00    +0.000 C 
BRANCH  23  24
ATOM     24  N   UNL     1       3.648   3.627  18.972  0.00  0.00    +0.000 N 
ATOM     25  C   UNL     1       4.091   2.383  19.342  0.00  0.00    +0.000 A 
ATOM     26  C   UNL     1       3.421   1.505  18.524  0.00  0.00    +0.000 A 
ATOM     27  N   UNL     1       2.550   2.175  17.708  0.00  0.00    +0.000 NA
ATOM     28  C   UNL     1       2.698   3.446  18.009  0.00  0.00    +0.000 A 
ENDBRANCH  23  24
ENDBRANCH  22  23
ENDBRANCH  16  17
ENDBRANCH   3  16
TORSDOF 5
ENDMDL
MODEL 7
REMARK VINA RESULT:      -8.1      1.478      1.900
REMARK  Name = 
REMARK  5 active torsions:
REMARK  status: ('A' for Active; 'I' for Inactive)
REMARK    1  A    between atoms: C_2  and  C_17
REMARK    2  A    between atoms: N_3  and  C_4
REMARK    3  A    between atoms: C_4  and  C_5
REMARK    4  A    between atoms: C_10  and  C_11
REMARK    5  A    between atoms: C_11  and  N_12
REMARK                            x       y       z     vdW  Elec       q    Type
REMARK                         _______ _______ _______ _____ _____    ______ ____
ROOT
ATOM      1  O   UNL     1       2.298   8.361  18.739  0.00  0.00    +0.000 OA
ATOM      2  C   UNL     1       1.718   8.237  19.813  0.00  0.00    +0.000 C 
ATOM      3  N   UNL     1       1.945   7.181  20.660  0.00  0.00    +0.000 N 
ATOM      4  H   UNL     1       1.444   7.129  21.535  0.00  0.00    +0.000 HD
ENDROOT
BRANCH   2   5
ATOM      5  C   UNL     1       0.670   9.146  20.219  0.00  0.00    +0.000 A 
ATOM      6  C   UNL     1      -0.003  10.168  19.570  0.00  0.00    +0.000 A 
ATOM      7  C   UNL     1      -0.723  10.912  20.550  0.00  0.00    +0.000 A 
ATOM      8  C   UNL     1      -1.465  12.107  20.521  0.00  0.00    +0.000 A 
ATOM      9  C   UNL     1      -1.909  12.642  21.731  0.00  0.00    +0.000 A 
ATOM     10  F   UNL     1      -2.567  13.810  21.724  0.00  0.00    +0.000 F 
ATOM     11  C   UNL     1      -1.666  12.011  22.945  0.00  0.00    +0.000 A 
ATOM     12  C   UNL     1      -0.992  10.788  22.988  0.00  0.00    +0.000 A 
ATOM     13  C   UNL     1      -0.532  10.270  21.772  0.00  0.00    +0.000 A 
ATOM     14  N   UNL     1       0.180   9.125  21.508  0.00  0.00    +0.000 N 
ATOM     15  H   UNL     1       0.459   8.441  22.199  0.00  0.00    +0.000 HD
ENDBRANCH   2   5
BRANCH   3  16
ATOM     16  C   UNL     1       2.912   6.158  20.350  0.00  0.00    +0.000 C 
BRANCH  16  17
ATOM     17  C   UNL     1       2.298   4.966  19.651  0.00  0.00    +0.000 A 
ATOM     18  C   UNL     1       1.411   4.150  20.383  0.00  0.00    +0.000 A 
ATOM     19  C   UNL     1       0.844   3.008  19.821  0.00  0.00    +0.000 A 
ATOM     20  C   UNL     1       1.145   2.656  18.513  0.00  0.00    +0.000 A 
ATOM     21  C   UNL     1       2.019   3.443  17.768  0.00  0.00    +0.000 A 
ATOM     22  C   UNL     1       2.608   4.601  18.315  0.00  0.00    +0.000 A 
BRANCH  22  23
ATOM     23  C   UNL     1       3.566   5.384  17.442  0.00  0.00    +0.000 C 
BRANCH  23  24
ATOM     24  N   UNL     1       4.959   4.963  17.530  0.00  0.00    +0.000 N 
ATOM     25  C   UNL     1       5.790   4.805  16.450  0.00  0.00    +0.000 A 
ATOM     26  C   UNL     1       7.004   4.439  16.981  0.00  0.00    +0.000 A 
ATOM     27  N   UNL     1       6.946   4.422  18.349  0.00  0.00    +0.000 NA
ATOM     28  C   UNL     1       5.711   4.755  18.650  0.00  0.00    +0.000 A 
ENDBRANCH  23  24
ENDBRANCH  22  23
ENDBRANCH  16  17
ENDBRANCH   3  16
TORSDOF 5
ENDMDL
MODEL 8
REMARK VINA RESULT:      -8.0      3.653      8.734
REMARK  Name = 
REMARK  5 active torsions:
REMARK  status: ('A' for Active; 'I' for Inactive)
REMARK    1  A    between atoms: C_2  and  C_17
REMARK    2  A    between atoms: N_3  and  C_4
REMARK    3  A    between atoms: C_4  and  C_5
REMARK    4  A    between atoms: C_10  and  C_11
REMARK    5  A    between atoms: C_11  and  N_12
REMARK                            x       y       z     vdW  Elec       q    Type
REMARK                         _______ _______ _______ _____ _____    ______ ____
ROOT
ATOM      1  O   UNL     1       2.531   9.378  17.336  0.00  0.00    +0.000 OA
ATOM      2  C   UNL     1       1.951   8.761  18.223  0.00  0.00    +0.000 C 
ATOM      3  N   UNL     1       0.958   9.322  18.988  0.00  0.00    +0.000 N 
ATOM      4  H   UNL     1       0.508   8.768  19.703  0.00  0.00    +0.000 HD
ENDROOT
BRANCH   2   5
ATOM      5  C   UNL     1       2.343   7.421  18.598  0.00  0.00    +0.000 A 
ATOM      6  C   UNL     1       2.772   6.321  17.874  0.00  0.00    +0.000 A 
ATOM      7  C   UNL     1       2.734   5.186  18.735  0.00  0.00    +0.000 A 
ATOM      8  C   UNL     1       2.923   3.805  18.542  0.00  0.00    +0.000 A 
ATOM      9  C   UNL     1       2.643   2.943  19.603  0.00  0.00    +0.000 A 
ATOM     10  F   UNL     1       2.763   1.620  19.416  0.00  0.00    +0.000 F 
ATOM     11  C   UNL     1       2.220   3.414  20.840  0.00  0.00    +0.000 A 
ATOM     12  C   UNL     1       2.093   4.786  21.071  0.00  0.00    +0.000 A 
ATOM     13  C   UNL     1       2.355   5.642  19.996  0.00  0.00    +0.000 A 
ATOM     14  N   UNL     1       2.282   7.011  19.913  0.00  0.00    +0.000 N 
ATOM     15  H   UNL     1       2.045   7.629  20.679  0.00  0.00    +0.000 HD
ENDBRANCH   2   5
BRANCH   3  16
ATOM     16  C   UNL     1       0.512  10.675  18.773  0.00  0.00    +0.000 C 
BRANCH  16  17
ATOM     17  C   UNL     1      -0.953  10.755  18.403  0.00  0.00    +0.000 A 
ATOM     18  C   UNL     1      -1.442   9.863  17.427  0.00  0.00    +0.000 A 
ATOM     19  C   UNL     1      -2.768   9.909  17.000  0.00  0.00    +0.000 A 
ATOM     20  C   UNL     1      -3.638  10.844  17.543  0.00  0.00    +0.000 A 
ATOM     21  C   UNL     1      -3.180  11.738  18.507  0.00  0.00    +0.000 A 
ATOM     22  C   UNL     1      -1.843  11.713  18.952  0.00  0.00    +0.000 A 
BRANCH  22  23
ATOM     23  C   UNL     1      -1.426  12.738  19.986  0.00  0.00    +0.000 C 
BRANCH  23  24
ATOM     24  N   UNL     1      -1.523  12.289  21.369  0.00  0.00    +0.000 N 
ATOM     25  C   UNL     1      -2.620  12.477  22.170  0.00  0.00    +0.000 A 
ATOM     26  C   UNL     1      -2.302  11.875  23.363  0.00  0.00    +0.000 A 
ATOM     27  N   UNL     1      -1.069  11.284  23.292  0.00  0.00    +0.000 NA
ATOM     28  C   UNL     1      -0.632  11.537  22.078  0.00  0.00    +0.000 A 
ENDBRANCH  23  24
ENDBRANCH  22  23
ENDBRANCH  16  17
ENDBRANCH   3  16
TORSDOF 5
ENDMDL
MODEL 9
REMARK VINA RESULT:      -8.0      3.523      8.778
REMARK  Name = 
REMARK  5 active torsions:
REMARK  status: ('A' for Active; 'I' for Inactive)
REMARK    1  A    between atoms: C_2  and  C_17
REMARK    2  A    between atoms: N_3  and  C_4
REMARK    3  A    between atoms: C_4  and  C_5
REMARK    4  A    between atoms: C_10  and  C_11
REMARK    5  A    between atoms: C_11  and  N_12
REMARK                            x       y       z     vdW  Elec       q    Type
REMARK                         _______ _______ _______ _____ _____    ______ ____
ROOT
ATOM      1  O   UNL     1       2.321   8.938  17.444  0.00  0.00    +0.000 OA
ATOM      2  C   UNL     1       2.109   8.288  18.463  0.00  0.00    +0.000 C 
ATOM      3  N   UNL     1       1.445   8.806  19.547  0.00  0.00    +0.000 N 
ATOM      4  H   UNL     1       1.292   8.226  20.360  0.00  0.00    +0.000 HD
ENDROOT
BRANCH   2   5
ATOM      5  C   UNL     1       2.638   6.954  18.636  0.00  0.00    +0.000 A 
ATOM      6  C   UNL     1       3.235   6.051  17.772  0.00  0.00    +0.000 A 
ATOM      7  C   UNL     1       3.286   4.786  18.425  0.00  0.00    +0.000 A 
ATOM      8  C   UNL     1       3.650   3.488  18.018  0.00  0.00    +0.000 A 
ATOM      9  C   UNL     1       3.417   2.429  18.895  0.00  0.00    +0.000 A 
ATOM     10  F   UNL     1       3.705   1.180  18.498  0.00  0.00    +0.000 F 
ATOM     11  C   UNL     1       2.872   2.627  20.158  0.00  0.00    +0.000 A 
ATOM     12  C   UNL     1       2.570   3.915  20.606  0.00  0.00    +0.000 A 
ATOM     13  C   UNL     1       2.786   4.969  19.713  0.00  0.00    +0.000 A 
ATOM     14  N   UNL     1       2.554   6.316  19.856  0.00  0.00    +0.000 N 
ATOM     15  H   UNL     1       2.203   6.760  20.694  0.00  0.00    +0.000 HD
ENDBRANCH   2   5
BRANCH   3  16
ATOM     16  C   UNL     1       0.923  10.149  19.543  0.00  0.00    +0.000 C 
BRANCH  16  17
ATOM     17  C   UNL     1       0.152  10.480  20.802  0.00  0.00    +0.000 A 
ATOM     18  C   UNL     1       0.326   9.647  21.926  0.00  0.00    +0.000 A 
ATOM     19  C   UNL     1      -0.386   9.862  23.105  0.00  0.00    +0.000 A 
ATOM     20  C   UNL     1      -1.285  10.916  23.190  0.00  0.00    +0.000 A 
ATOM     21  C   UNL     1      -1.475  11.753  22.094  0.00  0.00    +0.000 A 
ATOM     22  C   UNL     1      -0.770  11.555  20.890  0.00  0.00    +0.000 A 
BRANCH  22  23
ATOM     23  C   UNL     1      -1.059  12.497  19.741  0.00  0.00    +0.000 C 
BRANCH  23  24
ATOM     24  N   UNL     1      -2.147  12.082  18.865  0.00  0.00    +0.000 N 
ATOM     25  C   UNL     1      -1.974  11.513  17.630  0.00  0.00    +0.000 A 
ATOM     26  C   UNL     1      -3.244  11.249  17.174  0.00  0.00    +0.000 A 
ATOM     27  N   UNL     1      -4.175  11.593  18.116  0.00  0.00    +0.000 NA
ATOM     28  C   UNL     1      -3.487  12.077  19.126  0.00  0.00    +0.000 A 
ENDBRANCH  23  24
ENDBRANCH  22  23
ENDBRANCH  16  17
ENDBRANCH   3  16
TORSDOF 5
ENDMDL
