MODEL 1
REMARK VINA RESULT:     -10.3      0.000      0.000
REMARK  Name = 
REMARK  3 active torsions:
REMARK  status: ('A' for Active; 'I' for Inactive)
REMARK    1  A    between atoms: N_6  and  C_7
REMARK    2  A    between atoms: C_11  and  C_12
REMARK    3  A    between atoms: C_19  and  C_20
REMARK                            x       y       z     vdW  Elec       q    Type
REMARK                         _______ _______ _______ _____ _____    ______ ____
ROOT
ATOM      1  C   UNL     1       4.896   3.645  19.240  0.00  0.00    +0.000 C 
ATOM      2  O   UNL     1       5.463   2.747  19.864  0.00  0.00    +0.000 OA
ATOM      3  N   UNL     1       3.523   3.925  19.394  0.00  0.00    +0.000 N 
ATOM      4  C   UNL     1       2.818   3.334  20.537  0.00  0.00    +0.000 C 
ATOM      5  C   UNL     1       1.539   2.606  20.126  0.00  0.00    +0.000 C 
ATOM      6  C   UNL     1       0.638   3.487  19.268  0.00  0.00    +0.000 C 
ATOM      7  C   UNL     1       1.412   3.996  18.059  0.00  0.00    +0.000 C 
ATOM      8  C   UNL     1       2.694   4.735  18.464  0.00  0.00    +0.000 C 
ENDROOT
BRANCH   8   9
ATOM      9  C   UNL     1       2.348   6.102  19.012  0.00  0.00    +0.000 A 
ATOM     10  N   UNL     1       1.995   6.481  20.229  0.00  0.00    +0.000 NA
ATOM     11  C   UNL     1       1.671   7.811  20.081  0.00  0.00    +0.000 A 
ATOM     12  C   UNL     1       1.169   8.754  20.990  0.00  0.00    +0.000 A 
ATOM     13  C   UNL     1       0.866  10.040  20.513  0.00  0.00    +0.000 A 
ATOM     14  C   UNL     1       1.089  10.389  19.175  0.00  0.00    +0.000 A 
ATOM     15  C   UNL     1       1.624   9.469  18.264  0.00  0.00    +0.000 A 
ATOM     16  C   UNL     1       1.877   8.199  18.768  0.00  0.00    +0.000 A 
ATOM     17  O   UNL     1       2.330   7.114  18.079  0.00  0.00    +0.000 OA
ENDBRANCH   8   9
BRANCH   1  22
ATOM     18  C   UNL     1       6.404   4.942  15.976  0.00  0.00    +0.000 A 
ATOM     19  C   UNL     1       7.102   6.048  16.482  0.00  0.00    +0.000 A 
ATOM     20  C   UNL     1       7.218   6.270  17.848  0.00  0.00    +0.000 A 
ATOM     21  C   UNL     1       6.604   5.401  18.734  0.00  0.00    +0.000 A 
ATOM     22  C   UNL     1       5.731   4.424  18.273  0.00  0.00    +0.000 A 
ATOM     23  C   UNL     1       5.681   4.149  16.892  0.00  0.00    +0.000 A 
BRANCH  18  29
ATOM     24  O   UNL     1       8.445   5.713  13.865  0.00  0.00    +0.000 OA
ATOM     25  C   UNL     1       7.448   5.030  13.682  0.00  0.00    +0.000 C 
ATOM     26  C   UNL     1       7.079   4.504  12.319  0.00  0.00    +0.000 C 
ATOM     27  C   UNL     1       6.094   3.397  12.628  0.00  0.00    +0.000 C 
ATOM     28  C   UNL     1       5.439   3.843  13.923  0.00  0.00    +0.000 C 
ATOM     29  N   UNL     1       6.450   4.631  14.587  0.00  0.00    +0.000 N 
ENDBRANCH  18  29
ENDBRANCH   1  22
TORSDOF 3
ENDMDL
MODEL 2
REMARK VINA RESULT:      -9.2      0.698      1.138
REMARK  Name = 
REMARK  3 active torsions:
REMARK  status: ('A' for Active; 'I' for Inactive)
REMARK    1  A    between atoms: N_6  and  C_7
REMARK    2  A    between atoms: C_11  and  C_12
REMARK    3  A    between atoms: C_19  and  C_20
REMARK                            x       y       z     vdW  Elec       q    Type
REMARK                         _______ _______ _______ _____ _____    ______ ____
ROOT
ATOM      1  C   UNL     1       4.972   3.950  19.119  0.00  0.00    +0.000 C 
ATOM      2  O   UNL     1       5.576   3.160  19.844  0.00  0.00    +0.000 OA
ATOM      3  N   UNL     1       3.574   4.124  19.186  0.00  0.00    +0.000 N 
ATOM      4  C   UNL     1       2.861   3.572  20.343  0.00  0.00    +0.000 C 
ATOM      5  C   UNL     1       1.668   2.706  19.939  0.00  0.00    +0.000 C 
ATOM      6  C   UNL     1       0.745   3.432  18.968  0.00  0.00    +0.000 C 
ATOM      7  C   UNL     1       1.537   3.903  17.755  0.00  0.00    +0.000 C 
ATOM      8  C   UNL     1       2.733   4.780  18.151  0.00  0.00    +0.000 C 
ENDROOT
BRANCH   8   9
ATOM      9  C   UNL     1       2.248   6.154  18.562  0.00  0.00    +0.000 A 
ATOM     10  N   UNL     1       2.138   7.274  17.868  0.00  0.00    +0.000 NA
ATOM     11  C   UNL     1       1.780   8.213  18.809  0.00  0.00    +0.000 A 
ATOM     12  C   UNL     1       1.573   9.596  18.712  0.00  0.00    +0.000 A 
ATOM     13  C   UNL     1       1.278  10.307  19.887  0.00  0.00    +0.000 A 
ATOM     14  C   UNL     1       1.158   9.654  21.120  0.00  0.00    +0.000 A 
ATOM     15  C   UNL     1       1.326   8.267  21.227  0.00  0.00    +0.000 A 
ATOM     16  C   UNL     1       1.651   7.607  20.047  0.00  0.00    +0.000 A 
ATOM     17  O   UNL     1       1.930   6.282  19.895  0.00  0.00    +0.000 OA
ENDBRANCH   8   9
BRANCH   1  22
ATOM     18  C   UNL     1       6.479   5.147  15.816  0.00  0.00    +0.000 A 
ATOM     19  C   UNL     1       7.124   6.304  16.277  0.00  0.00    +0.000 A 
ATOM     20  C   UNL     1       7.209   6.597  17.632  0.00  0.00    +0.000 A 
ATOM     21  C   UNL     1       6.615   5.748  18.551  0.00  0.00    +0.000 A 
ATOM     22  C   UNL     1       5.790   4.714  18.127  0.00  0.00    +0.000 A 
ATOM     23  C   UNL     1       5.773   4.370  16.760  0.00  0.00    +0.000 A 
BRANCH  18  29
ATOM     24  O   UNL     1       8.565   5.830  13.720  0.00  0.00    +0.000 OA
ATOM     25  C   UNL     1       7.577   5.132  13.546  0.00  0.00    +0.000 C 
ATOM     26  C   UNL     1       7.244   4.539  12.201  0.00  0.00    +0.000 C 
ATOM     27  C   UNL     1       6.257   3.441  12.539  0.00  0.00    +0.000 C 
ATOM     28  C   UNL     1       5.570   3.944  13.796  0.00  0.00    +0.000 C 
ATOM     29  N   UNL     1       6.560   4.770  14.446  0.00  0.00    +0.000 N 
ENDBRANCH  18  29
ENDBRANCH   1  22
TORSDOF 3
ENDMDL
MODEL 3
REMARK VINA RESULT:      -9.1      0.839      1.113
REMARK  Name = 
REMARK  3 active torsions:
REMARK  status: ('A' for Active; 'I' for Inactive)
REMARK    1  A    between atoms: N_6  and  C_7
REMARK    2  A    between atoms: C_11  and  C_12
REMARK    3  A    between atoms: C_19  and  C_20
REMARK                            x       y       z     vdW  Elec       q    Type
REMARK                         _______ _______ _______ _____ _____    ______ ____
ROOT
ATOM      1  C   UNL     1       4.902   3.667  19.215  0.00  0.00    +0.000 C 
ATOM      2  O   UNL     1       5.422   2.729  19.818  0.00  0.00    +0.000 OA
ATOM      3  N   UNL     1       3.523   3.951  19.299  0.00  0.00    +0.000 N 
ATOM      4  C   UNL     1       2.743   3.298  20.357  0.00  0.00    +0.000 C 
ATOM      5  C   UNL     1       1.489   2.607  19.822  0.00  0.00    +0.000 C 
ATOM      6  C   UNL     1       0.649   3.547  18.963  0.00  0.00    +0.000 C 
ATOM      7  C   UNL     1       1.501   4.121  17.839  0.00  0.00    +0.000 C 
ATOM      8  C   UNL     1       2.760   4.823  18.368  0.00  0.00    +0.000 C 
ENDROOT
BRANCH   8   9
ATOM      9  C   UNL     1       2.386   6.157  18.976  0.00  0.00    +0.000 A 
ATOM     10  N   UNL     1       2.070   6.484  20.218  0.00  0.00    +0.000 NA
ATOM     11  C   UNL     1       1.692   7.804  20.128  0.00  0.00    +0.000 A 
ATOM     12  C   UNL     1       1.194   8.697  21.087  0.00  0.00    +0.000 A 
ATOM     13  C   UNL     1       0.824   9.985  20.666  0.00  0.00    +0.000 A 
ATOM     14  C   UNL     1       0.980  10.386  19.333  0.00  0.00    +0.000 A 
ATOM     15  C   UNL     1       1.510   9.517  18.371  0.00  0.00    +0.000 A 
ATOM     16  C   UNL     1       1.829   8.242  18.821  0.00  0.00    +0.000 A 
ATOM     17  O   UNL     1       2.293   7.197  18.079  0.00  0.00    +0.000 OA
ENDBRANCH   8   9
BRANCH   1  22
ATOM     18  C   UNL     1       6.682   5.086  16.145  0.00  0.00    +0.000 A 
ATOM     19  C   UNL     1       7.285   6.204  16.739  0.00  0.00    +0.000 A 
ATOM     20  C   UNL     1       7.254   6.401  18.114  0.00  0.00    +0.000 A 
ATOM     21  C   UNL     1       6.586   5.492  18.917  0.00  0.00    +0.000 A 
ATOM     22  C   UNL     1       5.800   4.495  18.352  0.00  0.00    +0.000 A 
ATOM     23  C   UNL     1       5.900   4.249  16.968  0.00  0.00    +0.000 A 
BRANCH  18  29
ATOM     24  O   UNL     1       4.883   3.657  14.161  0.00  0.00    +0.000 OA
ATOM     25  C   UNL     1       5.979   4.141  13.915  0.00  0.00    +0.000 C 
ATOM     26  C   UNL     1       6.609   4.041  12.550  0.00  0.00    +0.000 C 
ATOM     27  C   UNL     1       7.679   5.112  12.581  0.00  0.00    +0.000 C 
ATOM     28  C   UNL     1       8.073   5.190  14.045  0.00  0.00    +0.000 C 
ATOM     29  N   UNL     1       6.880   4.807  14.763  0.00  0.00    +0.000 N 
ENDBRANCH  18  29
ENDBRANCH   1  22
TORSDOF 3
ENDMDL
MODEL 4
REMARK VINA RESULT:      -8.2      1.278      1.499
REMARK  Name = 
REMARK  3 active torsions:
REMARK  status: ('A' for Active; 'I' for Inactive)
REMARK    1  A    between atoms: N_6  and  C_7
REMARK    2  A    between atoms: C_11  and  C_12
REMARK    3  A    between atoms: C_19  and  C_20
REMARK                            x       y       z     vdW  Elec       q    Type
REMARK                         _______ _______ _______ _____ _____    ______ ____
ROOT
ATOM      1  C   UNL     1       4.783   4.002  18.741  0.00  0.00    +0.000 C 
ATOM      2  O   UNL     1       5.632   3.186  19.097  0.00  0.00    +0.000 OA
ATOM      3  N   UNL     1       3.524   4.109  19.367  0.00  0.00    +0.000 N 
ATOM      4  C   UNL     1       3.332   3.439  20.658  0.00  0.00    +0.000 C 
ATOM      5  C   UNL     1       2.086   2.554  20.681  0.00  0.00    +0.000 C 
ATOM      6  C   UNL     1       0.846   3.311  20.219  0.00  0.00    +0.000 C 
ATOM      7  C   UNL     1       1.089   3.908  18.839  0.00  0.00    +0.000 C 
ATOM      8  C   UNL     1       2.335   4.804  18.808  0.00  0.00    +0.000 C 
ENDROOT
BRANCH   8   9
ATOM      9  C   UNL     1       2.039   6.119  19.495  0.00  0.00    +0.000 A 
ATOM     10  N   UNL     1       1.744   6.389  20.756  0.00  0.00    +0.000 NA
ATOM     11  C   UNL     1       1.440   7.731  20.746  0.00  0.00    +0.000 A 
ATOM     12  C   UNL     1       0.995   8.593  21.758  0.00  0.00    +0.000 A 
ATOM     13  C   UNL     1       0.697   9.922  21.416  0.00  0.00    +0.000 A 
ATOM     14  C   UNL     1       0.871  10.391  20.108  0.00  0.00    +0.000 A 
ATOM     15  C   UNL     1       1.349   9.552  19.093  0.00  0.00    +0.000 A 
ATOM     16  C   UNL     1       1.599   8.237  19.467  0.00  0.00    +0.000 A 
ATOM     17  O   UNL     1       2.001   7.214  18.661  0.00  0.00    +0.000 OA
ENDBRANCH   8   9
BRANCH   1  22
ATOM     18  C   UNL     1       5.783   5.137  15.231  0.00  0.00    +0.000 A 
ATOM     19  C   UNL     1       5.540   6.512  15.368  0.00  0.00    +0.000 A 
ATOM     20  C   UNL     1       5.223   7.074  16.598  0.00  0.00    +0.000 A 
ATOM     21  C   UNL     1       5.111   6.258  17.711  0.00  0.00    +0.000 A 
ATOM     22  C   UNL     1       5.134   4.875  17.578  0.00  0.00    +0.000 A 
ATOM     23  C   UNL     1       5.536   4.313  16.349  0.00  0.00    +0.000 A 
BRANCH  18  29
ATOM     24  O   UNL     1       4.472   3.277  13.222  0.00  0.00    +0.000 OA
ATOM     25  C   UNL     1       5.594   3.755  13.130  0.00  0.00    +0.000 C 
ATOM     26  C   UNL     1       6.511   3.426  11.981  0.00  0.00    +0.000 C 
ATOM     27  C   UNL     1       7.545   4.530  12.034  0.00  0.00    +0.000 C 
ATOM     28  C   UNL     1       7.605   4.903  13.504  0.00  0.00    +0.000 C 
ATOM     29  N   UNL     1       6.283   4.610  14.006  0.00  0.00    +0.000 N 
ENDBRANCH  18  29
ENDBRANCH   1  22
TORSDOF 3
ENDMDL
MODEL 5
REMARK VINA RESULT:      -8.2      6.742     11.586
REMARK  Name = 
REMARK  3 active torsions:
REMARK  status: ('A' for Active; 'I' for Inactive)
REMARK    1  A    between atoms: N_6  and  C_7
REMARK    2  A    between atoms: C_11  and  C_12
REMARK    3  A    between atoms: C_19  and  C_20
REMARK                            x       y       z     vdW  Elec       q    Type
REMARK                         _______ _______ _______ _____ _____    ______ ____
ROOT
ATOM      1  C   UNL     1      -0.704  10.644  22.599  0.00  0.00    +0.000 C 
ATOM      2  O   UNL     1      -0.601   9.983  23.633  0.00  0.00    +0.000 OA
ATOM      3  N   UNL     1      -0.276  10.162  21.345  0.00  0.00    +0.000 N 
ATOM      4  C   UNL     1       0.026   8.732  21.218  0.00  0.00    +0.000 C 
ATOM      5  C   UNL     1       1.399   8.474  20.598  0.00  0.00    +0.000 C 
ATOM      6  C   UNL     1       1.581   9.235  19.290  0.00  0.00    +0.000 C 
ATOM      7  C   UNL     1       1.334  10.721  19.517  0.00  0.00    +0.000 C 
ATOM      8  C   UNL     1      -0.046  10.989  20.132  0.00  0.00    +0.000 C 
ENDROOT
BRANCH   8   9
ATOM      9  C   UNL     1      -1.120  10.813  19.080  0.00  0.00    +0.000 A 
ATOM     10  N   UNL     1      -1.094  10.189  17.915  0.00  0.00    +0.000 NA
ATOM     11  C   UNL     1      -2.312  10.492  17.349  0.00  0.00    +0.000 A 
ATOM     12  C   UNL     1      -2.861  10.180  16.097  0.00  0.00    +0.000 A 
ATOM     13  C   UNL     1      -4.125  10.703  15.777  0.00  0.00    +0.000 A 
ATOM     14  C   UNL     1      -4.838  11.487  16.691  0.00  0.00    +0.000 A 
ATOM     15  C   UNL     1      -4.319  11.778  17.959  0.00  0.00    +0.000 A 
ATOM     16  C   UNL     1      -3.052  11.271  18.223  0.00  0.00    +0.000 A 
ATOM     17  O   UNL     1      -2.303  11.466  19.345  0.00  0.00    +0.000 OA
ENDBRANCH   8   9
BRANCH   1  22
ATOM     18  C   UNL     1      -3.204  13.484  23.147  0.00  0.00    +0.000 A 
ATOM     19  C   UNL     1      -2.302  14.557  23.222  0.00  0.00    +0.000 A 
ATOM     20  C   UNL     1      -0.953  14.392  22.940  0.00  0.00    +0.000 A 
ATOM     21  C   UNL     1      -0.474  13.135  22.609  0.00  0.00    +0.000 A 
ATOM     22  C   UNL     1      -1.287  12.015  22.732  0.00  0.00    +0.000 A 
ATOM     23  C   UNL     1      -2.670  12.194  22.937  0.00  0.00    +0.000 A 
BRANCH  18  29
ATOM     24  O   UNL     1      -5.295  12.005  24.776  0.00  0.00    +0.000 OA
ATOM     25  C   UNL     1      -5.500  12.969  24.053  0.00  0.00    +0.000 C 
ATOM     26  C   UNL     1      -6.882  13.532  23.844  0.00  0.00    +0.000 C 
ATOM     27  C   UNL     1      -6.615  14.912  23.281  0.00  0.00    +0.000 C 
ATOM     28  C   UNL     1      -5.295  14.756  22.547  0.00  0.00    +0.000 C 
ATOM     29  N   UNL     1      -4.605  13.707  23.260  0.00  0.00    +0.000 N 
ENDBRANCH  18  29
ENDBRANCH   1  22
TORSDOF 3
ENDMDL
MODEL 6
REMARK VINA RESULT:      -8.1      1.079      1.587
REMARK  Name = 
REMARK  3 active torsions:
REMARK  status: ('A' for Active; 'I' for Inactive)
REMARK    1  A    between atoms: N_6  and  C_7
REMARK    2  A    between atoms: C_11  and  C_12
REMARK    3  A    between atoms: C_19  and  C_20
REMARK                            x       y       z     vdW  Elec       q    Type
REMARK                         _______ _______ _______ _____ _____    ______ ____
ROOT
ATOM      1  C   UNL     1       4.914   3.810  19.282  0.00  0.00    +0.000 C 
ATOM      2  O   UNL     1       5.445   2.978  20.018  0.00  0.00    +0.000 OA
ATOM      3  N   UNL     1       3.517   3.999  19.238  0.00  0.00    +0.000 N 
ATOM      4  C   UNL     1       2.701   3.403  20.302  0.00  0.00    +0.000 C 
ATOM      5  C   UNL     1       1.540   2.573  19.757  0.00  0.00    +0.000 C 
ATOM      6  C   UNL     1       0.710   3.356  18.746  0.00  0.00    +0.000 C 
ATOM      7  C   UNL     1       1.609   3.872  17.629  0.00  0.00    +0.000 C 
ATOM      8  C   UNL     1       2.774   4.714  18.168  0.00  0.00    +0.000 C 
ENDROOT
BRANCH   8   9
ATOM      9  C   UNL     1       2.268   6.073  18.600  0.00  0.00    +0.000 A 
ATOM     10  N   UNL     1       2.113   7.195  17.917  0.00  0.00    +0.000 NA
ATOM     11  C   UNL     1       1.759   8.119  18.874  0.00  0.00    +0.000 A 
ATOM     12  C   UNL     1       1.516   9.498  18.792  0.00  0.00    +0.000 A 
ATOM     13  C   UNL     1       1.238  10.195  19.980  0.00  0.00    +0.000 A 
ATOM     14  C   UNL     1       1.168   9.532  21.211  0.00  0.00    +0.000 A 
ATOM     15  C   UNL     1       1.372   8.149  21.304  0.00  0.00    +0.000 A 
ATOM     16  C   UNL     1       1.679   7.504  20.112  0.00  0.00    +0.000 A 
ATOM     17  O   UNL     1       1.985   6.186  19.943  0.00  0.00    +0.000 OA
ENDBRANCH   8   9
BRANCH   1  22
ATOM     18  C   UNL     1       6.703   5.147  16.180  0.00  0.00    +0.000 A 
ATOM     19  C   UNL     1       7.325   6.266  16.753  0.00  0.00    +0.000 A 
ATOM     20  C   UNL     1       7.303   6.487  18.124  0.00  0.00    +0.000 A 
ATOM     21  C   UNL     1       6.624   5.603  18.945  0.00  0.00    +0.000 A 
ATOM     22  C   UNL     1       5.821   4.608  18.402  0.00  0.00    +0.000 A 
ATOM     23  C   UNL     1       5.911   4.336  17.022  0.00  0.00    +0.000 A 
BRANCH  18  29
ATOM     24  O   UNL     1       4.927   3.607  14.260  0.00  0.00    +0.000 OA
ATOM     25  C   UNL     1       6.001   4.122  13.986  0.00  0.00    +0.000 C 
ATOM     26  C   UNL     1       6.614   4.010  12.614  0.00  0.00    +0.000 C 
ATOM     27  C   UNL     1       7.646   5.118  12.602  0.00  0.00    +0.000 C 
ATOM     28  C   UNL     1       8.058   5.247  14.058  0.00  0.00    +0.000 C 
ATOM     29  N   UNL     1       6.890   4.840  14.803  0.00  0.00    +0.000 N 
ENDBRANCH  18  29
ENDBRANCH   1  22
TORSDOF 3
ENDMDL
MODEL 7
REMARK VINA RESULT:      -8.0      7.206     12.057
REMARK  Name = 
REMARK  3 active torsions:
REMARK  status: ('A' for Active; 'I' for Inactive)
REMARK    1  A    between atoms: N_6  and  C_7
REMARK    2  A    between atoms: C_11  and  C_12
REMARK    3  A    between atoms: C_19  and  C_20
REMARK                            x       y       z     vdW  Elec       q    Type
REMARK                         _______ _______ _______ _____ _____    ______ ____
ROOT
ATOM      1  C   UNL     1      -0.972  11.055  22.682  0.00  0.00    +0.000 C 
ATOM      2  O   UNL     1      -0.790  10.241  23.588  0.00  0.00    +0.000 OA
ATOM      3  N   UNL     1      -0.577  10.808  21.352  0.00  0.00    +0.000 N 
ATOM      4  C   UNL     1      -0.212   9.437  20.979  0.00  0.00    +0.000 C 
ATOM      5  C   UNL     1       1.144   9.360  20.277  0.00  0.00    +0.000 C 
ATOM      6  C   UNL     1       1.230  10.333  19.106  0.00  0.00    +0.000 C 
ATOM      7  C   UNL     1       0.921  11.746  19.584  0.00  0.00    +0.000 C 
ATOM      8  C   UNL     1      -0.443  11.833  20.284  0.00  0.00    +0.000 C 
ENDROOT
BRANCH   8   9
ATOM      9  C   UNL     1      -1.552  11.771  19.257  0.00  0.00    +0.000 A 
ATOM     10  N   UNL     1      -2.844  12.033  19.364  0.00  0.00    +0.000 NA
ATOM     11  C   UNL     1      -3.360  11.661  18.143  0.00  0.00    +0.000 A 
ATOM     12  C   UNL     1      -4.674  11.638  17.655  0.00  0.00    +0.000 A 
ATOM     13  C   UNL     1      -4.895  11.129  16.365  0.00  0.00    +0.000 A 
ATOM     14  C   UNL     1      -3.832  10.686  15.567  0.00  0.00    +0.000 A 
ATOM     15  C   UNL     1      -2.510  10.736  16.027  0.00  0.00    +0.000 A 
ATOM     16  C   UNL     1      -2.339  11.214  17.321  0.00  0.00    +0.000 A 
ATOM     17  O   UNL     1      -1.173  11.300  18.021  0.00  0.00    +0.000 OA
ENDBRANCH   8   9
BRANCH   1  22
ATOM     18  C   UNL     1      -3.614  13.658  23.609  0.00  0.00    +0.000 A 
ATOM     19  C   UNL     1      -2.763  14.701  24.003  0.00  0.00    +0.000 A 
ATOM     20  C   UNL     1      -1.389  14.626  23.820  0.00  0.00    +0.000 A 
ATOM     21  C   UNL     1      -0.837  13.484  23.266  0.00  0.00    +0.000 A 
ATOM     22  C   UNL     1      -1.615  12.351  23.060  0.00  0.00    +0.000 A 
ATOM     23  C   UNL     1      -3.017  12.457  23.169  0.00  0.00    +0.000 A 
BRANCH  18  29
ATOM     24  O   UNL     1      -5.785  11.806  24.643  0.00  0.00    +0.000 OA
ATOM     25  C   UNL     1      -5.961  12.909  24.147  0.00  0.00    +0.000 C 
ATOM     26  C   UNL     1      -7.339  13.484  23.944  0.00  0.00    +0.000 C 
ATOM     27  C   UNL     1      -7.074  14.962  23.744  0.00  0.00    +0.000 C 
ATOM     28  C   UNL     1      -5.689  15.003  23.123  0.00  0.00    +0.000 C 
ATOM     29  N   UNL     1      -5.027  13.826  23.636  0.00  0.00    +0.000 N 
ENDBRANCH  18  29
ENDBRANCH   1  22
TORSDOF 3
ENDMDL
MODEL 8
REMARK VINA RESULT:      -7.9      4.777      9.133
REMARK  Name = 
REMARK  3 active torsions:
REMARK  status: ('A' for Active; 'I' for Inactive)
REMARK    1  A    between atoms: N_6  and  C_7
REMARK    2  A    between atoms: C_11  and  C_12
REMARK    3  A    between atoms: C_19  and  C_20
REMARK                            x       y       z     vdW  Elec       q    Type
REMARK                         _______ _______ _______ _____ _____    ______ ____
ROOT
ATOM      1  C   UNL     1      -0.180  12.865  21.436  0.00  0.00    +0.000 C 
ATOM      2  O   UNL     1       0.749  13.611  21.745  0.00  0.00    +0.000 OA
ATOM      3  N   UNL     1      -1.401  13.348  20.921  0.00  0.00    +0.000 N 
ATOM      4  C   UNL     1      -1.459  14.741  20.464  0.00  0.00    +0.000 C 
ATOM      5  C   UNL     1      -2.631  15.510  21.073  0.00  0.00    +0.000 C 
ATOM      6  C   UNL     1      -3.951  14.771  20.884  0.00  0.00    +0.000 C 
ATOM      7  C   UNL     1      -3.842  13.363  21.455  0.00  0.00    +0.000 C 
ATOM      8  C   UNL     1      -2.671  12.581  20.844  0.00  0.00    +0.000 C 
ENDROOT
BRANCH   8   9
ATOM      9  C   UNL     1      -3.021  12.150  19.436  0.00  0.00    +0.000 A 
ATOM     10  N   UNL     1      -4.159  12.226  18.766  0.00  0.00    +0.000 NA
ATOM     11  C   UNL     1      -3.901  11.548  17.596  0.00  0.00    +0.000 A 
ATOM     12  C   UNL     1      -4.721  11.228  16.505  0.00  0.00    +0.000 A 
ATOM     13  C   UNL     1      -4.177  10.450  15.471  0.00  0.00    +0.000 A 
ATOM     14  C   UNL     1      -2.842  10.029  15.504  0.00  0.00    +0.000 A 
ATOM     15  C   UNL     1      -1.999  10.371  16.570  0.00  0.00    +0.000 A 
ATOM     16  C   UNL     1      -2.587  11.112  17.589  0.00  0.00    +0.000 A 
ATOM     17  O   UNL     1      -2.008  11.511  18.757  0.00  0.00    +0.000 OA
ENDBRANCH   8   9
BRANCH   1  22
ATOM     18  C   UNL     1       0.978   9.254  20.956  0.00  0.00    +0.000 A 
ATOM     19  C   UNL     1       0.620   8.741  22.211  0.00  0.00    +0.000 A 
ATOM     20  C   UNL     1      -0.118   9.491  23.118  0.00  0.00    +0.000 A 
ATOM     21  C   UNL     1      -0.483  10.786  22.794  0.00  0.00    +0.000 A 
ATOM     22  C   UNL     1       0.030  11.401  21.658  0.00  0.00    +0.000 A 
ATOM     23  C   UNL     1       0.707  10.616  20.703  0.00  0.00    +0.000 A 
BRANCH  18  29
ATOM     24  O   UNL     1       1.687   9.826  18.060  0.00  0.00    +0.000 OA
ATOM     25  C   UNL     1       1.874   8.771  18.649  0.00  0.00    +0.000 C 
ATOM     26  C   UNL     1       2.464   7.566  17.962  0.00  0.00    +0.000 C 
ATOM     27  C   UNL     1       2.915   6.694  19.115  0.00  0.00    +0.000 C 
ATOM     28  C   UNL     1       1.951   7.044  20.235  0.00  0.00    +0.000 C 
ATOM     29  N   UNL     1       1.573   8.413  19.974  0.00  0.00    +0.000 N 
ENDBRANCH  18  29
ENDBRANCH   1  22
TORSDOF 3
ENDMDL
MODEL 9
REMARK VINA RESULT:      -7.8      7.578      9.937
REMARK  Name = 
REMARK  3 active torsions:
REMARK  status: ('A' for Active; 'I' for Inactive)
REMARK    1  A    between atoms: N_6  and  C_7
REMARK    2  A    between atoms: C_11  and  C_12
REMARK    3  A    between atoms: C_19  and  C_20
REMARK                            x       y       z     vdW  Elec       q    Type
REMARK                         _______ _______ _______ _____ _____    ______ ____
ROOT
ATOM      1  C   UNL     1      -0.010  13.231  21.749  0.00  0.00    +0.000 C 
ATOM      2  O   UNL     1      -0.191  13.672  22.884  0.00  0.00    +0.000 OA
ATOM      3  N   UNL     1      -0.207  11.873  21.423  0.00  0.00    +0.000 N 
ATOM      4  C   UNL     1      -0.926  11.027  22.382  0.00  0.00    +0.000 C 
ATOM      5  C   UNL     1      -0.169   9.741  22.714  0.00  0.00    +0.000 C 
ATOM      6  C   UNL     1       0.244   8.987  21.454  0.00  0.00    +0.000 C 
ATOM      7  C   UNL     1       1.057   9.903  20.547  0.00  0.00    +0.000 C 
ATOM      8  C   UNL     1       0.300  11.193  20.203  0.00  0.00    +0.000 C 
ENDROOT
BRANCH   8   9
ATOM      9  C   UNL     1      -0.786  10.898  19.192  0.00  0.00    +0.000 A 
ATOM     10  N   UNL     1      -0.762  10.178  18.083  0.00  0.00    +0.000 NA
ATOM     11  C   UNL     1      -1.999  10.398  17.518  0.00  0.00    +0.000 A 
ATOM     12  C   UNL     1      -2.560   9.964  16.309  0.00  0.00    +0.000 A 
ATOM     13  C   UNL     1      -3.845  10.422  15.972  0.00  0.00    +0.000 A 
ATOM     14  C   UNL     1      -4.565  11.260  16.831  0.00  0.00    +0.000 A 
ATOM     15  C   UNL     1      -4.033  11.672  18.059  0.00  0.00    +0.000 A 
ATOM     16  C   UNL     1      -2.746  11.226  18.338  0.00  0.00    +0.000 A 
ATOM     17  O   UNL     1      -1.984  11.536  19.424  0.00  0.00    +0.000 OA
ENDBRANCH   8   9
BRANCH   1  22
ATOM     18  C   UNL     1       2.280  15.347  19.537  0.00  0.00    +0.000 A 
ATOM     19  C   UNL     1       1.325  15.824  18.627  0.00  0.00    +0.000 A 
ATOM     20  C   UNL     1      -0.033  15.604  18.818  0.00  0.00    +0.000 A 
ATOM     21  C   UNL     1      -0.457  14.870  19.913  0.00  0.00    +0.000 A 
ATOM     22  C   UNL     1       0.461  14.204  20.715  0.00  0.00    +0.000 A 
ATOM     23  C   UNL     1       1.832  14.495  20.570  0.00  0.00    +0.000 A 
BRANCH  18  29
ATOM     24  O   UNL     1       3.624  17.988  20.197  0.00  0.00    +0.000 OA
ATOM     25  C   UNL     1       4.180  16.989  19.764  0.00  0.00    +0.000 C 
ATOM     26  C   UNL     1       5.655  16.967  19.453  0.00  0.00    +0.000 C 
ATOM     27  C   UNL     1       5.974  15.488  19.389  0.00  0.00    +0.000 C 
ATOM     28  C   UNL     1       4.674  14.854  18.926  0.00  0.00    +0.000 C 
ATOM     29  N   UNL     1       3.644  15.735  19.424  0.00  0.00    +0.000 N 
ENDBRANCH  18  29
ENDBRANCH   1  22
TORSDOF 3
ENDMDL
