MODEL 1
REMARK VINA RESULT:      -9.2      0.000      0.000
REMARK  Name = 
REMARK  8 active torsions:
REMARK  status: ('A' for Active; 'I' for Inactive)
REMARK    1  A    between atoms: C_1  and  C_2
REMARK    2  A    between atoms: C_2  and  N_3
REMARK    3  A    between atoms: C_2  and  C_21
REMARK    4  A    between atoms: C_4  and  C_6
REMARK    5  A    between atoms: C_6  and  C_7
REMARK    6  A    between atoms: C_6  and  C_14
REMARK    7  A    between atoms: C_7  and  C_8
REMARK    8  A    between atoms: C_14  and  C_15
REMARK                            x       y       z     vdW  Elec       q    Type
REMARK                         _______ _______ _______ _____ _____    ______ ____
ROOT
ATOM      1  N   UNL     1       1.374   8.889  19.367  0.00  0.00    +0.000 N 
ATOM      2  C   UNL     1       2.227   8.830  18.280  0.00  0.00    +0.000 C 
ATOM      3  O   UNL     1       2.597   9.845  17.701  0.00  0.00    +0.000 OA
ATOM      4  H   UNL     1       1.019   8.035  19.770  0.00  0.00    +0.000 HD
ENDROOT
BRANCH   1   6
ATOM      5  C   UNL     1       0.320  10.070  21.225  0.00  0.00    +0.000 C 
ATOM      6  C   UNL     1       0.715  10.134  19.752  0.00  0.00    +0.000 C 
BRANCH   6   7
ATOM      7  C   UNL     1      -0.494  10.455  18.874  0.00  0.00    +0.000 A 
ATOM      8  C   UNL     1      -1.289  11.590  19.184  0.00  0.00    +0.000 A 
ATOM      9  C   UNL     1      -2.379  11.965  18.389  0.00  0.00    +0.000 A 
ATOM     10  C   UNL     1      -2.640  11.201  17.276  0.00  0.00    +0.000 A 
ATOM     11  C   UNL     1      -1.890  10.075  16.957  0.00  0.00    +0.000 A 
ATOM     12  C   UNL     1      -0.836   9.670  17.757  0.00  0.00    +0.000 A 
ATOM     13  C   UNL     1      -2.376   9.503  15.660  0.00  0.00    +0.000 C 
ATOM     14  C   UNL     1      -3.510  10.465  15.289  0.00  0.00    +0.000 C 
ATOM     15  O   UNL     1      -4.204  10.421  14.287  0.00  0.00    +0.000 OA
ATOM     16  N   UNL     1      -3.605  11.410  16.304  0.00  0.00    +0.000 N 
ATOM     17  H   UNL     1      -4.267  12.171  16.281  0.00  0.00    +0.000 HD
ENDBRANCH   6   7
ENDBRANCH   1   6
BRANCH   2  18
ATOM     18  C   UNL     1       2.653   7.410  17.871  0.00  0.00    +0.000 C 
BRANCH  18  19
ATOM     19  C   UNL     1       3.741   7.452  16.766  0.00  0.00    +0.000 C 
BRANCH  19  20
ATOM     20  C   UNL     1       4.953   6.548  16.915  0.00  0.00    +0.000 A 
ATOM     21  C   UNL     1       6.154   6.953  17.513  0.00  0.00    +0.000 A 
ATOM     22  C   UNL     1       7.181   6.053  17.776  0.00  0.00    +0.000 A 
ATOM     23  C   UNL     1       7.053   4.730  17.386  0.00  0.00    +0.000 A 
ATOM     24  C   UNL     1       5.906   4.319  16.709  0.00  0.00    +0.000 A 
ATOM     25  C   UNL     1       4.862   5.220  16.473  0.00  0.00    +0.000 A 
ENDBRANCH  19  20
ENDBRANCH  18  19
BRANCH  18  26
ATOM     26  C   UNL     1       3.119   6.487  19.027  0.00  0.00    +0.000 C 
BRANCH  26  27
ATOM     27  C   UNL     1       2.331   5.218  19.237  0.00  0.00    +0.000 A 
ATOM     28  C   UNL     1       1.947   4.427  18.154  0.00  0.00    +0.000 A 
ATOM     29  C   UNL     1       1.204   3.263  18.368  0.00  0.00    +0.000 A 
ATOM     30  C   UNL     1       0.845   2.888  19.664  0.00  0.00    +0.000 A 
ATOM     31  C   UNL     1       1.235   3.665  20.752  0.00  0.00    +0.000 A 
ATOM     32  C   UNL     1       1.979   4.825  20.537  0.00  0.00    +0.000 A 
ENDBRANCH  26  27
ENDBRANCH  18  26
ENDBRANCH   2  18
TORSDOF 7
ENDMDL
MODEL 2
REMARK VINA RESULT:      -9.0      1.017      2.001
REMARK  Name = 
REMARK  8 active torsions:
REMARK  status: ('A' for Active; 'I' for Inactive)
REMARK    1  A    between atoms: C_1  and  C_2
REMARK    2  A    between atoms: C_2  and  N_3
REMARK    3  A    between atoms: C_2  and  C_21
REMARK    4  A    between atoms: C_4  and  C_6
REMARK    5  A    between atoms: C_6  and  C_7
REMARK    6  A    between atoms: C_6  and  C_14
REMARK    7  A    between atoms: C_7  and  C_8
REMARK    8  A    between atoms: C_14  and  C_15
REMARK                            x       y       z     vdW  Elec       q    Type
REMARK                         _______ _______ _______ _____ _____    ______ ____
ROOT
ATOM      1  N   UNL     1       1.235   9.018  19.227  0.00  0.00    +0.000 N 
ATOM      2  C   UNL     1       2.183   8.918  18.225  0.00  0.00    +0.000 C 
ATOM      3  O   UNL     1       2.640   9.913  17.673  0.00  0.00    +0.000 OA
ATOM      4  H   UNL     1       0.816   8.181  19.602  0.00  0.00    +0.000 HD
ENDROOT
BRANCH   1   6
ATOM      5  C   UNL     1       0.347  10.386  21.042  0.00  0.00    +0.000 C 
ATOM      6  C   UNL     1       0.586  10.288  19.538  0.00  0.00    +0.000 C 
BRANCH   6   7
ATOM      7  C   UNL     1      -0.715  10.488  18.762  0.00  0.00    +0.000 A 
ATOM      8  C   UNL     1      -0.898   9.800  17.533  0.00  0.00    +0.000 A 
ATOM      9  C   UNL     1      -2.087   9.903  16.800  0.00  0.00    +0.000 A 
ATOM     10  C   UNL     1      -3.088  10.683  17.331  0.00  0.00    +0.000 A 
ATOM     11  C   UNL     1      -2.932  11.381  18.523  0.00  0.00    +0.000 A 
ATOM     12  C   UNL     1      -1.747  11.321  19.235  0.00  0.00    +0.000 A 
ATOM     13  C   UNL     1      -4.214  12.078  18.864  0.00  0.00    +0.000 C 
ATOM     14  C   UNL     1      -5.120  11.677  17.695  0.00  0.00    +0.000 C 
ATOM     15  O   UNL     1      -6.289  11.989  17.539  0.00  0.00    +0.000 OA
ATOM     16  N   UNL     1      -4.368  10.881  16.838  0.00  0.00    +0.000 N 
ATOM     17  H   UNL     1      -4.750  10.469  16.000  0.00  0.00    +0.000 HD
ENDBRANCH   6   7
ENDBRANCH   1   6
BRANCH   2  18
ATOM     18  C   UNL     1       2.597   7.480  17.870  0.00  0.00    +0.000 C 
BRANCH  18  19
ATOM     19  C   UNL     1       3.701   7.471  16.779  0.00  0.00    +0.000 C 
BRANCH  19  20
ATOM     20  C   UNL     1       4.856   6.496  16.933  0.00  0.00    +0.000 A 
ATOM     21  C   UNL     1       4.798   5.155  16.528  0.00  0.00    +0.000 A 
ATOM     22  C   UNL     1       5.924   4.339  16.536  0.00  0.00    +0.000 A 
ATOM     23  C   UNL     1       7.128   4.832  17.014  0.00  0.00    +0.000 A 
ATOM     24  C   UNL     1       7.192   6.134  17.506  0.00  0.00    +0.000 A 
ATOM     25  C   UNL     1       6.065   6.962  17.469  0.00  0.00    +0.000 A 
ENDBRANCH  19  20
ENDBRANCH  18  19
BRANCH  18  26
ATOM     26  C   UNL     1       3.035   6.590  19.063  0.00  0.00    +0.000 C 
BRANCH  26  27
ATOM     27  C   UNL     1       2.256   5.317  19.279  0.00  0.00    +0.000 A 
ATOM     28  C   UNL     1       1.884   4.916  20.561  0.00  0.00    +0.000 A 
ATOM     29  C   UNL     1       1.176   3.725  20.743  0.00  0.00    +0.000 A 
ATOM     30  C   UNL     1       0.839   2.934  19.643  0.00  0.00    +0.000 A 
ATOM     31  C   UNL     1       1.194   3.334  18.357  0.00  0.00    +0.000 A 
ATOM     32  C   UNL     1       1.898   4.524  18.177  0.00  0.00    +0.000 A 
ENDBRANCH  26  27
ENDBRANCH  18  26
ENDBRANCH   2  18
TORSDOF 7
ENDMDL
MODEL 3
REMARK VINA RESULT:      -9.0      1.550      2.268
REMARK  Name = 
REMARK  8 active torsions:
REMARK  status: ('A' for Active; 'I' for Inactive)
REMARK    1  A    between atoms: C_1  and  C_2
REMARK    2  A    between atoms: C_2  and  N_3
REMARK    3  A    between atoms: C_2  and  C_21
REMARK    4  A    between atoms: C_4  and  C_6
REMARK    5  A    between atoms: C_6  and  C_7
REMARK    6  A    between atoms: C_6  and  C_14
REMARK    7  A    between atoms: C_7  and  C_8
REMARK    8  A    between atoms: C_14  and  C_15
REMARK                            x       y       z     vdW  Elec       q    Type
REMARK                         _______ _______ _______ _____ _____    ______ ____
ROOT
ATOM      1  N   UNL     1       1.299   9.224  19.419  0.00  0.00    +0.000 N 
ATOM      2  C   UNL     1       2.109   8.577  18.504  0.00  0.00    +0.000 C 
ATOM      3  O   UNL     1       2.618   9.177  17.563  0.00  0.00    +0.000 OA
ATOM      4  H   UNL     1       0.827   8.689  20.133  0.00  0.00    +0.000 HD
ENDROOT
BRANCH   1   6
ATOM      5  C   UNL     1       0.991  11.393  20.495  0.00  0.00    +0.000 C 
ATOM      6  C   UNL     1       0.846  10.594  19.202  0.00  0.00    +0.000 C 
BRANCH   6   7
ATOM      7  C   UNL     1      -0.586  10.663  18.673  0.00  0.00    +0.000 A 
ATOM      8  C   UNL     1      -0.960   9.831  17.585  0.00  0.00    +0.000 A 
ATOM      9  C   UNL     1      -2.269   9.812  17.086  0.00  0.00    +0.000 A 
ATOM     10  C   UNL     1      -3.191  10.618  17.710  0.00  0.00    +0.000 A 
ATOM     11  C   UNL     1      -2.851  11.455  18.767  0.00  0.00    +0.000 A 
ATOM     12  C   UNL     1      -1.553  11.514  19.241  0.00  0.00    +0.000 A 
ATOM     13  C   UNL     1      -4.082  12.148  19.269  0.00  0.00    +0.000 C 
ATOM     14  C   UNL     1      -5.168  11.586  18.347  0.00  0.00    +0.000 C 
ATOM     15  O   UNL     1      -6.360  11.842  18.384  0.00  0.00    +0.000 OA
ATOM     16  N   UNL     1      -4.550  10.718  17.454  0.00  0.00    +0.000 N 
ATOM     17  H   UNL     1      -5.060  10.200  16.754  0.00  0.00    +0.000 HD
ENDBRANCH   6   7
ENDBRANCH   1   6
BRANCH   2  18
ATOM     18  C   UNL     1       2.305   7.074  18.764  0.00  0.00    +0.000 C 
BRANCH  18  19
ATOM     19  C   UNL     1       3.805   6.686  18.687  0.00  0.00    +0.000 C 
BRANCH  19  20
ATOM     20  C   UNL     1       4.286   5.913  17.471  0.00  0.00    +0.000 A 
ATOM     21  C   UNL     1       4.886   6.517  16.356  0.00  0.00    +0.000 A 
ATOM     22  C   UNL     1       5.458   5.765  15.335  0.00  0.00    +0.000 A 
ATOM     23  C   UNL     1       5.386   4.382  15.377  0.00  0.00    +0.000 A 
ATOM     24  C   UNL     1       4.718   3.758  16.429  0.00  0.00    +0.000 A 
ATOM     25  C   UNL     1       4.170   4.516  17.469  0.00  0.00    +0.000 A 
ENDBRANCH  19  20
ENDBRANCH  18  19
BRANCH  18  26
ATOM     26  C   UNL     1       1.693   6.533  20.083  0.00  0.00    +0.000 C 
BRANCH  26  27
ATOM     27  C   UNL     1       1.686   5.035  20.260  0.00  0.00    +0.000 A 
ATOM     28  C   UNL     1       2.271   4.445  21.380  0.00  0.00    +0.000 A 
ATOM     29  C   UNL     1       2.269   3.055  21.518  0.00  0.00    +0.000 A 
ATOM     30  C   UNL     1       1.680   2.253  20.539  0.00  0.00    +0.000 A 
ATOM     31  C   UNL     1       1.081   2.834  19.424  0.00  0.00    +0.000 A 
ATOM     32  C   UNL     1       1.083   4.222  19.288  0.00  0.00    +0.000 A 
ENDBRANCH  26  27
ENDBRANCH  18  26
ENDBRANCH   2  18
TORSDOF 7
ENDMDL
MODEL 4
REMARK VINA RESULT:      -9.0      0.203      1.259
REMARK  Name = 
REMARK  8 active torsions:
REMARK  status: ('A' for Active; 'I' for Inactive)
REMARK    1  A    between atoms: C_1  and  C_2
REMARK    2  A    between atoms: C_2  and  N_3
REMARK    3  A    between atoms: C_2  and  C_21
REMARK    4  A    between atoms: C_4  and  C_6
REMARK    5  A    between atoms: C_6  and  C_7
REMARK    6  A    between atoms: C_6  and  C_14
REMARK    7  A    between atoms: C_7  and  C_8
REMARK    8  A    between atoms: C_14  and  C_15
REMARK                            x       y       z     vdW  Elec       q    Type
REMARK                         _______ _______ _______ _____ _____    ______ ____
ROOT
ATOM      1  N   UNL     1       1.344   9.059  19.305  0.00  0.00    +0.000 N 
ATOM      2  C   UNL     1       2.263   8.965  18.276  0.00  0.00    +0.000 C 
ATOM      3  O   UNL     1       2.695   9.963  17.709  0.00  0.00    +0.000 OA
ATOM      4  H   UNL     1       0.944   8.220  19.695  0.00  0.00    +0.000 HD
ENDROOT
BRANCH   1   6
ATOM      5  C   UNL     1       0.398  10.376  21.130  0.00  0.00    +0.000 C 
ATOM      6  C   UNL     1       0.695  10.325  19.633  0.00  0.00    +0.000 C 
BRANCH   6   7
ATOM      7  C   UNL     1      -0.573  10.564  18.815  0.00  0.00    +0.000 A 
ATOM      8  C   UNL     1      -1.481  11.575  19.228  0.00  0.00    +0.000 A 
ATOM      9  C   UNL     1      -2.634  11.876  18.493  0.00  0.00    +0.000 A 
ATOM     10  C   UNL     1      -2.845  11.165  17.335  0.00  0.00    +0.000 A 
ATOM     11  C   UNL     1      -1.984  10.159  16.913  0.00  0.00    +0.000 A 
ATOM     12  C   UNL     1      -0.863   9.825  17.652  0.00  0.00    +0.000 A 
ATOM     13  C   UNL     1      -2.448   9.627  15.591  0.00  0.00    +0.000 C 
ATOM     14  C   UNL     1      -3.696  10.474  15.323  0.00  0.00    +0.000 C 
ATOM     15  O   UNL     1      -4.416  10.419  14.340  0.00  0.00    +0.000 OA
ATOM     16  N   UNL     1      -3.862  11.328  16.407  0.00  0.00    +0.000 N 
ATOM     17  H   UNL     1      -4.607  12.007  16.458  0.00  0.00    +0.000 HD
ENDBRANCH   6   7
ENDBRANCH   1   6
BRANCH   2  18
ATOM     18  C   UNL     1       2.678   7.530  17.911  0.00  0.00    +0.000 C 
BRANCH  18  19
ATOM     19  C   UNL     1       3.823   7.529  16.865  0.00  0.00    +0.000 C 
BRANCH  19  20
ATOM     20  C   UNL     1       4.986   6.574  17.072  0.00  0.00    +0.000 A 
ATOM     21  C   UNL     1       4.973   5.235  16.657  0.00  0.00    +0.000 A 
ATOM     22  C   UNL     1       6.111   4.438  16.719  0.00  0.00    +0.000 A 
ATOM     23  C   UNL     1       7.280   4.949  17.259  0.00  0.00    +0.000 A 
ATOM     24  C   UNL     1       7.297   6.249  17.760  0.00  0.00    +0.000 A 
ATOM     25  C   UNL     1       6.159   7.058  17.670  0.00  0.00    +0.000 A 
ENDBRANCH  19  20
ENDBRANCH  18  19
BRANCH  18  26
ATOM     26  C   UNL     1       3.060   6.615  19.104  0.00  0.00    +0.000 C 
BRANCH  26  27
ATOM     27  C   UNL     1       2.256   5.350  19.271  0.00  0.00    +0.000 A 
ATOM     28  C   UNL     1       1.883   4.903  20.538  0.00  0.00    +0.000 A 
ATOM     29  C   UNL     1       1.151   3.720  20.674  0.00  0.00    +0.000 A 
ATOM     30  C   UNL     1       0.791   2.984  19.544  0.00  0.00    +0.000 A 
ATOM     31  C   UNL     1       1.147   3.430  18.275  0.00  0.00    +0.000 A 
ATOM     32  C   UNL     1       1.875   4.612  18.140  0.00  0.00    +0.000 A 
ENDBRANCH  26  27
ENDBRANCH  18  26
ENDBRANCH   2  18
TORSDOF 7
ENDMDL
MODEL 5
REMARK VINA RESULT:      -8.9      1.707      2.398
REMARK  Name = 
REMARK  8 active torsions:
REMARK  status: ('A' for Active; 'I' for Inactive)
REMARK    1  A    between atoms: C_1  and  C_2
REMARK    2  A    between atoms: C_2  and  N_3
REMARK    3  A    between atoms: C_2  and  C_21
REMARK    4  A    between atoms: C_4  and  C_6
REMARK    5  A    between atoms: C_6  and  C_7
REMARK    6  A    between atoms: C_6  and  C_14
REMARK    7  A    between atoms: C_7  and  C_8
REMARK    8  A    between atoms: C_14  and  C_15
REMARK                            x       y       z     vdW  Elec       q    Type
REMARK                         _______ _______ _______ _____ _____    ______ ____
ROOT
ATOM      1  N   UNL     1       0.911   9.348  19.385  0.00  0.00    +0.000 N 
ATOM      2  C   UNL     1       1.790   8.742  18.507  0.00  0.00    +0.000 C 
ATOM      3  O   UNL     1       2.324   9.369  17.599  0.00  0.00    +0.000 OA
ATOM      4  H   UNL     1       0.423   8.790  20.068  0.00  0.00    +0.000 HD
ENDROOT
BRANCH   1   6
ATOM      5  C   UNL     1       0.436  11.482  20.471  0.00  0.00    +0.000 C 
ATOM      6  C   UNL     1       0.421  10.704  19.158  0.00  0.00    +0.000 C 
BRANCH   6   7
ATOM      7  C   UNL     1      -0.969  10.728  18.523  0.00  0.00    +0.000 A 
ATOM      8  C   UNL     1      -1.226   9.905  17.395  0.00  0.00    +0.000 A 
ATOM      9  C   UNL     1      -2.492   9.844  16.799  0.00  0.00    +0.000 A 
ATOM     10  C   UNL     1      -3.490  10.600  17.365  0.00  0.00    +0.000 A 
ATOM     11  C   UNL     1      -3.266  11.428  18.459  0.00  0.00    +0.000 A 
ATOM     12  C   UNL     1      -2.009  11.528  19.031  0.00  0.00    +0.000 A 
ATOM     13  C   UNL     1      -4.557  12.061  18.879  0.00  0.00    +0.000 C 
ATOM     14  C   UNL     1      -5.547  11.476  17.867  0.00  0.00    +0.000 C 
ATOM     15  O   UNL     1      -6.748  11.684  17.819  0.00  0.00    +0.000 OA
ATOM     16  N   UNL     1      -4.829  10.652  17.008  0.00  0.00    +0.000 N 
ATOM     17  H   UNL     1      -5.264  10.129  16.263  0.00  0.00    +0.000 HD
ENDBRANCH   6   7
ENDBRANCH   1   6
BRANCH   2  18
ATOM     18  C   UNL     1       2.027   7.244  18.763  0.00  0.00    +0.000 C 
BRANCH  18  19
ATOM     19  C   UNL     1       3.319   6.755  18.058  0.00  0.00    +0.000 C 
BRANCH  19  20
ATOM     20  C   UNL     1       3.570   5.259  17.971  0.00  0.00    +0.000 A 
ATOM     21  C   UNL     1       4.644   4.616  18.603  0.00  0.00    +0.000 A 
ATOM     22  C   UNL     1       4.750   3.229  18.635  0.00  0.00    +0.000 A 
ATOM     23  C   UNL     1       3.811   2.452  17.977  0.00  0.00    +0.000 A 
ATOM     24  C   UNL     1       2.782   3.068  17.266  0.00  0.00    +0.000 A 
ATOM     25  C   UNL     1       2.662   4.462  17.261  0.00  0.00    +0.000 A 
ENDBRANCH  19  20
ENDBRANCH  18  19
BRANCH  18  26
ATOM     26  C   UNL     1       2.049   6.809  20.252  0.00  0.00    +0.000 C 
BRANCH  26  27
ATOM     27  C   UNL     1       1.783   5.352  20.535  0.00  0.00    +0.000 A 
ATOM     28  C   UNL     1       0.742   4.678  19.897  0.00  0.00    +0.000 A 
ATOM     29  C   UNL     1       0.501   3.333  20.185  0.00  0.00    +0.000 A 
ATOM     30  C   UNL     1       1.300   2.658  21.110  0.00  0.00    +0.000 A 
ATOM     31  C   UNL     1       2.350   3.319  21.742  0.00  0.00    +0.000 A 
ATOM     32  C   UNL     1       2.591   4.662  21.452  0.00  0.00    +0.000 A 
ENDBRANCH  26  27
ENDBRANCH  18  26
ENDBRANCH   2  18
TORSDOF 7
ENDMDL
MODEL 6
REMARK VINA RESULT:      -8.8      1.123      3.651
REMARK  Name = 
REMARK  8 active torsions:
REMARK  status: ('A' for Active; 'I' for Inactive)
REMARK    1  A    between atoms: C_1  and  C_2
REMARK    2  A    between atoms: C_2  and  N_3
REMARK    3  A    between atoms: C_2  and  C_21
REMARK    4  A    between atoms: C_4  and  C_6
REMARK    5  A    between atoms: C_6  and  C_7
REMARK    6  A    between atoms: C_6  and  C_14
REMARK    7  A    between atoms: C_7  and  C_8
REMARK    8  A    between atoms: C_14  and  C_15
REMARK                            x       y       z     vdW  Elec       q    Type
REMARK                         _______ _______ _______ _____ _____    ______ ____
ROOT
ATOM      1  N   UNL     1       1.590   8.179  20.204  0.00  0.00    +0.000 N 
ATOM      2  C   UNL     1       2.254   8.366  19.005  0.00  0.00    +0.000 C 
ATOM      3  O   UNL     1       2.336   9.473  18.484  0.00  0.00    +0.000 OA
ATOM      4  H   UNL     1       1.466   7.246  20.565  0.00  0.00    +0.000 HD
ENDROOT
BRANCH   1   6
ATOM      5  C   UNL     1      -0.110   8.652  21.890  0.00  0.00    +0.000 C 
ATOM      6  C   UNL     1       0.786   9.240  20.804  0.00  0.00    +0.000 C 
BRANCH   6   7
ATOM      7  C   UNL     1      -0.036  10.009  19.771  0.00  0.00    +0.000 A 
ATOM      8  C   UNL     1       0.073  11.424  19.718  0.00  0.00    +0.000 A 
ATOM      9  C   UNL     1      -0.617  12.181  18.763  0.00  0.00    +0.000 A 
ATOM     10  C   UNL     1      -1.391  11.496  17.856  0.00  0.00    +0.000 A 
ATOM     11  C   UNL     1      -1.531  10.114  17.894  0.00  0.00    +0.000 A 
ATOM     12  C   UNL     1      -0.887   9.358  18.858  0.00  0.00    +0.000 A 
ATOM     13  C   UNL     1      -2.379   9.667  16.742  0.00  0.00    +0.000 C 
ATOM     14  C   UNL     1      -2.702  10.993  16.046  0.00  0.00    +0.000 C 
ATOM     15  O   UNL     1      -3.359  11.141  15.029  0.00  0.00    +0.000 OA
ATOM     16  N   UNL     1      -2.101  12.008  16.782  0.00  0.00    +0.000 N 
ATOM     17  H   UNL     1      -2.150  12.979  16.512  0.00  0.00    +0.000 HD
ENDBRANCH   6   7
ENDBRANCH   1   6
BRANCH   2  18
ATOM     18  C   UNL     1       2.860   7.090  18.397  0.00  0.00    +0.000 C 
BRANCH  18  19
ATOM     19  C   UNL     1       1.749   6.101  17.954  0.00  0.00    +0.000 C 
BRANCH  19  20
ATOM     20  C   UNL     1       1.841   4.659  18.424  0.00  0.00    +0.000 A 
ATOM     21  C   UNL     1       1.398   4.224  19.681  0.00  0.00    +0.000 A 
ATOM     22  C   UNL     1       1.350   2.874  20.013  0.00  0.00    +0.000 A 
ATOM     23  C   UNL     1       1.806   1.927  19.111  0.00  0.00    +0.000 A 
ATOM     24  C   UNL     1       2.334   2.338  17.888  0.00  0.00    +0.000 A 
ATOM     25  C   UNL     1       2.354   3.694  17.545  0.00  0.00    +0.000 A 
ENDBRANCH  19  20
ENDBRANCH  18  19
BRANCH  18  26
ATOM     26  C   UNL     1       3.860   7.308  17.231  0.00  0.00    +0.000 C 
BRANCH  26  27
ATOM     27  C   UNL     1       4.950   6.278  17.074  0.00  0.00    +0.000 A 
ATOM     28  C   UNL     1       5.522   5.666  18.189  0.00  0.00    +0.000 A 
ATOM     29  C   UNL     1       6.542   4.725  18.023  0.00  0.00    +0.000 A 
ATOM     30  C   UNL     1       6.991   4.395  16.743  0.00  0.00    +0.000 A 
ATOM     31  C   UNL     1       6.417   4.991  15.624  0.00  0.00    +0.000 A 
ATOM     32  C   UNL     1       5.397   5.928  15.790  0.00  0.00    +0.000 A 
ENDBRANCH  26  27
ENDBRANCH  18  26
ENDBRANCH   2  18
TORSDOF 7
ENDMDL
MODEL 7
REMARK VINA RESULT:      -8.8      2.650      3.773
REMARK  Name = 
REMARK  8 active torsions:
REMARK  status: ('A' for Active; 'I' for Inactive)
REMARK    1  A    between atoms: C_1  and  C_2
REMARK    2  A    between atoms: C_2  and  N_3
REMARK    3  A    between atoms: C_2  and  C_21
REMARK    4  A    between atoms: C_4  and  C_6
REMARK    5  A    between atoms: C_6  and  C_7
REMARK    6  A    between atoms: C_6  and  C_14
REMARK    7  A    between atoms: C_7  and  C_8
REMARK    8  A    between atoms: C_14  and  C_15
REMARK                            x       y       z     vdW  Elec       q    Type
REMARK                         _______ _______ _______ _____ _____    ______ ____
ROOT
ATOM      1  N   UNL     1       1.412   9.196  19.264  0.00  0.00    +0.000 N 
ATOM      2  C   UNL     1       2.013   8.553  18.198  0.00  0.00    +0.000 C 
ATOM      3  O   UNL     1       2.090   9.079  17.093  0.00  0.00    +0.000 OA
ATOM      4  H   UNL     1       1.288   8.707  20.136  0.00  0.00    +0.000 HD
ENDROOT
BRANCH   1   6
ATOM      5  C   UNL     1       1.632  11.573  18.751  0.00  0.00    +0.000 C 
ATOM      6  C   UNL     1       0.666  10.438  19.083  0.00  0.00    +0.000 C 
BRANCH   6   7
ATOM      7  C   UNL     1      -0.196  10.788  20.295  0.00  0.00    +0.000 A 
ATOM      8  C   UNL     1       0.051  10.131  21.529  0.00  0.00    +0.000 A 
ATOM      9  C   UNL     1      -0.671  10.443  22.688  0.00  0.00    +0.000 A 
ATOM     10  C   UNL     1      -1.620  11.434  22.591  0.00  0.00    +0.000 A 
ATOM     11  C   UNL     1      -1.895  12.083  21.393  0.00  0.00    +0.000 A 
ATOM     12  C   UNL     1      -1.218  11.755  20.232  0.00  0.00    +0.000 A 
ATOM     13  C   UNL     1      -2.923  13.148  21.628  0.00  0.00    +0.000 C 
ATOM     14  C   UNL     1      -3.192  13.011  23.130  0.00  0.00    +0.000 C 
ATOM     15  O   UNL     1      -3.953  13.690  23.799  0.00  0.00    +0.000 OA
ATOM     16  N   UNL     1      -2.402  11.968  23.603  0.00  0.00    +0.000 N 
ATOM     17  H   UNL     1      -2.383  11.695  24.573  0.00  0.00    +0.000 HD
ENDBRANCH   6   7
ENDBRANCH   1   6
BRANCH   2  18
ATOM     18  C   UNL     1       2.557   7.150  18.514  0.00  0.00    +0.000 C 
BRANCH  18  19
ATOM     19  C   UNL     1       4.090   7.083  18.291  0.00  0.00    +0.000 C 
BRANCH  19  20
ATOM     20  C   UNL     1       4.629   6.062  17.304  0.00  0.00    +0.000 A 
ATOM     21  C   UNL     1       4.652   4.682  17.551  0.00  0.00    +0.000 A 
ATOM     22  C   UNL     1       5.003   3.767  16.563  0.00  0.00    +0.000 A 
ATOM     23  C   UNL     1       5.402   4.220  15.316  0.00  0.00    +0.000 A 
ATOM     24  C   UNL     1       5.473   5.590  15.071  0.00  0.00    +0.000 A 
ATOM     25  C   UNL     1       5.092   6.506  16.057  0.00  0.00    +0.000 A 
ENDBRANCH  19  20
ENDBRANCH  18  19
BRANCH  18  26
ATOM     26  C   UNL     1       2.209   6.593  19.919  0.00  0.00    +0.000 C 
BRANCH  26  27
ATOM     27  C   UNL     1       1.938   5.113  20.013  0.00  0.00    +0.000 A 
ATOM     28  C   UNL     1       1.476   4.399  18.907  0.00  0.00    +0.000 A 
ATOM     29  C   UNL     1       1.216   3.031  19.017  0.00  0.00    +0.000 A 
ATOM     30  C   UNL     1       1.417   2.374  20.232  0.00  0.00    +0.000 A 
ATOM     31  C   UNL     1       1.891   3.075  21.338  0.00  0.00    +0.000 A 
ATOM     32  C   UNL     1       2.153   4.440  21.225  0.00  0.00    +0.000 A 
ENDBRANCH  26  27
ENDBRANCH  18  26
ENDBRANCH   2  18
TORSDOF 7
ENDMDL
MODEL 8
REMARK VINA RESULT:      -8.7      0.959      1.663
REMARK  Name = 
REMARK  8 active torsions:
REMARK  status: ('A' for Active; 'I' for Inactive)
REMARK    1  A    between atoms: C_1  and  C_2
REMARK    2  A    between atoms: C_2  and  N_3
REMARK    3  A    between atoms: C_2  and  C_21
REMARK    4  A    between atoms: C_4  and  C_6
REMARK    5  A    between atoms: C_6  and  C_7
REMARK    6  A    between atoms: C_6  and  C_14
REMARK    7  A    between atoms: C_7  and  C_8
REMARK    8  A    between atoms: C_14  and  C_15
REMARK                            x       y       z     vdW  Elec       q    Type
REMARK                         _______ _______ _______ _____ _____    ______ ____
ROOT
ATOM      1  N   UNL     1       1.563   8.119  19.513  0.00  0.00    +0.000 N 
ATOM      2  C   UNL     1       2.445   8.028  18.452  0.00  0.00    +0.000 C 
ATOM      3  O   UNL     1       3.032   9.014  18.020  0.00  0.00    +0.000 OA
ATOM      4  H   UNL     1       1.033   7.308  19.792  0.00  0.00    +0.000 HD
ENDROOT
BRANCH   1   6
ATOM      5  C   UNL     1       0.684   9.250  21.489  0.00  0.00    +0.000 C 
ATOM      6  C   UNL     1       1.135   9.411  20.040  0.00  0.00    +0.000 C 
BRANCH   6   7
ATOM      7  C   UNL     1       0.040  10.057  19.193  0.00  0.00    +0.000 A 
ATOM      8  C   UNL     1      -0.367  11.385  19.488  0.00  0.00    +0.000 A 
ATOM      9  C   UNL     1      -1.330  12.050  18.718  0.00  0.00    +0.000 A 
ATOM     10  C   UNL     1      -1.855  11.371  17.644  0.00  0.00    +0.000 A 
ATOM     11  C   UNL     1      -1.488  10.065  17.340  0.00  0.00    +0.000 A 
ATOM     12  C   UNL     1      -0.568   9.383  18.117  0.00  0.00    +0.000 A 
ATOM     13  C   UNL     1      -2.179   9.633  16.082  0.00  0.00    +0.000 C 
ATOM     14  C   UNL     1      -2.990  10.880  15.715  0.00  0.00    +0.000 C 
ATOM     15  O   UNL     1      -3.709  11.020  14.740  0.00  0.00    +0.000 OA
ATOM     16  N   UNL     1      -2.756  11.835  16.698  0.00  0.00    +0.000 N 
ATOM     17  H   UNL     1      -3.162  12.758  16.669  0.00  0.00    +0.000 HD
ENDBRANCH   6   7
ENDBRANCH   1   6
BRANCH   2  18
ATOM     18  C   UNL     1       2.613   6.613  17.872  0.00  0.00    +0.000 C 
BRANCH  18  19
ATOM     19  C   UNL     1       3.871   5.918  18.455  0.00  0.00    +0.000 C 
BRANCH  19  20
ATOM     20  C   UNL     1       4.924   5.407  17.486  0.00  0.00    +0.000 A 
ATOM     21  C   UNL     1       4.706   4.349  16.592  0.00  0.00    +0.000 A 
ATOM     22  C   UNL     1       5.636   4.015  15.612  0.00  0.00    +0.000 A 
ATOM     23  C   UNL     1       6.840   4.697  15.546  0.00  0.00    +0.000 A 
ATOM     24  C   UNL     1       7.120   5.694  16.479  0.00  0.00    +0.000 A 
ATOM     25  C   UNL     1       6.170   6.047  17.444  0.00  0.00    +0.000 A 
ENDBRANCH  19  20
ENDBRANCH  18  19
BRANCH  18  26
ATOM     26  C   UNL     1       1.385   5.676  18.014  0.00  0.00    +0.000 C 
BRANCH  26  27
ATOM     27  C   UNL     1       1.531   4.509  18.958  0.00  0.00    +0.000 A 
ATOM     28  C   UNL     1       1.503   4.700  20.340  0.00  0.00    +0.000 A 
ATOM     29  C   UNL     1       1.656   3.609  21.198  0.00  0.00    +0.000 A 
ATOM     30  C   UNL     1       1.836   2.326  20.678  0.00  0.00    +0.000 A 
ATOM     31  C   UNL     1       1.851   2.124  19.301  0.00  0.00    +0.000 A 
ATOM     32  C   UNL     1       1.696   3.214  18.445  0.00  0.00    +0.000 A 
ENDBRANCH  26  27
ENDBRANCH  18  26
ENDBRANCH   2  18
TORSDOF 7
ENDMDL
MODEL 9
REMARK VINA RESULT:      -8.5      1.530      3.344
REMARK  Name = 
REMARK  8 active torsions:
REMARK  status: ('A' for Active; 'I' for Inactive)
REMARK    1  A    between atoms: C_1  and  C_2
REMARK    2  A    between atoms: C_2  and  N_3
REMARK    3  A    between atoms: C_2  and  C_21
REMARK    4  A    between atoms: C_4  and  C_6
REMARK    5  A    between atoms: C_6  and  C_7
REMARK    6  A    between atoms: C_6  and  C_14
REMARK    7  A    between atoms: C_7  and  C_8
REMARK    8  A    between atoms: C_14  and  C_15
REMARK                            x       y       z     vdW  Elec       q    Type
REMARK                         _______ _______ _______ _____ _____    ______ ____
ROOT
ATOM      1  N   UNL     1       1.722   8.844  19.500  0.00  0.00    +0.000 N 
ATOM      2  C   UNL     1       1.616   7.707  20.279  0.00  0.00    +0.000 C 
ATOM      3  O   UNL     1       0.937   7.690  21.300  0.00  0.00    +0.000 OA
ATOM      4  H   UNL     1       2.354   8.853  18.714  0.00  0.00    +0.000 HD
ENDROOT
BRANCH   1   6
ATOM      5  C   UNL     1       0.971  10.087  21.462  0.00  0.00    +0.000 C 
ATOM      6  C   UNL     1       1.200  10.130  19.953  0.00  0.00    +0.000 C 
BRANCH   6   7
ATOM      7  C   UNL     1      -0.074  10.539  19.217  0.00  0.00    +0.000 A 
ATOM      8  C   UNL     1      -0.782  11.691  19.651  0.00  0.00    +0.000 A 
ATOM      9  C   UNL     1      -1.929  12.146  18.988  0.00  0.00    +0.000 A 
ATOM     10  C   UNL     1      -2.333  11.443  17.878  0.00  0.00    +0.000 A 
ATOM     11  C   UNL     1      -1.671  10.303  17.438  0.00  0.00    +0.000 A 
ATOM     12  C   UNL     1      -0.561   9.820  18.109  0.00  0.00    +0.000 A 
ATOM     13  C   UNL     1      -2.310   9.810  16.175  0.00  0.00    +0.000 C 
ATOM     14  C   UNL     1      -3.430  10.833  15.961  0.00  0.00    +0.000 C 
ATOM     15  O   UNL     1      -4.223  10.862  15.034  0.00  0.00    +0.000 OA
ATOM     16  N   UNL     1      -3.381  11.735  17.018  0.00  0.00    +0.000 N 
ATOM     17  H   UNL     1      -4.007  12.523  17.093  0.00  0.00    +0.000 HD
ENDBRANCH   6   7
ENDBRANCH   1   6
BRANCH   2  18
ATOM     18  C   UNL     1       2.414   6.496  19.766  0.00  0.00    +0.000 C 
BRANCH  18  19
ATOM     19  C   UNL     1       1.603   5.184  19.932  0.00  0.00    +0.000 C 
BRANCH  19  20
ATOM     20  C   UNL     1       2.205   3.894  19.398  0.00  0.00    +0.000 A 
ATOM     21  C   UNL     1       1.795   3.284  18.205  0.00  0.00    +0.000 A 
ATOM     22  C   UNL     1       2.476   2.196  17.667  0.00  0.00    +0.000 A 
ATOM     23  C   UNL     1       3.552   1.653  18.350  0.00  0.00    +0.000 A 
ATOM     24  C   UNL     1       3.925   2.185  19.583  0.00  0.00    +0.000 A 
ATOM     25  C   UNL     1       3.257   3.297  20.106  0.00  0.00    +0.000 A 
ENDBRANCH  19  20
ENDBRANCH  18  19
BRANCH  18  26
ATOM     26  C   UNL     1       2.940   6.603  18.311  0.00  0.00    +0.000 C 
BRANCH  26  27
ATOM     27  C   UNL     1       4.243   5.906  18.009  0.00  0.00    +0.000 A 
ATOM     28  C   UNL     1       4.450   5.279  16.781  0.00  0.00    +0.000 A 
ATOM     29  C   UNL     1       5.658   4.624  16.527  0.00  0.00    +0.000 A 
ATOM     30  C   UNL     1       6.660   4.596  17.498  0.00  0.00    +0.000 A 
ATOM     31  C   UNL     1       6.467   5.231  18.722  0.00  0.00    +0.000 A 
ATOM     32  C   UNL     1       5.262   5.887  18.974  0.00  0.00    +0.000 A 
ENDBRANCH  26  27
ENDBRANCH  18  26
ENDBRANCH   2  18
TORSDOF 7
ENDMDL
