MODEL 1
REMARK VINA RESULT:      -8.0      0.000      0.000
REMARK  Name = 
REMARK  5 active torsions:
REMARK  status: ('A' for Active; 'I' for Inactive)
REMARK    1  A    between atoms: C_1  and  C_2
REMARK    2  A    between atoms: C_6  and  N_7
REMARK    3  A    between atoms: C_10  and  C_11
REMARK    4  A    between atoms: C_22  and  C_23
REMARK    5  A    between atoms: C_24  and  C_25
REMARK                            x       y       z     vdW  Elec       q    Type
REMARK                         _______ _______ _______ _____ _____    ______ ____
ROOT
ATOM      1  N   UNL     1       2.028   8.435  18.777  0.00  0.00    +0.000 N 
ATOM      2  N   UNL     1       2.102   9.537  17.993  0.00  0.00    +0.000 NA
ATOM      3  N   UNL     1       1.406  10.502  18.560  0.00  0.00    +0.000 NA
ATOM      4  C   UNL     1       0.938  10.054  19.765  0.00  0.00    +0.000 A 
ATOM      5  C   UNL     1       1.386   8.750  19.963  0.00  0.00    +0.000 A 
ATOM      6  C   UNL     1       1.402   7.900  21.177  0.00  0.00    +0.000 C 
ENDROOT
BRANCH   4   7
ATOM      7  C   UNL     1       0.223  10.927  20.698  0.00  0.00    +0.000 C 
ATOM      8  O   UNL     1       0.383  10.807  21.905  0.00  0.00    +0.000 OA
ATOM      9  N   UNL     1      -0.631  11.915  20.153  0.00  0.00    +0.000 N 
ATOM     10  C   UNL     1      -1.203  12.853  21.114  0.00  0.00    +0.000 C 
ATOM     11  C   UNL     1      -2.700  13.110  20.988  0.00  0.00    +0.000 C 
ATOM     12  C   UNL     1      -3.405  12.384  19.885  0.00  0.00    +0.000 A 
ATOM     13  C   UNL     1      -4.799  12.287  19.941  0.00  0.00    +0.000 A 
ATOM     14  C   UNL     1      -5.514  11.749  18.879  0.00  0.00    +0.000 A 
ATOM     15  C   UNL     1      -4.839  11.326  17.740  0.00  0.00    +0.000 A 
ATOM     16  C   UNL     1      -3.442  11.383  17.692  0.00  0.00    +0.000 A 
ATOM     17  C   UNL     1      -2.708  11.885  18.782  0.00  0.00    +0.000 A 
ATOM     18  C   UNL     1      -1.187  11.868  18.771  0.00  0.00    +0.000 C 
ATOM     19  C   UNL     1      -0.633  12.922  17.799  0.00  0.00    +0.000 C 
ENDBRANCH   4   7
BRANCH   1  25
ATOM     20  C   UNL     1       1.698   3.546  17.898  0.00  0.00    +0.000 C 
ATOM     21  C   UNL     1       2.470   4.833  17.885  0.00  0.00    +0.000 A 
ATOM     22  C   UNL     1       3.705   4.902  17.223  0.00  0.00    +0.000 A 
ATOM     23  C   UNL     1       4.373   6.116  17.100  0.00  0.00    +0.000 A 
ATOM     24  C   UNL     1       3.804   7.278  17.616  0.00  0.00    +0.000 A 
ATOM     25  C   UNL     1       2.591   7.221  18.316  0.00  0.00    +0.000 A 
ATOM     26  C   UNL     1       1.928   5.996  18.461  0.00  0.00    +0.000 A 
ENDBRANCH   1  25
TORSDOF 2
ENDMDL
MODEL 2
REMARK VINA RESULT:      -7.8      2.980      4.689
REMARK  Name = 
REMARK  5 active torsions:
REMARK  status: ('A' for Active; 'I' for Inactive)
REMARK    1  A    between atoms: C_1  and  C_2
REMARK    2  A    between atoms: C_6  and  N_7
REMARK    3  A    between atoms: C_10  and  C_11
REMARK    4  A    between atoms: C_22  and  C_23
REMARK    5  A    between atoms: C_24  and  C_25
REMARK                            x       y       z     vdW  Elec       q    Type
REMARK                         _______ _______ _______ _____ _____    ______ ____
ROOT
ATOM      1  N   UNL     1       0.749  10.387  20.123  0.00  0.00    +0.000 N 
ATOM      2  N   UNL     1       1.054  10.867  21.352  0.00  0.00    +0.000 NA
ATOM      3  N   UNL     1       0.424  12.011  21.524  0.00  0.00    +0.000 NA
ATOM      4  C   UNL     1      -0.365  12.243  20.430  0.00  0.00    +0.000 A 
ATOM      5  C   UNL     1      -0.230  11.177  19.545  0.00  0.00    +0.000 A 
ATOM      6  C   UNL     1      -1.032  10.787  18.361  0.00  0.00    +0.000 C 
ENDROOT
BRANCH   4   7
ATOM      7  C   UNL     1      -1.287  13.380  20.361  0.00  0.00    +0.000 C 
ATOM      8  O   UNL     1      -2.486  13.195  20.206  0.00  0.00    +0.000 OA
ATOM      9  N   UNL     1      -0.743  14.679  20.500  0.00  0.00    +0.000 N 
ATOM     10  C   UNL     1      -1.717  15.764  20.574  0.00  0.00    +0.000 C 
ATOM     11  C   UNL     1      -1.436  16.974  19.690  0.00  0.00    +0.000 C 
ATOM     12  C   UNL     1      -0.190  16.915  18.864  0.00  0.00    +0.000 A 
ATOM     13  C   UNL     1      -0.066  17.798  17.786  0.00  0.00    +0.000 A 
ATOM     14  C   UNL     1       1.123  17.883  17.074  0.00  0.00    +0.000 A 
ATOM     15  C   UNL     1       2.209  17.102  17.452  0.00  0.00    +0.000 A 
ATOM     16  C   UNL     1       2.080  16.187  18.502  0.00  0.00    +0.000 A 
ATOM     17  C   UNL     1       0.865  16.062  19.200  0.00  0.00    +0.000 A 
ATOM     18  C   UNL     1       0.694  15.010  20.285  0.00  0.00    +0.000 C 
ATOM     19  C   UNL     1       1.482  15.389  21.548  0.00  0.00    +0.000 C 
ENDBRANCH   4   7
BRANCH   1  25
ATOM     20  C   UNL     1       1.943   5.574  20.574  0.00  0.00    +0.000 C 
ATOM     21  C   UNL     1       2.021   6.883  19.844  0.00  0.00    +0.000 A 
ATOM     22  C   UNL     1       2.586   6.937  18.561  0.00  0.00    +0.000 A 
ATOM     23  C   UNL     1       2.556   8.117  17.825  0.00  0.00    +0.000 A 
ATOM     24  C   UNL     1       1.941   9.251  18.354  0.00  0.00    +0.000 A 
ATOM     25  C   UNL     1       1.409   9.226  19.650  0.00  0.00    +0.000 A 
ATOM     26  C   UNL     1       1.458   8.045  20.401  0.00  0.00    +0.000 A 
ENDBRANCH   1  25
TORSDOF 2
ENDMDL
MODEL 3
REMARK VINA RESULT:      -7.7      0.441      1.422
REMARK  Name = 
REMARK  5 active torsions:
REMARK  status: ('A' for Active; 'I' for Inactive)
REMARK    1  A    between atoms: C_1  and  C_2
REMARK    2  A    between atoms: C_6  and  N_7
REMARK    3  A    between atoms: C_10  and  C_11
REMARK    4  A    between atoms: C_22  and  C_23
REMARK    5  A    between atoms: C_24  and  C_25
REMARK                            x       y       z     vdW  Elec       q    Type
REMARK                         _______ _______ _______ _____ _____    ______ ____
ROOT
ATOM      1  N   UNL     1       2.090   8.380  18.563  0.00  0.00    +0.000 N 
ATOM      2  N   UNL     1       2.134   9.526  17.843  0.00  0.00    +0.000 NA
ATOM      3  N   UNL     1       1.382  10.427  18.442  0.00  0.00    +0.000 NA
ATOM      4  C   UNL     1       0.906   9.893  19.609  0.00  0.00    +0.000 A 
ATOM      5  C   UNL     1       1.406   8.601  19.747  0.00  0.00    +0.000 A 
ATOM      6  C   UNL     1       1.430   7.685  20.913  0.00  0.00    +0.000 C 
ENDROOT
BRANCH   4   7
ATOM      7  C   UNL     1       0.129  10.681  20.568  0.00  0.00    +0.000 C 
ATOM      8  O   UNL     1       0.210  10.450  21.767  0.00  0.00    +0.000 OA
ATOM      9  N   UNL     1      -0.688  11.719  20.061  0.00  0.00    +0.000 N 
ATOM     10  C   UNL     1      -1.323  12.568  21.064  0.00  0.00    +0.000 C 
ATOM     11  C   UNL     1      -2.809  12.842  20.864  0.00  0.00    +0.000 C 
ATOM     12  C   UNL     1      -3.438  12.223  19.656  0.00  0.00    +0.000 A 
ATOM     13  C   UNL     1      -4.834  12.128  19.610  0.00  0.00    +0.000 A 
ATOM     14  C   UNL     1      -5.476  11.692  18.459  0.00  0.00    +0.000 A 
ATOM     15  C   UNL     1      -4.728  11.372  17.333  0.00  0.00    +0.000 A 
ATOM     16  C   UNL     1      -3.330  11.426  17.383  0.00  0.00    +0.000 A 
ATOM     17  C   UNL     1      -2.670  11.823  18.560  0.00  0.00    +0.000 A 
ATOM     18  C   UNL     1      -1.151  11.800  18.646  0.00  0.00    +0.000 C 
ATOM     19  C   UNL     1      -0.536  12.935  17.814  0.00  0.00    +0.000 C 
ENDBRANCH   4   7
BRANCH   1  25
ATOM     20  C   UNL     1       6.031   6.088  16.562  0.00  0.00    +0.000 C 
ATOM     21  C   UNL     1       4.617   6.070  17.065  0.00  0.00    +0.000 A 
ATOM     22  C   UNL     1       3.948   4.848  17.229  0.00  0.00    +0.000 A 
ATOM     23  C   UNL     1       2.683   4.807  17.806  0.00  0.00    +0.000 A 
ATOM     24  C   UNL     1       2.082   5.984  18.246  0.00  0.00    +0.000 A 
ATOM     25  C   UNL     1       2.718   7.219  18.052  0.00  0.00    +0.000 A 
ATOM     26  C   UNL     1       3.982   7.264  17.451  0.00  0.00    +0.000 A 
ENDBRANCH   1  25
TORSDOF 2
ENDMDL
MODEL 4
REMARK VINA RESULT:      -7.7      2.983      4.715
REMARK  Name = 
REMARK  5 active torsions:
REMARK  status: ('A' for Active; 'I' for Inactive)
REMARK    1  A    between atoms: C_1  and  C_2
REMARK    2  A    between atoms: C_6  and  N_7
REMARK    3  A    between atoms: C_10  and  C_11
REMARK    4  A    between atoms: C_22  and  C_23
REMARK    5  A    between atoms: C_24  and  C_25
REMARK                            x       y       z     vdW  Elec       q    Type
REMARK                         _______ _______ _______ _____ _____    ______ ____
ROOT
ATOM      1  N   UNL     1       1.080   9.658  20.344  0.00  0.00    +0.000 N 
ATOM      2  N   UNL     1       1.268  10.018  21.636  0.00  0.00    +0.000 NA
ATOM      3  N   UNL     1       0.797  11.237  21.804  0.00  0.00    +0.000 NA
ATOM      4  C   UNL     1       0.223  11.649  20.633  0.00  0.00    +0.000 A 
ATOM      5  C   UNL     1       0.326  10.624  19.697  0.00  0.00    +0.000 A 
ATOM      6  C   UNL     1      -0.340  10.429  18.387  0.00  0.00    +0.000 C 
ENDROOT
BRANCH   4   7
ATOM      7  C   UNL     1      -0.497  12.920  20.522  0.00  0.00    +0.000 C 
ATOM      8  O   UNL     1      -1.708  12.932  20.351  0.00  0.00    +0.000 OA
ATOM      9  N   UNL     1       0.252  14.115  20.641  0.00  0.00    +0.000 N 
ATOM     10  C   UNL     1      -0.530  15.348  20.674  0.00  0.00    +0.000 C 
ATOM     11  C   UNL     1      -0.042  16.472  19.768  0.00  0.00    +0.000 C 
ATOM     12  C   UNL     1       1.188  16.188  18.965  0.00  0.00    +0.000 A 
ATOM     13  C   UNL     1       1.471  17.012  17.870  0.00  0.00    +0.000 A 
ATOM     14  C   UNL     1       2.666  16.882  17.176  0.00  0.00    +0.000 A 
ATOM     15  C   UNL     1       3.603  15.942  17.590  0.00  0.00    +0.000 A 
ATOM     16  C   UNL     1       3.312  15.087  18.658  0.00  0.00    +0.000 A 
ATOM     17  C   UNL     1       2.083  15.182  19.338  0.00  0.00    +0.000 A 
ATOM     18  C   UNL     1       1.727  14.199  20.443  0.00  0.00    +0.000 C 
ATOM     19  C   UNL     1       2.549  14.475  21.711  0.00  0.00    +0.000 C 
ENDBRANCH   4   7
BRANCH   1  25
ATOM     20  C   UNL     1       1.814   4.760  20.850  0.00  0.00    +0.000 C 
ATOM     21  C   UNL     1       2.008   6.046  20.101  0.00  0.00    +0.000 A 
ATOM     22  C   UNL     1       2.562   6.030  18.812  0.00  0.00    +0.000 A 
ATOM     23  C   UNL     1       2.638   7.197  18.061  0.00  0.00    +0.000 A 
ATOM     24  C   UNL     1       2.140   8.391  18.580  0.00  0.00    +0.000 A 
ATOM     25  C   UNL     1       1.621   8.434  19.881  0.00  0.00    +0.000 A 
ATOM     26  C   UNL     1       1.565   7.264  20.648  0.00  0.00    +0.000 A 
ENDBRANCH   1  25
TORSDOF 2
ENDMDL
MODEL 5
REMARK VINA RESULT:      -7.6      2.944      4.872
REMARK  Name = 
REMARK  5 active torsions:
REMARK  status: ('A' for Active; 'I' for Inactive)
REMARK    1  A    between atoms: C_1  and  C_2
REMARK    2  A    between atoms: C_6  and  N_7
REMARK    3  A    between atoms: C_10  and  C_11
REMARK    4  A    between atoms: C_22  and  C_23
REMARK    5  A    between atoms: C_24  and  C_25
REMARK                            x       y       z     vdW  Elec       q    Type
REMARK                         _______ _______ _______ _____ _____    ______ ____
ROOT
ATOM      1  N   UNL     1       0.913   9.730  20.319  0.00  0.00    +0.000 N 
ATOM      2  N   UNL     1       1.081  10.180  21.585  0.00  0.00    +0.000 NA
ATOM      3  N   UNL     1       0.606  11.407  21.661  0.00  0.00    +0.000 NA
ATOM      4  C   UNL     1       0.048  11.733  20.455  0.00  0.00    +0.000 A 
ATOM      5  C   UNL     1       0.166  10.645  19.595  0.00  0.00    +0.000 A 
ATOM      6  C   UNL     1      -0.481  10.357  18.293  0.00  0.00    +0.000 C 
ENDROOT
BRANCH   4   7
ATOM      7  C   UNL     1      -0.673  12.991  20.244  0.00  0.00    +0.000 C 
ATOM      8  O   UNL     1      -1.862  12.982  19.955  0.00  0.00    +0.000 OA
ATOM      9  N   UNL     1       0.046  14.199  20.409  0.00  0.00    +0.000 N 
ATOM     10  C   UNL     1      -0.751  15.420  20.336  0.00  0.00    +0.000 C 
ATOM     11  C   UNL     1      -0.190  16.532  19.456  0.00  0.00    +0.000 C 
ATOM     12  C   UNL     1       1.117  16.247  18.784  0.00  0.00    +0.000 A 
ATOM     13  C   UNL     1       1.495  17.051  17.703  0.00  0.00    +0.000 A 
ATOM     14  C   UNL     1       2.755  16.923  17.133  0.00  0.00    +0.000 A 
ATOM     15  C   UNL     1       3.657  16.006  17.658  0.00  0.00    +0.000 A 
ATOM     16  C   UNL     1       3.273  15.171  18.713  0.00  0.00    +0.000 A 
ATOM     17  C   UNL     1       1.983  15.263  19.266  0.00  0.00    +0.000 A 
ATOM     18  C   UNL     1       1.532  14.300  20.354  0.00  0.00    +0.000 C 
ATOM     19  C   UNL     1       2.223  14.615  21.689  0.00  0.00    +0.000 C 
ENDBRANCH   4   7
BRANCH   1  25
ATOM     20  C   UNL     1       3.777   6.939  17.354  0.00  0.00    +0.000 C 
ATOM     21  C   UNL     1       2.842   7.083  18.518  0.00  0.00    +0.000 A 
ATOM     22  C   UNL     1       2.649   6.008  19.399  0.00  0.00    +0.000 A 
ATOM     23  C   UNL     1       1.881   6.165  20.548  0.00  0.00    +0.000 A 
ATOM     24  C   UNL     1       1.315   7.405  20.841  0.00  0.00    +0.000 A 
ATOM     25  C   UNL     1       1.462   8.478  19.952  0.00  0.00    +0.000 A 
ATOM     26  C   UNL     1       2.217   8.315  18.783  0.00  0.00    +0.000 A 
ENDBRANCH   1  25
TORSDOF 2
ENDMDL
MODEL 6
REMARK VINA RESULT:      -7.6      1.112      1.228
REMARK  Name = 
REMARK  5 active torsions:
REMARK  status: ('A' for Active; 'I' for Inactive)
REMARK    1  A    between atoms: C_1  and  C_2
REMARK    2  A    between atoms: C_6  and  N_7
REMARK    3  A    between atoms: C_10  and  C_11
REMARK    4  A    between atoms: C_22  and  C_23
REMARK    5  A    between atoms: C_24  and  C_25
REMARK                            x       y       z     vdW  Elec       q    Type
REMARK                         _______ _______ _______ _____ _____    ______ ____
ROOT
ATOM      1  N   UNL     1       1.646   8.439  19.604  0.00  0.00    +0.000 N 
ATOM      2  N   UNL     1       1.912   9.332  18.622  0.00  0.00    +0.000 NA
ATOM      3  N   UNL     1       1.297  10.463  18.905  0.00  0.00    +0.000 NA
ATOM      4  C   UNL     1       0.688  10.334  20.125  0.00  0.00    +0.000 A 
ATOM      5  C   UNL     1       0.958   9.065  20.630  0.00  0.00    +0.000 A 
ATOM      6  C   UNL     1       0.779   8.500  21.988  0.00  0.00    +0.000 C 
ENDROOT
BRANCH   4   7
ATOM      7  C   UNL     1       0.015  11.457  20.782  0.00  0.00    +0.000 C 
ATOM      8  O   UNL     1       0.265  11.732  21.948  0.00  0.00    +0.000 OA
ATOM      9  N   UNL     1      -0.907  12.212  20.018  0.00  0.00    +0.000 N 
ATOM     10  C   UNL     1      -1.436  13.406  20.670  0.00  0.00    +0.000 C 
ATOM     11  C   UNL     1      -2.946  13.599  20.586  0.00  0.00    +0.000 C 
ATOM     12  C   UNL     1      -3.705  12.552  19.832  0.00  0.00    +0.000 A 
ATOM     13  C   UNL     1      -5.089  12.469  20.024  0.00  0.00    +0.000 A 
ATOM     14  C   UNL     1      -5.861  11.614  19.250  0.00  0.00    +0.000 A 
ATOM     15  C   UNL     1      -5.257  10.852  18.257  0.00  0.00    +0.000 A 
ATOM     16  C   UNL     1      -3.869  10.899  18.085  0.00  0.00    +0.000 A 
ATOM     17  C   UNL     1      -3.074  11.729  18.896  0.00  0.00    +0.000 A 
ATOM     18  C   UNL     1      -1.559  11.720  18.771  0.00  0.00    +0.000 C 
ATOM     19  C   UNL     1      -1.109  12.408  17.474  0.00  0.00    +0.000 C 
ENDBRANCH   4   7
BRANCH   1  25
ATOM     20  C   UNL     1       1.762   3.705  21.143  0.00  0.00    +0.000 C 
ATOM     21  C   UNL     1       2.180   4.786  20.190  0.00  0.00    +0.000 A 
ATOM     22  C   UNL     1       2.864   4.454  19.011  0.00  0.00    +0.000 A 
ATOM     23  C   UNL     1       3.151   5.430  18.062  0.00  0.00    +0.000 A 
ATOM     24  C   UNL     1       2.738   6.745  18.270  0.00  0.00    +0.000 A 
ATOM     25  C   UNL     1       2.091   7.102  19.461  0.00  0.00    +0.000 A 
ATOM     26  C   UNL     1       1.822   6.125  20.428  0.00  0.00    +0.000 A 
ENDBRANCH   1  25
TORSDOF 2
ENDMDL
MODEL 7
REMARK VINA RESULT:      -7.6      2.668      4.227
REMARK  Name = 
REMARK  5 active torsions:
REMARK  status: ('A' for Active; 'I' for Inactive)
REMARK    1  A    between atoms: C_1  and  C_2
REMARK    2  A    between atoms: C_6  and  N_7
REMARK    3  A    between atoms: C_10  and  C_11
REMARK    4  A    between atoms: C_22  and  C_23
REMARK    5  A    between atoms: C_24  and  C_25
REMARK                            x       y       z     vdW  Elec       q    Type
REMARK                         _______ _______ _______ _____ _____    ______ ____
ROOT
ATOM      1  N   UNL     1       1.912   8.590  18.738  0.00  0.00    +0.000 N 
ATOM      2  N   UNL     1       2.221   9.237  17.590  0.00  0.00    +0.000 NA
ATOM      3  N   UNL     1       1.455  10.305  17.492  0.00  0.00    +0.000 NA
ATOM      4  C   UNL     1       0.694  10.402  18.625  0.00  0.00    +0.000 A 
ATOM      5  C   UNL     1       1.021   9.351  19.477  0.00  0.00    +0.000 A 
ATOM      6  C   UNL     1       0.709   9.124  20.908  0.00  0.00    +0.000 C 
ENDROOT
BRANCH   4   7
ATOM      7  C   UNL     1      -0.183  11.547  18.879  0.00  0.00    +0.000 C 
ATOM      8  O   UNL     1      -1.365  11.502  18.569  0.00  0.00    +0.000 OA
ATOM      9  N   UNL     1       0.381  12.682  19.510  0.00  0.00    +0.000 N 
ATOM     10  C   UNL     1      -0.564  13.733  19.876  0.00  0.00    +0.000 C 
ATOM     11  C   UNL     1      -0.162  15.154  19.498  0.00  0.00    +0.000 C 
ATOM     12  C   UNL     1       1.160  15.307  18.812  0.00  0.00    +0.000 A 
ATOM     13  C   UNL     1       1.417  16.499  18.126  0.00  0.00    +0.000 A 
ATOM     14  C   UNL     1       2.673  16.751  17.591  0.00  0.00    +0.000 A 
ATOM     15  C   UNL     1       3.692  15.822  17.762  0.00  0.00    +0.000 A 
ATOM     16  C   UNL     1       3.433  14.610  18.412  0.00  0.00    +0.000 A 
ATOM     17  C   UNL     1       2.151  14.327  18.917  0.00  0.00    +0.000 A 
ATOM     18  C   UNL     1       1.841  12.978  19.546  0.00  0.00    +0.000 C 
ATOM     19  C   UNL     1       2.508  12.848  20.924  0.00  0.00    +0.000 C 
ENDBRANCH   4   7
BRANCH   1  25
ATOM     20  C   UNL     1       2.037   4.267  21.206  0.00  0.00    +0.000 C 
ATOM     21  C   UNL     1       2.612   5.222  20.201  0.00  0.00    +0.000 A 
ATOM     22  C   UNL     1       3.649   4.806  19.354  0.00  0.00    +0.000 A 
ATOM     23  C   UNL     1       4.110   5.639  18.339  0.00  0.00    +0.000 A 
ATOM     24  C   UNL     1       3.522   6.888  18.145  0.00  0.00    +0.000 A 
ATOM     25  C   UNL     1       2.513   7.336  19.008  0.00  0.00    +0.000 A 
ATOM     26  C   UNL     1       2.064   6.508  20.045  0.00  0.00    +0.000 A 
ENDBRANCH   1  25
TORSDOF 2
ENDMDL
MODEL 8
REMARK VINA RESULT:      -7.5      6.056      8.056
REMARK  Name = 
REMARK  5 active torsions:
REMARK  status: ('A' for Active; 'I' for Inactive)
REMARK    1  A    between atoms: C_1  and  C_2
REMARK    2  A    between atoms: C_6  and  N_7
REMARK    3  A    between atoms: C_10  and  C_11
REMARK    4  A    between atoms: C_22  and  C_23
REMARK    5  A    between atoms: C_24  and  C_25
REMARK                            x       y       z     vdW  Elec       q    Type
REMARK                         _______ _______ _______ _____ _____    ______ ____
ROOT
ATOM      1  N   UNL     1       6.684   5.172  15.610  0.00  0.00    +0.000 N 
ATOM      2  N   UNL     1       7.386   6.239  16.061  0.00  0.00    +0.000 NA
ATOM      3  N   UNL     1       7.003   6.502  17.294  0.00  0.00    +0.000 NA
ATOM      4  C   UNL     1       6.101   5.550  17.684  0.00  0.00    +0.000 A 
ATOM      5  C   UNL     1       5.932   4.640  16.644  0.00  0.00    +0.000 A 
ATOM      6  C   UNL     1       5.296   3.301  16.616  0.00  0.00    +0.000 C 
ENDROOT
BRANCH   4   7
ATOM      7  C   UNL     1       5.569   5.491  19.048  0.00  0.00    +0.000 C 
ATOM      8  O   UNL     1       6.324   5.346  20.000  0.00  0.00    +0.000 OA
ATOM      9  N   UNL     1       4.171   5.630  19.217  0.00  0.00    +0.000 N 
ATOM     10  C   UNL     1       3.710   5.714  20.600  0.00  0.00    +0.000 C 
ATOM     11  C   UNL     1       2.522   4.831  20.963  0.00  0.00    +0.000 C 
ATOM     12  C   UNL     1       1.958   3.995  19.857  0.00  0.00    +0.000 A 
ATOM     13  C   UNL     1       1.131   2.918  20.196  0.00  0.00    +0.000 A 
ATOM     14  C   UNL     1       0.470   2.196  19.212  0.00  0.00    +0.000 A 
ATOM     15  C   UNL     1       0.611   2.562  17.879  0.00  0.00    +0.000 A 
ATOM     16  C   UNL     1       1.467   3.612  17.528  0.00  0.00    +0.000 A 
ATOM     17  C   UNL     1       2.175   4.319  18.516  0.00  0.00    +0.000 A 
ATOM     18  C   UNL     1       3.173   5.403  18.134  0.00  0.00    +0.000 C 
ATOM     19  C   UNL     1       2.451   6.660  17.627  0.00  0.00    +0.000 C 
ENDBRANCH   4   7
BRANCH   1  25
ATOM     20  C   UNL     1       5.131   2.569  11.661  0.00  0.00    +0.000 C 
ATOM     21  C   UNL     1       6.101   3.508  12.315  0.00  0.00    +0.000 A 
ATOM     22  C   UNL     1       7.060   4.176  11.539  0.00  0.00    +0.000 A 
ATOM     23  C   UNL     1       7.886   5.139  12.111  0.00  0.00    +0.000 A 
ATOM     24  C   UNL     1       7.748   5.460  13.460  0.00  0.00    +0.000 A 
ATOM     25  C   UNL     1       6.823   4.774  14.259  0.00  0.00    +0.000 A 
ATOM     26  C   UNL     1       6.007   3.788  13.690  0.00  0.00    +0.000 A 
ENDBRANCH   1  25
TORSDOF 2
ENDMDL
MODEL 9
REMARK VINA RESULT:      -7.5      3.558      5.238
REMARK  Name = 
REMARK  5 active torsions:
REMARK  status: ('A' for Active; 'I' for Inactive)
REMARK    1  A    between atoms: C_1  and  C_2
REMARK    2  A    between atoms: C_6  and  N_7
REMARK    3  A    between atoms: C_10  and  C_11
REMARK    4  A    between atoms: C_22  and  C_23
REMARK    5  A    between atoms: C_24  and  C_25
REMARK                            x       y       z     vdW  Elec       q    Type
REMARK                         _______ _______ _______ _____ _____    ______ ____
ROOT
ATOM      1  N   UNL     1      -0.080  12.050  21.951  0.00  0.00    +0.000 N 
ATOM      2  N   UNL     1       0.667  13.171  21.808  0.00  0.00    +0.000 NA
ATOM      3  N   UNL     1       0.029  14.174  22.375  0.00  0.00    +0.000 NA
ATOM      4  C   UNL     1      -1.108  13.692  22.965  0.00  0.00    +0.000 A 
ATOM      5  C   UNL     1      -1.165  12.315  22.770  0.00  0.00    +0.000 A 
ATOM      6  C   UNL     1      -2.011  11.276  23.403  0.00  0.00    +0.000 C 
ENDROOT
BRANCH   4   7
ATOM      7  C   UNL     1      -1.982  14.537  23.781  0.00  0.00    +0.000 C 
ATOM      8  O   UNL     1      -1.638  14.881  24.904  0.00  0.00    +0.000 OA
ATOM      9  N   UNL     1      -3.212  14.953  23.217  0.00  0.00    +0.000 N 
ATOM     10  C   UNL     1      -3.975  15.912  24.009  0.00  0.00    +0.000 C 
ATOM     11  C   UNL     1      -5.459  15.607  24.181  0.00  0.00    +0.000 C 
ATOM     12  C   UNL     1      -5.961  14.370  23.505  0.00  0.00    +0.000 A 
ATOM     13  C   UNL     1      -7.192  13.844  23.913  0.00  0.00    +0.000 A 
ATOM     14  C   UNL     1      -7.771  12.784  23.229  0.00  0.00    +0.000 A 
ATOM     15  C   UNL     1      -7.134  12.256  22.112  0.00  0.00    +0.000 A 
ATOM     16  C   UNL     1      -5.885  12.749  21.721  0.00  0.00    +0.000 A 
ATOM     17  C   UNL     1      -5.270  13.793  22.436  0.00  0.00    +0.000 A 
ATOM     18  C   UNL     1      -3.875  14.274  22.068  0.00  0.00    +0.000 C 
ATOM     19  C   UNL     1      -3.896  15.068  20.753  0.00  0.00    +0.000 C 
ENDBRANCH   4   7
BRANCH   1  25
ATOM     20  C   UNL     1       1.445   9.593  17.897  0.00  0.00    +0.000 C 
ATOM     21  C   UNL     1       1.069   9.624  19.350  0.00  0.00    +0.000 A 
ATOM     22  C   UNL     1       1.315   8.506  20.161  0.00  0.00    +0.000 A 
ATOM     23  C   UNL     1       1.084   8.562  21.531  0.00  0.00    +0.000 A 
ATOM     24  C   UNL     1       0.625   9.743  22.110  0.00  0.00    +0.000 A 
ATOM     25  C   UNL     1       0.334  10.857  21.310  0.00  0.00    +0.000 A 
ATOM     26  C   UNL     1       0.545  10.795  19.927  0.00  0.00    +0.000 A 
ENDBRANCH   1  25
TORSDOF 2
ENDMDL
