MODEL 1
REMARK VINA RESULT:      -8.6      0.000      0.000
REMARK  Name = 
REMARK  5 active torsions:
REMARK  status: ('A' for Active; 'I' for Inactive)
REMARK    1  A    between atoms: C_1  and  C_2
REMARK    2  A    between atoms: C_5  and  C_6
REMARK    3  A    between atoms: C_6  and  N_7
REMARK    4  A    between atoms: N_13  and  C_14
REMARK    5  A    between atoms: C_14  and  C_16
REMARK                            x       y       z     vdW  Elec       q    Type
REMARK                         _______ _______ _______ _____ _____    ______ ____
ROOT
ATOM      1  N   UNL     1       2.588   4.575  19.142  0.00  0.00    +0.000 N 
ATOM      2  C   UNL     1       1.381   4.256  19.786  0.00  0.00    +0.000 A 
ATOM      3  C   UNL     1       0.773   3.067  19.698  0.00  0.00    +0.000 A 
ATOM      4  C   UNL     1       1.395   2.018  18.930  0.00  0.00    +0.000 A 
ATOM      5  C   UNL     1       2.546   2.227  18.274  0.00  0.00    +0.000 A 
ATOM      6  C   UNL     1       3.184   3.604  18.299  0.00  0.00    +0.000 A 
ATOM      7  N   UNL     1       4.194   3.625  17.468  0.00  0.00    +0.000 NA
ENDROOT
BRANCH   7   8
ATOM      8  C   UNL     1       4.809   4.776  17.072  0.00  0.00    +0.000 C 
ATOM      9  O   UNL     1       4.432   5.464  16.131  0.00  0.00    +0.000 OA
BRANCH   8  10
ATOM     10  C   UNL     1       6.057   5.088  17.811  0.00  0.00    +0.000 A 
ATOM     11  N   UNL     1       6.662   4.240  18.671  0.00  0.00    +0.000 NA
ATOM     12  N   UNL     1       7.707   4.942  19.144  0.00  0.00    +0.000 N 
ATOM     13  C   UNL     1       7.750   6.241  18.723  0.00  0.00    +0.000 A 
ATOM     14  C   UNL     1       8.557   7.321  19.100  0.00  0.00    +0.000 A 
ATOM     15  C   UNL     1       8.360   8.529  18.423  0.00  0.00    +0.000 A 
ATOM     16  C   UNL     1       7.438   8.629  17.382  0.00  0.00    +0.000 A 
ATOM     17  C   UNL     1       6.630   7.540  17.034  0.00  0.00    +0.000 A 
ATOM     18  C   UNL     1       6.760   6.334  17.752  0.00  0.00    +0.000 A 
ATOM     19  H   UNL     1       8.349   4.480  19.779  0.00  0.00    +0.000 HD
ENDBRANCH   8  10
ENDBRANCH   7   8
BRANCH   1  20
ATOM     20  C   UNL     1       3.312   5.764  19.621  0.00  0.00    +0.000 C 
BRANCH  20  25
ATOM     21  C   UNL     1       0.193  10.568  18.532  0.00  0.00    +0.000 C 
ATOM     22  C   UNL     1       1.071   9.399  18.861  0.00  0.00    +0.000 A 
ATOM     23  C   UNL     1       1.097   8.860  20.151  0.00  0.00    +0.000 A 
ATOM     24  C   UNL     1       1.859   7.723  20.430  0.00  0.00    +0.000 A 
ATOM     25  C   UNL     1       2.596   7.086  19.423  0.00  0.00    +0.000 A 
ATOM     26  C   UNL     1       2.613   7.668  18.144  0.00  0.00    +0.000 A 
ATOM     27  C   UNL     1       1.858   8.811  17.866  0.00  0.00    +0.000 A 
ENDBRANCH  20  25
ENDBRANCH   1  20
TORSDOF 4
ENDMDL
MODEL 2
REMARK VINA RESULT:      -8.1      1.932      5.778
REMARK  Name = 
REMARK  5 active torsions:
REMARK  status: ('A' for Active; 'I' for Inactive)
REMARK    1  A    between atoms: C_1  and  C_2
REMARK    2  A    between atoms: C_5  and  C_6
REMARK    3  A    between atoms: C_6  and  N_7
REMARK    4  A    between atoms: N_13  and  C_14
REMARK    5  A    between atoms: C_14  and  C_16
REMARK                            x       y       z     vdW  Elec       q    Type
REMARK                         _______ _______ _______ _____ _____    ______ ____
ROOT
ATOM      1  N   UNL     1       3.392   4.253  19.247  0.00  0.00    +0.000 N 
ATOM      2  C   UNL     1       3.341   2.973  19.822  0.00  0.00    +0.000 A 
ATOM      3  C   UNL     1       2.345   2.100  19.628  0.00  0.00    +0.000 A 
ATOM      4  C   UNL     1       1.262   2.459  18.748  0.00  0.00    +0.000 A 
ATOM      5  C   UNL     1       1.218   3.662  18.156  0.00  0.00    +0.000 A 
ATOM      6  C   UNL     1       2.302   4.683  18.451  0.00  0.00    +0.000 A 
ATOM      7  N   UNL     1       1.976   5.827  17.906  0.00  0.00    +0.000 NA
ENDROOT
BRANCH   7   8
ATOM      8  C   UNL     1       2.605   6.999  18.201  0.00  0.00    +0.000 C 
ATOM      9  O   UNL     1       3.589   7.417  17.601  0.00  0.00    +0.000 OA
BRANCH   8  10
ATOM     10  C   UNL     1       2.068   7.699  19.393  0.00  0.00    +0.000 A 
ATOM     11  N   UNL     1       2.159   7.228  20.656  0.00  0.00    +0.000 NA
ATOM     12  N   UNL     1       1.502   8.138  21.395  0.00  0.00    +0.000 N 
ATOM     13  C   UNL     1       0.891   9.120  20.668  0.00  0.00    +0.000 A 
ATOM     14  C   UNL     1      -0.001  10.136  21.030  0.00  0.00    +0.000 A 
ATOM     15  C   UNL     1      -0.408  11.014  20.021  0.00  0.00    +0.000 A 
ATOM     16  C   UNL     1       0.101  10.911  18.728  0.00  0.00    +0.000 A 
ATOM     17  C   UNL     1       0.980   9.877  18.385  0.00  0.00    +0.000 A 
ATOM     18  C   UNL     1       1.346   8.936  19.367  0.00  0.00    +0.000 A 
ATOM     19  H   UNL     1       1.485   8.018  22.402  0.00  0.00    +0.000 HD
ENDBRANCH   8  10
ENDBRANCH   7   8
BRANCH   1  20
ATOM     20  C   UNL     1       4.696   4.938  19.247  0.00  0.00    +0.000 C 
BRANCH  20  25
ATOM     21  C   UNL     1       7.241   4.862  14.001  0.00  0.00    +0.000 C 
ATOM     22  C   UNL     1       6.672   4.819  15.387  0.00  0.00    +0.000 A 
ATOM     23  C   UNL     1       7.178   5.643  16.397  0.00  0.00    +0.000 A 
ATOM     24  C   UNL     1       6.592   5.653  17.666  0.00  0.00    +0.000 A 
ATOM     25  C   UNL     1       5.474   4.855  17.947  0.00  0.00    +0.000 A 
ATOM     26  C   UNL     1       5.008   3.987  16.945  0.00  0.00    +0.000 A 
ATOM     27  C   UNL     1       5.601   3.970  15.679  0.00  0.00    +0.000 A 
ENDBRANCH  20  25
ENDBRANCH   1  20
TORSDOF 4
ENDMDL
MODEL 3
REMARK VINA RESULT:      -8.1      1.908      3.057
REMARK  Name = 
REMARK  5 active torsions:
REMARK  status: ('A' for Active; 'I' for Inactive)
REMARK    1  A    between atoms: C_1  and  C_2
REMARK    2  A    between atoms: C_5  and  C_6
REMARK    3  A    between atoms: C_6  and  N_7
REMARK    4  A    between atoms: N_13  and  C_14
REMARK    5  A    between atoms: C_14  and  C_16
REMARK                            x       y       z     vdW  Elec       q    Type
REMARK                         _______ _______ _______ _____ _____    ______ ____
ROOT
ATOM      1  N   UNL     1       2.909   4.522  19.317  0.00  0.00    +0.000 N 
ATOM      2  C   UNL     1       1.560   4.176  19.139  0.00  0.00    +0.000 A 
ATOM      3  C   UNL     1       1.136   2.954  18.791  0.00  0.00    +0.000 A 
ATOM      4  C   UNL     1       2.105   1.901  18.618  0.00  0.00    +0.000 A 
ATOM      5  C   UNL     1       3.417   2.134  18.761  0.00  0.00    +0.000 A 
ATOM      6  C   UNL     1       3.900   3.541  19.064  0.00  0.00    +0.000 A 
ATOM      7  N   UNL     1       5.206   3.572  18.996  0.00  0.00    +0.000 NA
ENDROOT
BRANCH   7   8
ATOM      8  C   UNL     1       5.924   4.731  18.964  0.00  0.00    +0.000 C 
ATOM      9  O   UNL     1       6.502   5.204  19.936  0.00  0.00    +0.000 OA
BRANCH   8  10
ATOM     10  C   UNL     1       5.868   5.450  17.668  0.00  0.00    +0.000 A 
ATOM     11  N   UNL     1       5.701   6.785  17.547  0.00  0.00    +0.000 NA
ATOM     12  N   UNL     1       5.654   6.992  16.220  0.00  0.00    +0.000 N 
ATOM     13  C   UNL     1       5.669   5.849  15.470  0.00  0.00    +0.000 A 
ATOM     14  C   UNL     1       5.477   5.625  14.103  0.00  0.00    +0.000 A 
ATOM     15  C   UNL     1       5.603   4.307  13.651  0.00  0.00    +0.000 A 
ATOM     16  C   UNL     1       5.960   3.278  14.521  0.00  0.00    +0.000 A 
ATOM     17  C   UNL     1       6.130   3.524  15.889  0.00  0.00    +0.000 A 
ATOM     18  C   UNL     1       5.935   4.831  16.379  0.00  0.00    +0.000 A 
ATOM     19  H   UNL     1       5.585   7.946  15.884  0.00  0.00    +0.000 HD
ENDBRANCH   8  10
ENDBRANCH   7   8
BRANCH   1  20
ATOM     20  C   UNL     1       3.192   5.768  20.049  0.00  0.00    +0.000 C 
BRANCH  20  25
ATOM     21  C   UNL     1       0.593  10.766  18.546  0.00  0.00    +0.000 C 
ATOM     22  C   UNL     1       1.175   9.427  18.885  0.00  0.00    +0.000 A 
ATOM     23  C   UNL     1       1.848   8.672  17.919  0.00  0.00    +0.000 A 
ATOM     24  C   UNL     1       2.456   7.461  18.262  0.00  0.00    +0.000 A 
ATOM     25  C   UNL     1       2.422   6.987  19.580  0.00  0.00    +0.000 A 
ATOM     26  C   UNL     1       1.693   7.722  20.531  0.00  0.00    +0.000 A 
ATOM     27  C   UNL     1       1.078   8.929  20.187  0.00  0.00    +0.000 A 
ENDBRANCH  20  25
ENDBRANCH   1  20
TORSDOF 4
ENDMDL
MODEL 4
REMARK VINA RESULT:      -8.1      1.632      4.922
REMARK  Name = 
REMARK  5 active torsions:
REMARK  status: ('A' for Active; 'I' for Inactive)
REMARK    1  A    between atoms: C_1  and  C_2
REMARK    2  A    between atoms: C_5  and  C_6
REMARK    3  A    between atoms: C_6  and  N_7
REMARK    4  A    between atoms: N_13  and  C_14
REMARK    5  A    between atoms: C_14  and  C_16
REMARK                            x       y       z     vdW  Elec       q    Type
REMARK                         _______ _______ _______ _____ _____    ______ ____
ROOT
ATOM      1  N   UNL     1       4.851   6.310  17.420  0.00  0.00    +0.000 N 
ATOM      2  C   UNL     1       5.540   7.505  17.682  0.00  0.00    +0.000 A 
ATOM      3  C   UNL     1       6.858   7.667  17.510  0.00  0.00    +0.000 A 
ATOM      4  C   UNL     1       7.635   6.571  16.987  0.00  0.00    +0.000 A 
ATOM      5  C   UNL     1       7.067   5.387  16.711  0.00  0.00    +0.000 A 
ATOM      6  C   UNL     1       5.591   5.179  16.996  0.00  0.00    +0.000 A 
ATOM      7  N   UNL     1       5.290   3.919  16.812  0.00  0.00    +0.000 NA
ENDROOT
BRANCH   7   8
ATOM      8  C   UNL     1       4.117   3.364  17.228  0.00  0.00    +0.000 C 
ATOM      9  O   UNL     1       3.137   3.216  16.506  0.00  0.00    +0.000 OA
BRANCH   8  10
ATOM     10  C   UNL     1       4.072   3.040  18.674  0.00  0.00    +0.000 A 
ATOM     11  N   UNL     1       5.101   2.501  19.364  0.00  0.00    +0.000 NA
ATOM     12  N   UNL     1       4.611   2.327  20.603  0.00  0.00    +0.000 N 
ATOM     13  C   UNL     1       3.282   2.619  20.730  0.00  0.00    +0.000 A 
ATOM     14  C   UNL     1       2.377   2.425  21.780  0.00  0.00    +0.000 A 
ATOM     15  C   UNL     1       1.072   2.888  21.588  0.00  0.00    +0.000 A 
ATOM     16  C   UNL     1       0.711   3.564  20.423  0.00  0.00    +0.000 A 
ATOM     17  C   UNL     1       1.629   3.732  19.380  0.00  0.00    +0.000 A 
ATOM     18  C   UNL     1       2.930   3.207  19.521  0.00  0.00    +0.000 A 
ATOM     19  H   UNL     1       5.235   1.977  21.323  0.00  0.00    +0.000 HD
ENDBRANCH   8  10
ENDBRANCH   7   8
BRANCH   1  20
ATOM     20  C   UNL     1       3.385   6.392  17.299  0.00  0.00    +0.000 C 
BRANCH  20  25
ATOM     21  C   UNL     1       0.291   9.941  20.739  0.00  0.00    +0.000 C 
ATOM     22  C   UNL     1       1.178   9.068  19.905  0.00  0.00    +0.000 A 
ATOM     23  C   UNL     1       1.715   7.885  20.423  0.00  0.00    +0.000 A 
ATOM     24  C   UNL     1       2.478   7.038  19.616  0.00  0.00    +0.000 A 
ATOM     25  C   UNL     1       2.705   7.342  18.266  0.00  0.00    +0.000 A 
ATOM     26  C   UNL     1       2.212   8.561  17.769  0.00  0.00    +0.000 A 
ATOM     27  C   UNL     1       1.457   9.413  18.579  0.00  0.00    +0.000 A 
ENDBRANCH  20  25
ENDBRANCH   1  20
TORSDOF 4
ENDMDL
MODEL 5
REMARK VINA RESULT:      -8.0      2.504      3.446
REMARK  Name = 
REMARK  5 active torsions:
REMARK  status: ('A' for Active; 'I' for Inactive)
REMARK    1  A    between atoms: C_1  and  C_2
REMARK    2  A    between atoms: C_5  and  C_6
REMARK    3  A    between atoms: C_6  and  N_7
REMARK    4  A    between atoms: N_13  and  C_14
REMARK    5  A    between atoms: C_14  and  C_16
REMARK                            x       y       z     vdW  Elec       q    Type
REMARK                         _______ _______ _______ _____ _____    ______ ____
ROOT
ATOM      1  N   UNL     1       2.686   4.776  18.738  0.00  0.00    +0.000 N 
ATOM      2  C   UNL     1       1.568   4.310  19.448  0.00  0.00    +0.000 A 
ATOM      3  C   UNL     1       1.083   3.065  19.354  0.00  0.00    +0.000 A 
ATOM      4  C   UNL     1       1.756   2.114  18.505  0.00  0.00    +0.000 A 
ATOM      5  C   UNL     1       2.829   2.467  17.782  0.00  0.00    +0.000 A 
ATOM      6  C   UNL     1       3.320   3.903  17.820  0.00  0.00    +0.000 A 
ATOM      7  N   UNL     1       4.261   4.060  16.924  0.00  0.00    +0.000 NA
ENDROOT
BRANCH   7   8
ATOM      8  C   UNL     1       4.723   5.282  16.534  0.00  0.00    +0.000 C 
ATOM      9  O   UNL     1       4.156   6.339  16.787  0.00  0.00    +0.000 OA
BRANCH   8  10
ATOM     10  C   UNL     1       5.930   5.234  15.675  0.00  0.00    +0.000 A 
ATOM     11  N   UNL     1       7.087   5.874  15.953  0.00  0.00    +0.000 NA
ATOM     12  N   UNL     1       7.874   5.605  14.898  0.00  0.00    +0.000 N 
ATOM     13  C   UNL     1       7.254   4.917  13.893  0.00  0.00    +0.000 A 
ATOM     14  C   UNL     1       7.660   4.590  12.594  0.00  0.00    +0.000 A 
ATOM     15  C   UNL     1       6.777   3.823  11.827  0.00  0.00    +0.000 A 
ATOM     16  C   UNL     1       5.574   3.361  12.359  0.00  0.00    +0.000 A 
ATOM     17  C   UNL     1       5.183   3.715  13.655  0.00  0.00    +0.000 A 
ATOM     18  C   UNL     1       6.022   4.549  14.421  0.00  0.00    +0.000 A 
ATOM     19  H   UNL     1       8.830   5.945  14.911  0.00  0.00    +0.000 HD
ENDBRANCH   8  10
ENDBRANCH   7   8
BRANCH   1  20
ATOM     20  C   UNL     1       3.314   6.020  19.215  0.00  0.00    +0.000 C 
BRANCH  20  25
ATOM     21  C   UNL     1       0.112  10.805  20.138  0.00  0.00    +0.000 C 
ATOM     22  C   UNL     1       0.846   9.529  19.851  0.00  0.00    +0.000 A 
ATOM     23  C   UNL     1       1.353   9.264  18.576  0.00  0.00    +0.000 A 
ATOM     24  C   UNL     1       2.102   8.109  18.336  0.00  0.00    +0.000 A 
ATOM     25  C   UNL     1       2.379   7.203  19.370  0.00  0.00    +0.000 A 
ATOM     26  C   UNL     1       1.815   7.448  20.634  0.00  0.00    +0.000 A 
ATOM     27  C   UNL     1       1.058   8.598  20.871  0.00  0.00    +0.000 A 
ENDBRANCH  20  25
ENDBRANCH   1  20
TORSDOF 4
ENDMDL
MODEL 6
REMARK VINA RESULT:      -8.0      0.764      1.210
REMARK  Name = 
REMARK  5 active torsions:
REMARK  status: ('A' for Active; 'I' for Inactive)
REMARK    1  A    between atoms: C_1  and  C_2
REMARK    2  A    between atoms: C_5  and  C_6
REMARK    3  A    between atoms: C_6  and  N_7
REMARK    4  A    between atoms: N_13  and  C_14
REMARK    5  A    between atoms: C_14  and  C_16
REMARK                            x       y       z     vdW  Elec       q    Type
REMARK                         _______ _______ _______ _____ _____    ______ ____
ROOT
ATOM      1  N   UNL     1       2.644   4.994  19.464  0.00  0.00    +0.000 N 
ATOM      2  C   UNL     1       1.428   4.939  20.163  0.00  0.00    +0.000 A 
ATOM      3  C   UNL     1       0.877   3.810  20.626  0.00  0.00    +0.000 A 
ATOM      4  C   UNL     1       1.576   2.563  20.440  0.00  0.00    +0.000 A 
ATOM      5  C   UNL     1       2.742   2.513  19.780  0.00  0.00    +0.000 A 
ATOM      6  C   UNL     1       3.317   3.781  19.175  0.00  0.00    +0.000 A 
ATOM      7  N   UNL     1       4.358   3.476  18.444  0.00  0.00    +0.000 NA
ENDROOT
BRANCH   7   8
ATOM      8  C   UNL     1       4.937   4.348  17.571  0.00  0.00    +0.000 C 
ATOM      9  O   UNL     1       4.503   4.582  16.449  0.00  0.00    +0.000 OA
BRANCH   8  10
ATOM     10  C   UNL     1       6.217   4.929  18.045  0.00  0.00    +0.000 A 
ATOM     11  N   UNL     1       7.105   4.275  18.826  0.00  0.00    +0.000 NA
ATOM     12  N   UNL     1       8.072   5.181  19.053  0.00  0.00    +0.000 N 
ATOM     13  C   UNL     1       7.808   6.425  18.555  0.00  0.00    +0.000 A 
ATOM     14  C   UNL     1       8.460   7.653  18.710  0.00  0.00    +0.000 A 
ATOM     15  C   UNL     1       7.935   8.745  18.011  0.00  0.00    +0.000 A 
ATOM     16  C   UNL     1       6.844   8.596  17.156  0.00  0.00    +0.000 A 
ATOM     17  C   UNL     1       6.197   7.361  17.030  0.00  0.00    +0.000 A 
ATOM     18  C   UNL     1       6.664   6.264  17.782  0.00  0.00    +0.000 A 
ATOM     19  H   UNL     1       8.886   4.891  19.584  0.00  0.00    +0.000 HD
ENDBRANCH   8  10
ENDBRANCH   7   8
BRANCH   1  20
ATOM     20  C   UNL     1       3.295   6.311  19.351  0.00  0.00    +0.000 C 
BRANCH  20  25
ATOM     21  C   UNL     1       0.051  11.147  19.054  0.00  0.00    +0.000 C 
ATOM     22  C   UNL     1       0.799   9.848  19.085  0.00  0.00    +0.000 A 
ATOM     23  C   UNL     1       1.392   9.333  17.929  0.00  0.00    +0.000 A 
ATOM     24  C   UNL     1       2.153   8.162  17.982  0.00  0.00    +0.000 A 
ATOM     25  C   UNL     1       2.355   7.490  19.196  0.00  0.00    +0.000 A 
ATOM     26  C   UNL     1       1.706   7.982  20.342  0.00  0.00    +0.000 A 
ATOM     27  C   UNL     1       0.938   9.148  20.287  0.00  0.00    +0.000 A 
ENDBRANCH  20  25
ENDBRANCH   1  20
TORSDOF 4
ENDMDL
MODEL 7
REMARK VINA RESULT:      -8.0      1.661      5.511
REMARK  Name = 
REMARK  5 active torsions:
REMARK  status: ('A' for Active; 'I' for Inactive)
REMARK    1  A    between atoms: C_1  and  C_2
REMARK    2  A    between atoms: C_5  and  C_6
REMARK    3  A    between atoms: C_6  and  N_7
REMARK    4  A    between atoms: N_13  and  C_14
REMARK    5  A    between atoms: C_14  and  C_16
REMARK                            x       y       z     vdW  Elec       q    Type
REMARK                         _______ _______ _______ _____ _____    ______ ____
ROOT
ATOM      1  N   UNL     1       6.254   4.359  16.743  0.00  0.00    +0.000 N 
ATOM      2  C   UNL     1       7.215   4.407  15.721  0.00  0.00    +0.000 A 
ATOM      3  C   UNL     1       6.929   4.335  14.415  0.00  0.00    +0.000 A 
ATOM      4  C   UNL     1       5.551   4.238  14.005  0.00  0.00    +0.000 A 
ATOM      5  C   UNL     1       4.560   4.180  14.908  0.00  0.00    +0.000 A 
ATOM      6  C   UNL     1       4.896   4.168  16.388  0.00  0.00    +0.000 A 
ATOM      7  N   UNL     1       3.805   3.941  17.075  0.00  0.00    +0.000 NA
ENDROOT
BRANCH   7   8
ATOM      8  C   UNL     1       3.811   3.618  18.399  0.00  0.00    +0.000 C 
ATOM      9  O   UNL     1       4.187   2.537  18.837  0.00  0.00    +0.000 OA
BRANCH   8  10
ATOM     10  C   UNL     1       3.221   4.652  19.284  0.00  0.00    +0.000 A 
ATOM     11  N   UNL     1       2.775   4.414  20.537  0.00  0.00    +0.000 NA
ATOM     12  N   UNL     1       2.281   5.597  20.940  0.00  0.00    +0.000 N 
ATOM     13  C   UNL     1       2.280   6.566  19.976  0.00  0.00    +0.000 A 
ATOM     14  C   UNL     1       1.721   7.848  19.938  0.00  0.00    +0.000 A 
ATOM     15  C   UNL     1       1.948   8.607  18.786  0.00  0.00    +0.000 A 
ATOM     16  C   UNL     1       2.745   8.123  17.750  0.00  0.00    +0.000 A 
ATOM     17  C   UNL     1       3.280   6.830  17.803  0.00  0.00    +0.000 A 
ATOM     18  C   UNL     1       3.002   6.020  18.922  0.00  0.00    +0.000 A 
ATOM     19  H   UNL     1       1.932   5.675  21.889  0.00  0.00    +0.000 HD
ENDBRANCH   8  10
ENDBRANCH   7   8
BRANCH   1  20
ATOM     20  C   UNL     1       6.670   4.818  18.079  0.00  0.00    +0.000 C 
BRANCH  20  25
ATOM     21  C   UNL     1       8.927  10.194  18.160  0.00  0.00    +0.000 C 
ATOM     22  C   UNL     1       8.260   8.852  18.198  0.00  0.00    +0.000 A 
ATOM     23  C   UNL     1       7.200   8.552  17.336  0.00  0.00    +0.000 A 
ATOM     24  C   UNL     1       6.635   7.274  17.324  0.00  0.00    +0.000 A 
ATOM     25  C   UNL     1       7.129   6.262  18.157  0.00  0.00    +0.000 A 
ATOM     26  C   UNL     1       8.155   6.588  19.061  0.00  0.00    +0.000 A 
ATOM     27  C   UNL     1       8.713   7.868  19.080  0.00  0.00    +0.000 A 
ENDBRANCH  20  25
ENDBRANCH   1  20
TORSDOF 4
ENDMDL
MODEL 8
REMARK VINA RESULT:      -7.8      1.188      1.248
REMARK  Name = 
REMARK  5 active torsions:
REMARK  status: ('A' for Active; 'I' for Inactive)
REMARK    1  A    between atoms: C_1  and  C_2
REMARK    2  A    between atoms: C_5  and  C_6
REMARK    3  A    between atoms: C_6  and  N_7
REMARK    4  A    between atoms: N_13  and  C_14
REMARK    5  A    between atoms: C_14  and  C_16
REMARK                            x       y       z     vdW  Elec       q    Type
REMARK                         _______ _______ _______ _____ _____    ______ ____
ROOT
ATOM      1  N   UNL     1       2.631   4.612  18.934  0.00  0.00    +0.000 N 
ATOM      2  C   UNL     1       1.275   4.413  19.242  0.00  0.00    +0.000 A 
ATOM      3  C   UNL     1       0.830   3.523  20.137  0.00  0.00    +0.000 A 
ATOM      4  C   UNL     1       1.785   2.732  20.872  0.00  0.00    +0.000 A 
ATOM      5  C   UNL     1       3.102   2.846  20.645  0.00  0.00    +0.000 A 
ATOM      6  C   UNL     1       3.597   3.789  19.564  0.00  0.00    +0.000 A 
ATOM      7  N   UNL     1       4.885   3.620  19.402  0.00  0.00    +0.000 NA
ENDROOT
BRANCH   7   8
ATOM      8  C   UNL     1       5.575   4.126  18.341  0.00  0.00    +0.000 C 
ATOM      9  O   UNL     1       5.339   3.841  17.173  0.00  0.00    +0.000 OA
BRANCH   8  10
ATOM     10  C   UNL     1       6.726   4.984  18.714  0.00  0.00    +0.000 A 
ATOM     11  N   UNL     1       7.625   4.674  19.674  0.00  0.00    +0.000 NA
ATOM     12  N   UNL     1       8.445   5.739  19.713  0.00  0.00    +0.000 N 
ATOM     13  C   UNL     1       8.062   6.775  18.909  0.00  0.00    +0.000 A 
ATOM     14  C   UNL     1       8.535   8.086  18.783  0.00  0.00    +0.000 A 
ATOM     15  C   UNL     1       7.930   8.889  17.811  0.00  0.00    +0.000 A 
ATOM     16  C   UNL     1       6.940   8.382  16.971  0.00  0.00    +0.000 A 
ATOM     17  C   UNL     1       6.472   7.072  17.126  0.00  0.00    +0.000 A 
ATOM     18  C   UNL     1       7.015   6.267  18.148  0.00  0.00    +0.000 A 
ATOM     19  H   UNL     1       9.245   5.707  20.336  0.00  0.00    +0.000 HD
ENDBRANCH   8  10
ENDBRANCH   7   8
BRANCH   1  20
ATOM     20  C   UNL     1       2.984   5.854  18.227  0.00  0.00    +0.000 C 
BRANCH  20  25
ATOM     21  C   UNL     1       0.229  10.605  20.187  0.00  0.00    +0.000 C 
ATOM     22  C   UNL     1       1.032   9.426  19.726  0.00  0.00    +0.000 A 
ATOM     23  C   UNL     1       1.395   8.412  20.617  0.00  0.00    +0.000 A 
ATOM     24  C   UNL     1       2.077   7.279  20.164  0.00  0.00    +0.000 A 
ATOM     25  C   UNL     1       2.392   7.124  18.807  0.00  0.00    +0.000 A 
ATOM     26  C   UNL     1       2.076   8.175  17.928  0.00  0.00    +0.000 A 
ATOM     27  C   UNL     1       1.403   9.312  18.383  0.00  0.00    +0.000 A 
ENDBRANCH  20  25
ENDBRANCH   1  20
TORSDOF 4
ENDMDL
MODEL 9
REMARK VINA RESULT:      -7.8      2.031      5.946
REMARK  Name = 
REMARK  5 active torsions:
REMARK  status: ('A' for Active; 'I' for Inactive)
REMARK    1  A    between atoms: C_1  and  C_2
REMARK    2  A    between atoms: C_5  and  C_6
REMARK    3  A    between atoms: C_6  and  N_7
REMARK    4  A    between atoms: N_13  and  C_14
REMARK    5  A    between atoms: C_14  and  C_16
REMARK                            x       y       z     vdW  Elec       q    Type
REMARK                         _______ _______ _______ _____ _____    ______ ____
ROOT
ATOM      1  N   UNL     1       3.879   4.168  18.637  0.00  0.00    +0.000 N 
ATOM      2  C   UNL     1       4.095   2.847  19.061  0.00  0.00    +0.000 A 
ATOM      3  C   UNL     1       3.156   1.892  19.058  0.00  0.00    +0.000 A 
ATOM      4  C   UNL     1       1.841   2.206  18.558  0.00  0.00    +0.000 A 
ATOM      5  C   UNL     1       1.536   3.442  18.136  0.00  0.00    +0.000 A 
ATOM      6  C   UNL     1       2.575   4.544  18.227  0.00  0.00    +0.000 A 
ATOM      7  N   UNL     1       2.018   5.688  17.922  0.00  0.00    +0.000 NA
ENDROOT
BRANCH   7   8
ATOM      8  C   UNL     1       2.612   6.892  18.156  0.00  0.00    +0.000 C 
ATOM      9  O   UNL     1       3.541   7.337  17.491  0.00  0.00    +0.000 OA
BRANCH   8  10
ATOM     10  C   UNL     1       2.115   7.596  19.363  0.00  0.00    +0.000 A 
ATOM     11  N   UNL     1       2.204   7.106  20.619  0.00  0.00    +0.000 NA
ATOM     12  N   UNL     1       1.589   8.030  21.376  0.00  0.00    +0.000 N 
ATOM     13  C   UNL     1       1.005   9.042  20.669  0.00  0.00    +0.000 A 
ATOM     14  C   UNL     1       0.154  10.084  21.054  0.00  0.00    +0.000 A 
ATOM     15  C   UNL     1      -0.234  10.989  20.061  0.00  0.00    +0.000 A 
ATOM     16  C   UNL     1       0.255  10.884  18.760  0.00  0.00    +0.000 A 
ATOM     17  C   UNL     1       1.093   9.823  18.394  0.00  0.00    +0.000 A 
ATOM     18  C   UNL     1       1.437   8.857  19.361  0.00  0.00    +0.000 A 
ATOM     19  H   UNL     1       1.580   7.899  22.382  0.00  0.00    +0.000 HD
ENDBRANCH   8  10
ENDBRANCH   7   8
BRANCH   1  20
ATOM     20  C   UNL     1       5.070   4.984  18.348  0.00  0.00    +0.000 C 
BRANCH  20  25
ATOM     21  C   UNL     1       7.302   4.362  12.997  0.00  0.00    +0.000 C 
ATOM     22  C   UNL     1       6.677   4.615  14.336  0.00  0.00    +0.000 A 
ATOM     23  C   UNL     1       5.338   4.292  14.576  0.00  0.00    +0.000 A 
ATOM     24  C   UNL     1       4.785   4.459  15.848  0.00  0.00    +0.000 A 
ATOM     25  C   UNL     1       5.562   4.932  16.914  0.00  0.00    +0.000 A 
ATOM     26  C   UNL     1       6.890   5.310  16.651  0.00  0.00    +0.000 A 
ATOM     27  C   UNL     1       7.441   5.152  15.376  0.00  0.00    +0.000 A 
ENDBRANCH  20  25
ENDBRANCH   1  20
TORSDOF 4
ENDMDL
