MODEL 1
REMARK VINA RESULT:      -8.8      0.000      0.000
REMARK  Name = 
REMARK  6 active torsions:
REMARK  status: ('A' for Active; 'I' for Inactive)
REMARK    1  A    between atoms: C_1  and  C_2
REMARK    2  A    between atoms: C_5  and  C_6
REMARK    3  A    between atoms: N_9  and  C_10
REMARK    4  A    between atoms: C_10  and  C_11
REMARK    5  A    between atoms: C_10  and  C_12
REMARK    6  A    between atoms: N_14  and  C_15
REMARK                            x       y       z     vdW  Elec       q    Type
REMARK                         _______ _______ _______ _____ _____    ______ ____
ROOT
ATOM      1  C   UNL     1       6.174   6.841  16.662  0.00  0.00    +0.000 C 
ATOM      2  C   UNL     1       6.700   5.520  16.106  0.00  0.00    +0.000 C 
ENDROOT
BRANCH   1   6
ATOM      3  C   UNL     1       8.408   8.908  18.361  0.00  0.00    +0.000 A 
ATOM      4  N   UNL     1       8.660   7.688  18.960  0.00  0.00    +0.000 NA
ATOM      5  N   UNL     1       7.835   6.804  18.429  0.00  0.00    +0.000 NA
ATOM      6  N   UNL     1       7.113   7.508  17.540  0.00  0.00    +0.000 N 
ATOM      7  N   UNL     1       7.436   8.820  17.430  0.00  0.00    +0.000 NA
BRANCH   3  12
ATOM      8  C   UNL     1      11.536  13.582  19.765  0.00  0.00    +0.000 C 
ATOM      9  C   UNL     1      10.677  12.400  19.425  0.00  0.00    +0.000 A 
ATOM     10  C   UNL     1      10.454  12.053  18.092  0.00  0.00    +0.000 A 
ATOM     11  C   UNL     1       9.693  10.928  17.773  0.00  0.00    +0.000 A 
ATOM     12  C   UNL     1       9.137  10.111  18.767  0.00  0.00    +0.000 A 
ATOM     13  C   UNL     1       9.332  10.477  20.108  0.00  0.00    +0.000 A 
ATOM     14  C   UNL     1      10.101  11.611  20.432  0.00  0.00    +0.000 A 
ENDBRANCH   3  12
ENDBRANCH   1   6
BRANCH   1  15
ATOM     15  C   UNL     1       4.806   6.688  17.320  0.00  0.00    +0.000 C 
ATOM     16  O   UNL     1       3.868   7.330  16.845  0.00  0.00    +0.000 OA
ATOM     17  N   UNL     1       4.688   5.807  18.396  0.00  0.00    +0.000 N 
ATOM     18  H   UNL     1       5.543   5.548  18.872  0.00  0.00    +0.000 HD
BRANCH  17  19
ATOM     19  C   UNL     1       3.453   5.470  19.053  0.00  0.00    +0.000 A 
ATOM     20  C   UNL     1       2.853   6.380  19.938  0.00  0.00    +0.000 A 
ATOM     21  C   UNL     1       1.700   6.053  20.642  0.00  0.00    +0.000 A 
ATOM     22  C   UNL     1       1.112   4.809  20.459  0.00  0.00    +0.000 A 
ATOM     23  C   UNL     1       1.626   3.891  19.566  0.00  0.00    +0.000 A 
ATOM     24  N   UNL     1       0.959   2.733  19.458  0.00  0.00    +0.000 NA
ATOM     25  C   UNL     1       1.417   1.807  18.599  0.00  0.00    +0.000 A 
ATOM     26  C   UNL     1       2.536   1.996  17.812  0.00  0.00    +0.000 A 
ATOM     27  C   UNL     1       3.229   3.202  17.927  0.00  0.00    +0.000 A 
ATOM     28  C   UNL     1       2.801   4.209  18.825  0.00  0.00    +0.000 A 
ENDBRANCH  17  19
ENDBRANCH   1  15
TORSDOF 4
ENDMDL
MODEL 2
REMARK VINA RESULT:      -8.4      1.290      1.490
REMARK  Name = 
REMARK  6 active torsions:
REMARK  status: ('A' for Active; 'I' for Inactive)
REMARK    1  A    between atoms: C_1  and  C_2
REMARK    2  A    between atoms: C_5  and  C_6
REMARK    3  A    between atoms: N_9  and  C_10
REMARK    4  A    between atoms: C_10  and  C_11
REMARK    5  A    between atoms: C_10  and  C_12
REMARK    6  A    between atoms: N_14  and  C_15
REMARK                            x       y       z     vdW  Elec       q    Type
REMARK                         _______ _______ _______ _____ _____    ______ ____
ROOT
ATOM      1  C   UNL     1       7.224   5.428  17.827  0.00  0.00    +0.000 C 
ATOM      2  C   UNL     1       8.431   4.616  18.290  0.00  0.00    +0.000 C 
ENDROOT
BRANCH   1   6
ATOM      3  C   UNL     1       8.133   8.779  18.127  0.00  0.00    +0.000 A 
ATOM      4  N   UNL     1       7.199   8.843  17.112  0.00  0.00    +0.000 NA
ATOM      5  N   UNL     1       6.794   7.610  16.862  0.00  0.00    +0.000 NA
ATOM      6  N   UNL     1       7.493   6.846  17.720  0.00  0.00    +0.000 N 
ATOM      7  N   UNL     1       8.327   7.513  18.554  0.00  0.00    +0.000 NA
BRANCH   3  12
ATOM      8  C   UNL     1      10.965  13.573  19.741  0.00  0.00    +0.000 C 
ATOM      9  C   UNL     1      10.191  12.342  19.369  0.00  0.00    +0.000 A 
ATOM     10  C   UNL     1       9.542  12.267  18.136  0.00  0.00    +0.000 A 
ATOM     11  C   UNL     1       8.860  11.107  17.767  0.00  0.00    +0.000 A 
ATOM     12  C   UNL     1       8.808   9.986  18.608  0.00  0.00    +0.000 A 
ATOM     13  C   UNL     1       9.432  10.072  19.862  0.00  0.00    +0.000 A 
ATOM     14  C   UNL     1      10.121  11.242  20.236  0.00  0.00    +0.000 A 
ENDBRANCH   3  12
ENDBRANCH   1   6
BRANCH   1  15
ATOM     15  C   UNL     1       5.984   5.157  18.674  0.00  0.00    +0.000 C 
ATOM     16  O   UNL     1       6.150   4.639  19.780  0.00  0.00    +0.000 OA
ATOM     17  N   UNL     1       4.743   5.543  18.166  0.00  0.00    +0.000 N 
ATOM     18  H   UNL     1       4.685   5.699  17.168  0.00  0.00    +0.000 HD
BRANCH  17  19
ATOM     19  C   UNL     1       3.498   5.456  18.883  0.00  0.00    +0.000 A 
ATOM     20  C   UNL     1       3.048   6.542  19.650  0.00  0.00    +0.000 A 
ATOM     21  C   UNL     1       1.887   6.461  20.411  0.00  0.00    +0.000 A 
ATOM     22  C   UNL     1       1.141   5.290  20.403  0.00  0.00    +0.000 A 
ATOM     23  C   UNL     1       1.505   4.206  19.630  0.00  0.00    +0.000 A 
ATOM     24  N   UNL     1       0.694   3.140  19.687  0.00  0.00    +0.000 NA
ATOM     25  C   UNL     1       1.002   2.060  18.950  0.00  0.00    +0.000 A 
ATOM     26  C   UNL     1       2.108   1.999  18.126  0.00  0.00    +0.000 A 
ATOM     27  C   UNL     1       2.952   3.110  18.069  0.00  0.00    +0.000 A 
ATOM     28  C   UNL     1       2.685   4.271  18.834  0.00  0.00    +0.000 A 
ENDBRANCH  17  19
ENDBRANCH   1  15
TORSDOF 4
ENDMDL
MODEL 3
REMARK VINA RESULT:      -8.4      6.616      9.487
REMARK  Name = 
REMARK  6 active torsions:
REMARK  status: ('A' for Active; 'I' for Inactive)
REMARK    1  A    between atoms: C_1  and  C_2
REMARK    2  A    between atoms: C_5  and  C_6
REMARK    3  A    between atoms: N_9  and  C_10
REMARK    4  A    between atoms: C_10  and  C_11
REMARK    5  A    between atoms: C_10  and  C_12
REMARK    6  A    between atoms: N_14  and  C_15
REMARK                            x       y       z     vdW  Elec       q    Type
REMARK                         _______ _______ _______ _____ _____    ______ ____
ROOT
ATOM      1  C   UNL     1       0.491  11.849  20.740  0.00  0.00    +0.000 C 
ATOM      2  C   UNL     1       1.626  12.868  20.679  0.00  0.00    +0.000 C 
ENDROOT
BRANCH   1   6
ATOM      3  C   UNL     1       1.473   8.510  20.537  0.00  0.00    +0.000 A 
ATOM      4  N   UNL     1       1.334   8.668  21.902  0.00  0.00    +0.000 NA
ATOM      5  N   UNL     1       0.998   9.926  22.127  0.00  0.00    +0.000 NA
ATOM      6  N   UNL     1       0.952  10.486  20.906  0.00  0.00    +0.000 N 
ATOM      7  N   UNL     1       1.213   9.654  19.869  0.00  0.00    +0.000 NA
BRANCH   3  12
ATOM      8  C   UNL     1       2.950   3.516  17.992  0.00  0.00    +0.000 C 
ATOM      9  C   UNL     1       2.611   4.798  18.693  0.00  0.00    +0.000 A 
ATOM     10  C   UNL     1       2.829   6.023  18.062  0.00  0.00    +0.000 A 
ATOM     11  C   UNL     1       2.474   7.216  18.692  0.00  0.00    +0.000 A 
ATOM     12  C   UNL     1       1.885   7.227  19.964  0.00  0.00    +0.000 A 
ATOM     13  C   UNL     1       1.695   5.998  20.615  0.00  0.00    +0.000 A 
ATOM     14  C   UNL     1       2.053   4.793  19.980  0.00  0.00    +0.000 A 
ENDBRANCH   3  12
ENDBRANCH   1   6
BRANCH   1  15
ATOM     15  C   UNL     1      -0.464  11.974  19.557  0.00  0.00    +0.000 C 
ATOM     16  O   UNL     1      -0.337  12.955  18.822  0.00  0.00    +0.000 OA
ATOM     17  N   UNL     1      -1.398  10.957  19.355  0.00  0.00    +0.000 N 
ATOM     18  H   UNL     1      -1.600  10.358  20.144  0.00  0.00    +0.000 HD
BRANCH  17  19
ATOM     19  C   UNL     1      -2.293  10.873  18.230  0.00  0.00    +0.000 A 
ATOM     20  C   UNL     1      -1.911  10.172  17.076  0.00  0.00    +0.000 A 
ATOM     21  C   UNL     1      -2.723  10.137  15.948  0.00  0.00    +0.000 A 
ATOM     22  C   UNL     1      -3.948  10.790  15.962  0.00  0.00    +0.000 A 
ATOM     23  C   UNL     1      -4.401  11.453  17.084  0.00  0.00    +0.000 A 
ATOM     24  N   UNL     1      -5.609  12.026  16.985  0.00  0.00    +0.000 NA
ATOM     25  C   UNL     1      -6.096  12.682  18.052  0.00  0.00    +0.000 A 
ATOM     26  C   UNL     1      -5.418  12.782  19.251  0.00  0.00    +0.000 A 
ATOM     27  C   UNL     1      -4.160  12.186  19.350  0.00  0.00    +0.000 A 
ATOM     28  C   UNL     1      -3.589  11.494  18.255  0.00  0.00    +0.000 A 
ENDBRANCH  17  19
ENDBRANCH   1  15
TORSDOF 4
ENDMDL
MODEL 4
REMARK VINA RESULT:      -8.4      1.396      1.636
REMARK  Name = 
REMARK  6 active torsions:
REMARK  status: ('A' for Active; 'I' for Inactive)
REMARK    1  A    between atoms: C_1  and  C_2
REMARK    2  A    between atoms: C_5  and  C_6
REMARK    3  A    between atoms: N_9  and  C_10
REMARK    4  A    between atoms: C_10  and  C_11
REMARK    5  A    between atoms: C_10  and  C_12
REMARK    6  A    between atoms: N_14  and  C_15
REMARK                            x       y       z     vdW  Elec       q    Type
REMARK                         _______ _______ _______ _____ _____    ______ ____
ROOT
ATOM      1  C   UNL     1       6.275   6.062  16.444  0.00  0.00    +0.000 C 
ATOM      2  C   UNL     1       7.066   4.875  15.899  0.00  0.00    +0.000 C 
ENDROOT
BRANCH   1   6
ATOM      3  C   UNL     1       8.106   8.569  18.028  0.00  0.00    +0.000 A 
ATOM      4  N   UNL     1       8.474   7.460  18.765  0.00  0.00    +0.000 NA
ATOM      5  N   UNL     1       7.808   6.424  18.288  0.00  0.00    +0.000 NA
ATOM      6  N   UNL     1       7.060   6.933  17.293  0.00  0.00    +0.000 N 
ATOM      7  N   UNL     1       7.215   8.259  17.062  0.00  0.00    +0.000 NA
BRANCH   3  12
ATOM      8  C   UNL     1      10.121  13.779  19.578  0.00  0.00    +0.000 C 
ATOM      9  C   UNL     1       9.636  12.432  19.128  0.00  0.00    +0.000 A 
ATOM     10  C   UNL     1       9.895  11.298  19.899  0.00  0.00    +0.000 A 
ATOM     11  C   UNL     1       9.408  10.051  19.507  0.00  0.00    +0.000 A 
ATOM     12  C   UNL     1       8.643   9.894  18.342  0.00  0.00    +0.000 A 
ATOM     13  C   UNL     1       8.410  11.028  17.548  0.00  0.00    +0.000 A 
ATOM     14  C   UNL     1       8.900  12.287  17.943  0.00  0.00    +0.000 A 
ENDBRANCH   3  12
ENDBRANCH   1   6
BRANCH   1  15
ATOM     15  C   UNL     1       4.982   5.630  17.129  0.00  0.00    +0.000 C 
ATOM     16  O   UNL     1       4.264   4.822  16.537  0.00  0.00    +0.000 OA
ATOM     17  N   UNL     1       4.706   6.144  18.397  0.00  0.00    +0.000 N 
ATOM     18  H   UNL     1       5.201   6.984  18.668  0.00  0.00    +0.000 HD
BRANCH  17  19
ATOM     19  C   UNL     1       3.590   5.755  19.218  0.00  0.00    +0.000 A 
ATOM     20  C   UNL     1       2.533   6.651  19.442  0.00  0.00    +0.000 A 
ATOM     21  C   UNL     1       1.479   6.330  20.290  0.00  0.00    +0.000 A 
ATOM     22  C   UNL     1       1.454   5.092  20.918  0.00  0.00    +0.000 A 
ATOM     23  C   UNL     1       2.438   4.150  20.698  0.00  0.00    +0.000 A 
ATOM     24  N   UNL     1       2.294   2.983  21.341  0.00  0.00    +0.000 NA
ATOM     25  C   UNL     1       3.224   2.030  21.158  0.00  0.00    +0.000 A 
ATOM     26  C   UNL     1       4.315   2.192  20.327  0.00  0.00    +0.000 A 
ATOM     27  C   UNL     1       4.463   3.408  19.659  0.00  0.00    +0.000 A 
ATOM     28  C   UNL     1       3.522   4.453  19.825  0.00  0.00    +0.000 A 
ENDBRANCH  17  19
ENDBRANCH   1  15
TORSDOF 4
ENDMDL
MODEL 5
REMARK VINA RESULT:      -8.2      1.082      2.440
REMARK  Name = 
REMARK  6 active torsions:
REMARK  status: ('A' for Active; 'I' for Inactive)
REMARK    1  A    between atoms: C_1  and  C_2
REMARK    2  A    between atoms: C_5  and  C_6
REMARK    3  A    between atoms: N_9  and  C_10
REMARK    4  A    between atoms: C_10  and  C_11
REMARK    5  A    between atoms: C_10  and  C_12
REMARK    6  A    between atoms: N_14  and  C_15
REMARK                            x       y       z     vdW  Elec       q    Type
REMARK                         _______ _______ _______ _____ _____    ______ ____
ROOT
ATOM      1  C   UNL     1       6.641   5.589  16.424  0.00  0.00    +0.000 C 
ATOM      2  C   UNL     1       7.552   4.401  16.124  0.00  0.00    +0.000 C 
ENDROOT
BRANCH   1   6
ATOM      3  C   UNL     1       8.129   8.294  18.041  0.00  0.00    +0.000 A 
ATOM      4  N   UNL     1       8.336   7.283  18.960  0.00  0.00    +0.000 NA
ATOM      5  N   UNL     1       7.774   6.187  18.482  0.00  0.00    +0.000 NA
ATOM      6  N   UNL     1       7.244   6.566  17.306  0.00  0.00    +0.000 N 
ATOM      7  N   UNL     1       7.449   7.859  16.959  0.00  0.00    +0.000 NA
BRANCH   3  12
ATOM      8  C   UNL     1       9.902  13.647  19.384  0.00  0.00    +0.000 C 
ATOM      9  C   UNL     1       9.477  12.265  18.985  0.00  0.00    +0.000 A 
ATOM     10  C   UNL     1       9.860  11.164  19.750  0.00  0.00    +0.000 A 
ATOM     11  C   UNL     1       9.430   9.881  19.408  0.00  0.00    +0.000 A 
ATOM     12  C   UNL     1       8.599   9.656  18.301  0.00  0.00    +0.000 A 
ATOM     13  C   UNL     1       8.239  10.759  17.511  0.00  0.00    +0.000 A 
ATOM     14  C   UNL     1       8.673  12.053  17.855  0.00  0.00    +0.000 A 
ENDBRANCH   3  12
ENDBRANCH   1   6
BRANCH   1  15
ATOM     15  C   UNL     1       5.268   5.153  16.927  0.00  0.00    +0.000 C 
ATOM     16  O   UNL     1       4.284   5.753  16.492  0.00  0.00    +0.000 OA
ATOM     17  N   UNL     1       5.204   4.082  17.819  0.00  0.00    +0.000 N 
ATOM     18  H   UNL     1       6.054   3.846  18.314  0.00  0.00    +0.000 HD
BRANCH  17  19
ATOM     19  C   UNL     1       3.987   3.484  18.301  0.00  0.00    +0.000 A 
ATOM     20  C   UNL     1       3.656   2.168  17.940  0.00  0.00    +0.000 A 
ATOM     21  C   UNL     1       2.452   1.591  18.329  0.00  0.00    +0.000 A 
ATOM     22  C   UNL     1       1.561   2.318  19.107  0.00  0.00    +0.000 A 
ATOM     23  C   UNL     1       1.852   3.598  19.535  0.00  0.00    +0.000 A 
ATOM     24  N   UNL     1       0.924   4.190  20.300  0.00  0.00    +0.000 NA
ATOM     25  C   UNL     1       1.161   5.435  20.746  0.00  0.00    +0.000 A 
ATOM     26  C   UNL     1       2.321   6.130  20.464  0.00  0.00    +0.000 A 
ATOM     27  C   UNL     1       3.284   5.510  19.667  0.00  0.00    +0.000 A 
ATOM     28  C   UNL     1       3.084   4.204  19.157  0.00  0.00    +0.000 A 
ENDBRANCH  17  19
ENDBRANCH   1  15
TORSDOF 4
ENDMDL
MODEL 6
REMARK VINA RESULT:      -8.1      5.609      8.943
REMARK  Name = 
REMARK  6 active torsions:
REMARK  status: ('A' for Active; 'I' for Inactive)
REMARK    1  A    between atoms: C_1  and  C_2
REMARK    2  A    between atoms: C_5  and  C_6
REMARK    3  A    between atoms: N_9  and  C_10
REMARK    4  A    between atoms: C_10  and  C_11
REMARK    5  A    between atoms: C_10  and  C_12
REMARK    6  A    between atoms: N_14  and  C_15
REMARK                            x       y       z     vdW  Elec       q    Type
REMARK                         _______ _______ _______ _____ _____    ______ ____
ROOT
ATOM      1  C   UNL     1       1.418   9.347  20.176  0.00  0.00    +0.000 C 
ATOM      2  C   UNL     1       0.981   8.744  21.509  0.00  0.00    +0.000 C 
ENDROOT
BRANCH   1   6
ATOM      3  C   UNL     1      -1.272  11.111  18.833  0.00  0.00    +0.000 A 
ATOM      4  N   UNL     1      -0.226  11.976  18.576  0.00  0.00    +0.000 NA
ATOM      5  N   UNL     1       0.871  11.439  19.079  0.00  0.00    +0.000 NA
ATOM      6  N   UNL     1       0.459  10.282  19.627  0.00  0.00    +0.000 N 
ATOM      7  N   UNL     1      -0.860  10.004  19.488  0.00  0.00    +0.000 NA
BRANCH   3  12
ATOM      8  C   UNL     1      -6.797  12.288  17.533  0.00  0.00    +0.000 C 
ATOM      9  C   UNL     1      -5.349  12.025  17.828  0.00  0.00    +0.000 A 
ATOM     10  C   UNL     1      -4.819  12.340  19.079  0.00  0.00    +0.000 A 
ATOM     11  C   UNL     1      -3.484  12.056  19.372  0.00  0.00    +0.000 A 
ATOM     12  C   UNL     1      -2.641  11.443  18.435  0.00  0.00    +0.000 A 
ATOM     13  C   UNL     1      -3.164  11.155  17.164  0.00  0.00    +0.000 A 
ATOM     14  C   UNL     1      -4.510  11.441  16.867  0.00  0.00    +0.000 A 
ENDBRANCH   3  12
ENDBRANCH   1   6
BRANCH   1  15
ATOM     15  C   UNL     1       1.802   8.279  19.157  0.00  0.00    +0.000 C 
ATOM     16  O   UNL     1       1.619   8.534  17.965  0.00  0.00    +0.000 OA
ATOM     17  N   UNL     1       2.371   7.094  19.627  0.00  0.00    +0.000 N 
ATOM     18  H   UNL     1       2.228   6.874  20.604  0.00  0.00    +0.000 HD
BRANCH  17  19
ATOM     19  C   UNL     1       2.885   6.040  18.793  0.00  0.00    +0.000 A 
ATOM     20  C   UNL     1       3.943   6.293  17.906  0.00  0.00    +0.000 A 
ATOM     21  C   UNL     1       4.409   5.314  17.036  0.00  0.00    +0.000 A 
ATOM     22  C   UNL     1       3.834   4.050  17.051  0.00  0.00    +0.000 A 
ATOM     23  C   UNL     1       2.825   3.726  17.935  0.00  0.00    +0.000 A 
ATOM     24  N   UNL     1       2.365   2.468  17.871  0.00  0.00    +0.000 NA
ATOM     25  C   UNL     1       1.384   2.101  18.713  0.00  0.00    +0.000 A 
ATOM     26  C   UNL     1       0.836   2.954  19.650  0.00  0.00    +0.000 A 
ATOM     27  C   UNL     1       1.316   4.263  19.713  0.00  0.00    +0.000 A 
ATOM     28  C   UNL     1       2.339   4.711  18.842  0.00  0.00    +0.000 A 
ENDBRANCH  17  19
ENDBRANCH   1  15
TORSDOF 4
ENDMDL
MODEL 7
REMARK VINA RESULT:      -8.1      6.356      9.064
REMARK  Name = 
REMARK  6 active torsions:
REMARK  status: ('A' for Active; 'I' for Inactive)
REMARK    1  A    between atoms: C_1  and  C_2
REMARK    2  A    between atoms: C_5  and  C_6
REMARK    3  A    between atoms: N_9  and  C_10
REMARK    4  A    between atoms: C_10  and  C_11
REMARK    5  A    between atoms: C_10  and  C_12
REMARK    6  A    between atoms: N_14  and  C_15
REMARK                            x       y       z     vdW  Elec       q    Type
REMARK                         _______ _______ _______ _____ _____    ______ ____
ROOT
ATOM      1  C   UNL     1       0.419  10.697  20.488  0.00  0.00    +0.000 C 
ATOM      2  C   UNL     1       1.387  11.811  20.878  0.00  0.00    +0.000 C 
ENDROOT
BRANCH   1   6
ATOM      3  C   UNL     1       2.002   7.807  19.351  0.00  0.00    +0.000 A 
ATOM      4  N   UNL     1       1.553   7.399  20.592  0.00  0.00    +0.000 NA
ATOM      5  N   UNL     1       0.958   8.431  21.162  0.00  0.00    +0.000 NA
ATOM      6  N   UNL     1       1.070   9.424  20.263  0.00  0.00    +0.000 N 
ATOM      7  N   UNL     1       1.688   9.096  19.102  0.00  0.00    +0.000 NA
BRANCH   3  12
ATOM      8  C   UNL     1       4.991   3.995  16.168  0.00  0.00    +0.000 C 
ATOM      9  C   UNL     1       4.197   5.007  16.939  0.00  0.00    +0.000 A 
ATOM     10  C   UNL     1       3.131   4.600  17.742  0.00  0.00    +0.000 A 
ATOM     11  C   UNL     1       2.417   5.533  18.496  0.00  0.00    +0.000 A 
ATOM     12  C   UNL     1       2.747   6.895  18.482  0.00  0.00    +0.000 A 
ATOM     13  C   UNL     1       3.799   7.311  17.650  0.00  0.00    +0.000 A 
ATOM     14  C   UNL     1       4.519   6.372  16.888  0.00  0.00    +0.000 A 
ENDBRANCH   3  12
ENDBRANCH   1   6
BRANCH   1  15
ATOM     15  C   UNL     1      -0.468  11.086  19.309  0.00  0.00    +0.000 C 
ATOM     16  O   UNL     1      -0.161  12.095  18.672  0.00  0.00    +0.000 OA
ATOM     17  N   UNL     1      -1.550  10.262  18.999  0.00  0.00    +0.000 N 
ATOM     18  H   UNL     1      -1.871   9.635  19.725  0.00  0.00    +0.000 HD
BRANCH  17  19
ATOM     19  C   UNL     1      -2.413  10.429  17.859  0.00  0.00    +0.000 A 
ATOM     20  C   UNL     1      -2.076   9.849  16.627  0.00  0.00    +0.000 A 
ATOM     21  C   UNL     1      -2.851  10.056  15.492  0.00  0.00    +0.000 A 
ATOM     22  C   UNL     1      -3.996  10.837  15.574  0.00  0.00    +0.000 A 
ATOM     23  C   UNL     1      -4.407  11.394  16.769  0.00  0.00    +0.000 A 
ATOM     24  N   UNL     1      -5.540  12.109  16.728  0.00  0.00    +0.000 NA
ATOM     25  C   UNL     1      -5.984  12.669  17.866  0.00  0.00    +0.000 A 
ATOM     26  C   UNL     1      -5.337  12.532  19.078  0.00  0.00    +0.000 A 
ATOM     27  C   UNL     1      -4.157  11.787  19.116  0.00  0.00    +0.000 A 
ATOM     28  C   UNL     1      -3.633  11.186  17.946  0.00  0.00    +0.000 A 
ENDBRANCH  17  19
ENDBRANCH   1  15
TORSDOF 4
ENDMDL
MODEL 8
REMARK VINA RESULT:      -8.0      0.824      2.159
REMARK  Name = 
REMARK  6 active torsions:
REMARK  status: ('A' for Active; 'I' for Inactive)
REMARK    1  A    between atoms: C_1  and  C_2
REMARK    2  A    between atoms: C_5  and  C_6
REMARK    3  A    between atoms: N_9  and  C_10
REMARK    4  A    between atoms: C_10  and  C_11
REMARK    5  A    between atoms: C_10  and  C_12
REMARK    6  A    between atoms: N_14  and  C_15
REMARK                            x       y       z     vdW  Elec       q    Type
REMARK                         _______ _______ _______ _____ _____    ______ ____
ROOT
ATOM      1  C   UNL     1       6.561   6.114  16.283  0.00  0.00    +0.000 C 
ATOM      2  C   UNL     1       7.411   4.980  15.717  0.00  0.00    +0.000 C 
ENDROOT
BRANCH   1   6
ATOM      3  C   UNL     1       8.282   8.453  18.212  0.00  0.00    +0.000 A 
ATOM      4  N   UNL     1       8.436   7.311  18.973  0.00  0.00    +0.000 NA
ATOM      5  N   UNL     1       7.783   6.335  18.366  0.00  0.00    +0.000 NA
ATOM      6  N   UNL     1       7.254   6.912  17.273  0.00  0.00    +0.000 N 
ATOM      7  N   UNL     1       7.546   8.224  17.103  0.00  0.00    +0.000 NA
BRANCH   3  12
ATOM      8  C   UNL     1      10.786  13.471  19.681  0.00  0.00    +0.000 C 
ATOM      9  C   UNL     1      10.087  12.189  19.332  0.00  0.00    +0.000 A 
ATOM     10  C   UNL     1       9.752  11.910  18.007  0.00  0.00    +0.000 A 
ATOM     11  C   UNL     1       9.143  10.699  17.673  0.00  0.00    +0.000 A 
ATOM     12  C   UNL     1       8.857   9.728  18.643  0.00  0.00    +0.000 A 
ATOM     13  C   UNL     1       9.164  10.022  19.981  0.00  0.00    +0.000 A 
ATOM     14  C   UNL     1       9.778  11.242  20.320  0.00  0.00    +0.000 A 
ENDBRANCH   3  12
ENDBRANCH   1   6
BRANCH   1  15
ATOM     15  C   UNL     1       5.214   5.624  16.806  0.00  0.00    +0.000 C 
ATOM     16  O   UNL     1       4.215   6.286  16.521  0.00  0.00    +0.000 OA
ATOM     17  N   UNL     1       5.186   4.439  17.544  0.00  0.00    +0.000 N 
ATOM     18  H   UNL     1       6.062   4.130  17.947  0.00  0.00    +0.000 HD
BRANCH  17  19
ATOM     19  C   UNL     1       3.991   3.789  18.012  0.00  0.00    +0.000 A 
ATOM     20  C   UNL     1       3.641   2.520  17.526  0.00  0.00    +0.000 A 
ATOM     21  C   UNL     1       2.455   1.901  17.905  0.00  0.00    +0.000 A 
ATOM     22  C   UNL     1       1.602   2.537  18.797  0.00  0.00    +0.000 A 
ATOM     23  C   UNL     1       1.915   3.763  19.348  0.00  0.00    +0.000 A 
ATOM     24  N   UNL     1       1.025   4.266  20.214  0.00  0.00    +0.000 NA
ATOM     25  C   UNL     1       1.285   5.456  20.781  0.00  0.00    +0.000 A 
ATOM     26  C   UNL     1       2.433   6.180  20.524  0.00  0.00    +0.000 A 
ATOM     27  C   UNL     1       3.357   5.653  19.621  0.00  0.00    +0.000 A 
ATOM     28  C   UNL     1       3.130   4.410  18.982  0.00  0.00    +0.000 A 
ENDBRANCH  17  19
ENDBRANCH   1  15
TORSDOF 4
ENDMDL
MODEL 9
REMARK VINA RESULT:      -8.0      5.270      8.913
REMARK  Name = 
REMARK  6 active torsions:
REMARK  status: ('A' for Active; 'I' for Inactive)
REMARK    1  A    between atoms: C_1  and  C_2
REMARK    2  A    between atoms: C_5  and  C_6
REMARK    3  A    between atoms: N_9  and  C_10
REMARK    4  A    between atoms: C_10  and  C_11
REMARK    5  A    between atoms: C_10  and  C_12
REMARK    6  A    between atoms: N_14  and  C_15
REMARK                            x       y       z     vdW  Elec       q    Type
REMARK                         _______ _______ _______ _____ _____    ______ ____
ROOT
ATOM      1  C   UNL     1       1.594   8.844  20.481  0.00  0.00    +0.000 C 
ATOM      2  C   UNL     1       1.127   8.876  21.934  0.00  0.00    +0.000 C 
ENDROOT
BRANCH   1   6
ATOM      3  C   UNL     1      -1.055  10.243  18.701  0.00  0.00    +0.000 A 
ATOM      4  N   UNL     1      -0.090  10.148  17.718  0.00  0.00    +0.000 NA
ATOM      5  N   UNL     1       1.004   9.661  18.276  0.00  0.00    +0.000 NA
ATOM      6  N   UNL     1       0.673   9.486  19.567  0.00  0.00    +0.000 N 
ATOM      7  N   UNL     1      -0.603   9.806  19.895  0.00  0.00    +0.000 NA
BRANCH   3  12
ATOM      8  C   UNL     1      -6.192  12.491  17.229  0.00  0.00    +0.000 C 
ATOM      9  C   UNL     1      -4.890  11.881  17.657  0.00  0.00    +0.000 A 
ATOM     10  C   UNL     1      -4.247  10.951  16.840  0.00  0.00    +0.000 A 
ATOM     11  C   UNL     1      -3.014  10.414  17.214  0.00  0.00    +0.000 A 
ATOM     12  C   UNL     1      -2.380  10.793  18.406  0.00  0.00    +0.000 A 
ATOM     13  C   UNL     1      -3.040  11.703  19.245  0.00  0.00    +0.000 A 
ATOM     14  C   UNL     1      -4.284  12.245  18.869  0.00  0.00    +0.000 A 
ENDBRANCH   3  12
ENDBRANCH   1   6
BRANCH   1  15
ATOM     15  C   UNL     1       1.948   7.434  20.018  0.00  0.00    +0.000 C 
ATOM     16  O   UNL     1       1.631   6.495  20.751  0.00  0.00    +0.000 OA
ATOM     17  N   UNL     1       2.574   7.285  18.779  0.00  0.00    +0.000 N 
ATOM     18  H   UNL     1       3.027   8.104  18.394  0.00  0.00    +0.000 HD
BRANCH  17  19
ATOM     19  C   UNL     1       2.874   6.024  18.154  0.00  0.00    +0.000 A 
ATOM     20  C   UNL     1       1.898   5.017  18.092  0.00  0.00    +0.000 A 
ATOM     21  C   UNL     1       2.182   3.765  17.561  0.00  0.00    +0.000 A 
ATOM     22  C   UNL     1       3.451   3.501  17.062  0.00  0.00    +0.000 A 
ATOM     23  C   UNL     1       4.437   4.466  17.049  0.00  0.00    +0.000 A 
ATOM     24  N   UNL     1       5.614   4.101  16.521  0.00  0.00    +0.000 NA
ATOM     25  C   UNL     1       6.607   5.006  16.482  0.00  0.00    +0.000 A 
ATOM     26  C   UNL     1       6.469   6.299  16.948  0.00  0.00    +0.000 A 
ATOM     27  C   UNL     1       5.243   6.675  17.498  0.00  0.00    +0.000 A 
ATOM     28  C   UNL     1       4.165   5.760  17.579  0.00  0.00    +0.000 A 
ENDBRANCH  17  19
ENDBRANCH   1  15
TORSDOF 4
ENDMDL
