MODEL 1
REMARK VINA RESULT:      -9.2      0.000      0.000
REMARK  Name = 
REMARK  7 active torsions:
REMARK  status: ('A' for Active; 'I' for Inactive)
REMARK    1  A    between atoms: C_1  and  C_2
REMARK    2  A    between atoms: C_4  and  C_5
REMARK    3  A    between atoms: C_8  and  C_9
REMARK    4  A    between atoms: C_9  and  N_10
REMARK    5  A    between atoms: N_10  and  C_11
REMARK    6  A    between atoms: C_11  and  C_12
REMARK    7  A    between atoms: C_12  and  C_13
REMARK                            x       y       z     vdW  Elec       q    Type
REMARK                         _______ _______ _______ _____ _____    ______ ____
ROOT
ATOM      1  N   UNL     1       4.237   6.160  18.383  0.00  0.00    +0.000 NA
ATOM      2  H   UNL     1       3.901   5.614  19.183  0.00  0.00    +0.000 HD
ENDROOT
BRANCH   1   3
ATOM      3  C   UNL     1       4.841   5.258  17.360  0.00  0.00    +0.000 C 
ATOM      4  C   UNL     1       6.259   4.826  17.843  0.00  0.00    +0.000 C 
ATOM      5  C   UNL     1       7.259   4.459  16.747  0.00  0.00    +0.000 C 
ATOM      6  O   UNL     1       7.302   5.451  15.730  0.00  0.00    +0.000 OA
ATOM      7  C   UNL     1       6.037   5.619  15.096  0.00  0.00    +0.000 C 
ATOM      8  C   UNL     1       5.023   6.150  16.100  0.00  0.00    +0.000 C 
BRANCH   3   9
ATOM      9  C   UNL     1       3.903   4.001  17.093  0.00  0.00    +0.000 C 
BRANCH   9  10
ATOM     10  C   UNL     1       3.114   3.439  18.271  0.00  0.00    +0.000 A 
ATOM     11  C   UNL     1       1.714   3.521  18.281  0.00  0.00    +0.000 A 
ATOM     12  C   UNL     1       1.013   3.304  19.472  0.00  0.00    +0.000 A 
ATOM     13  C   UNL     1       1.704   2.919  20.612  0.00  0.00    +0.000 A 
ATOM     14  F   UNL     1       1.050   2.823  21.777  0.00  0.00    +0.000 F 
ATOM     15  C   UNL     1       3.067   2.665  20.573  0.00  0.00    +0.000 A 
ATOM     16  C   UNL     1       3.770   2.924  19.399  0.00  0.00    +0.000 A 
ENDBRANCH   9  10
ENDBRANCH   3   9
ENDBRANCH   1   3
BRANCH   1  17
ATOM     17  C   UNL     1       3.172   7.069  17.951  0.00  0.00    +0.000 C 
BRANCH  17  21
ATOM     18  C   UNL     1       1.189   8.423  20.586  0.00  0.00    +0.000 A 
ATOM     19  N   UNL     1       1.415   7.200  21.090  0.00  0.00    +0.000 NA
ATOM     20  O   UNL     1       2.163   6.574  20.098  0.00  0.00    +0.000 OA
ATOM     21  C   UNL     1       2.324   7.492  19.101  0.00  0.00    +0.000 A 
ATOM     22  N   UNL     1       1.729   8.630  19.336  0.00  0.00    +0.000 NA
BRANCH  18  26
ATOM     23  C   UNL     1      -0.026  13.245  20.999  0.00  0.00    +0.000 C 
ATOM     24  C   UNL     1      -0.100  11.834  21.501  0.00  0.00    +0.000 A 
ATOM     25  C   UNL     1       0.550  10.795  20.818  0.00  0.00    +0.000 A 
ATOM     26  C   UNL     1       0.471   9.474  21.291  0.00  0.00    +0.000 A 
ATOM     27  C   UNL     1      -0.259   9.189  22.448  0.00  0.00    +0.000 A 
ATOM     28  C   UNL     1      -0.894  10.224  23.141  0.00  0.00    +0.000 A 
ATOM     29  C   UNL     1      -0.803  11.523  22.654  0.00  0.00    +0.000 A 
ATOM     30  F   UNL     1      -1.420  12.506  23.341  0.00  0.00    +0.000 F 
ENDBRANCH  18  26
ENDBRANCH  17  21
ENDBRANCH   1  17
TORSDOF 6
ENDMDL
MODEL 2
REMARK VINA RESULT:      -9.0      1.530      1.984
REMARK  Name = 
REMARK  7 active torsions:
REMARK  status: ('A' for Active; 'I' for Inactive)
REMARK    1  A    between atoms: C_1  and  C_2
REMARK    2  A    between atoms: C_4  and  C_5
REMARK    3  A    between atoms: C_8  and  C_9
REMARK    4  A    between atoms: C_9  and  N_10
REMARK    5  A    between atoms: N_10  and  C_11
REMARK    6  A    between atoms: C_11  and  C_12
REMARK    7  A    between atoms: C_12  and  C_13
REMARK                            x       y       z     vdW  Elec       q    Type
REMARK                         _______ _______ _______ _____ _____    ______ ____
ROOT
ATOM      1  N   UNL     1       3.591   5.663  17.378  0.00  0.00    +0.000 NA
ATOM      2  H   UNL     1       3.533   6.350  16.619  0.00  0.00    +0.000 HD
ENDROOT
BRANCH   1   3
ATOM      3  C   UNL     1       4.750   4.750  17.159  0.00  0.00    +0.000 C 
ATOM      4  C   UNL     1       5.861   5.088  18.199  0.00  0.00    +0.000 C 
ATOM      5  C   UNL     1       7.294   4.753  17.784  0.00  0.00    +0.000 C 
ATOM      6  O   UNL     1       7.586   5.248  16.484  0.00  0.00    +0.000 OA
ATOM      7  C   UNL     1       6.728   4.688  15.494  0.00  0.00    +0.000 C 
ATOM      8  C   UNL     1       5.292   5.123  15.751  0.00  0.00    +0.000 C 
BRANCH   3   9
ATOM      9  C   UNL     1       4.295   3.228  17.259  0.00  0.00    +0.000 C 
BRANCH   9  10
ATOM     10  C   UNL     1       3.375   2.834  18.409  0.00  0.00    +0.000 A 
ATOM     11  C   UNL     1       2.007   2.632  18.177  0.00  0.00    +0.000 A 
ATOM     12  C   UNL     1       1.118   2.586  19.255  0.00  0.00    +0.000 A 
ATOM     13  C   UNL     1       1.609   2.648  20.551  0.00  0.00    +0.000 A 
ATOM     14  F   UNL     1       0.752   2.720  21.578  0.00  0.00    +0.000 F 
ATOM     15  C   UNL     1       2.974   2.674  20.800  0.00  0.00    +0.000 A 
ATOM     16  C   UNL     1       3.856   2.764  19.726  0.00  0.00    +0.000 A 
ENDBRANCH   9  10
ENDBRANCH   3   9
ENDBRANCH   1   3
BRANCH   1  17
ATOM     17  C   UNL     1       3.508   6.369  18.660  0.00  0.00    +0.000 C 
BRANCH  17  21
ATOM     18  C   UNL     1       1.394   9.240  18.624  0.00  0.00    +0.000 A 
ATOM     19  N   UNL     1       2.021   9.416  17.450  0.00  0.00    +0.000 NA
ATOM     20  O   UNL     1       2.909   8.346  17.393  0.00  0.00    +0.000 OA
ATOM     21  C   UNL     1       2.714   7.624  18.535  0.00  0.00    +0.000 A 
ATOM     22  N   UNL     1       1.819   8.138  19.334  0.00  0.00    +0.000 NA
BRANCH  18  26
ATOM     23  C   UNL     1      -0.714  11.713  22.411  0.00  0.00    +0.000 C 
ATOM     24  C   UNL     1      -0.711  11.285  20.974  0.00  0.00    +0.000 A 
ATOM     25  C   UNL     1       0.327  10.490  20.464  0.00  0.00    +0.000 A 
ATOM     26  C   UNL     1       0.327  10.099  19.115  0.00  0.00    +0.000 A 
ATOM     27  C   UNL     1      -0.710  10.503  18.271  0.00  0.00    +0.000 A 
ATOM     28  C   UNL     1      -1.754  11.282  18.777  0.00  0.00    +0.000 A 
ATOM     29  C   UNL     1      -1.733  11.658  20.116  0.00  0.00    +0.000 A 
ATOM     30  F   UNL     1      -2.753  12.405  20.584  0.00  0.00    +0.000 F 
ENDBRANCH  18  26
ENDBRANCH  17  21
ENDBRANCH   1  17
TORSDOF 6
ENDMDL
MODEL 3
REMARK VINA RESULT:      -8.9      1.205      1.676
REMARK  Name = 
REMARK  7 active torsions:
REMARK  status: ('A' for Active; 'I' for Inactive)
REMARK    1  A    between atoms: C_1  and  C_2
REMARK    2  A    between atoms: C_4  and  C_5
REMARK    3  A    between atoms: C_8  and  C_9
REMARK    4  A    between atoms: C_9  and  N_10
REMARK    5  A    between atoms: N_10  and  C_11
REMARK    6  A    between atoms: C_11  and  C_12
REMARK    7  A    between atoms: C_12  and  C_13
REMARK                            x       y       z     vdW  Elec       q    Type
REMARK                         _______ _______ _______ _____ _____    ______ ____
ROOT
ATOM      1  N   UNL     1       3.955   6.219  18.338  0.00  0.00    +0.000 NA
ATOM      2  H   UNL     1       3.141   5.862  18.850  0.00  0.00    +0.000 HD
ENDROOT
BRANCH   1   3
ATOM      3  C   UNL     1       4.758   5.086  17.793  0.00  0.00    +0.000 C 
ATOM      4  C   UNL     1       6.165   5.097  18.464  0.00  0.00    +0.000 C 
ATOM      5  C   UNL     1       7.302   4.479  17.652  0.00  0.00    +0.000 C 
ATOM      6  O   UNL     1       7.323   4.982  16.322  0.00  0.00    +0.000 OA
ATOM      7  C   UNL     1       6.114   4.696  15.625  0.00  0.00    +0.000 C 
ATOM      8  C   UNL     1       4.952   5.423  16.287  0.00  0.00    +0.000 C 
BRANCH   3   9
ATOM      9  C   UNL     1       4.008   3.701  18.021  0.00  0.00    +0.000 C 
BRANCH   9  10
ATOM     10  C   UNL     1       3.158   3.552  19.278  0.00  0.00    +0.000 A 
ATOM     11  C   UNL     1       3.710   2.982  20.435  0.00  0.00    +0.000 A 
ATOM     12  C   UNL     1       2.870   2.555  21.468  0.00  0.00    +0.000 A 
ATOM     13  C   UNL     1       1.505   2.784  21.379  0.00  0.00    +0.000 A 
ATOM     14  F   UNL     1       0.690   2.274  22.312  0.00  0.00    +0.000 F 
ATOM     15  C   UNL     1       0.965   3.500  20.321  0.00  0.00    +0.000 A 
ATOM     16  C   UNL     1       1.795   3.885  19.272  0.00  0.00    +0.000 A 
ENDBRANCH   9  10
ENDBRANCH   3   9
ENDBRANCH   1   3
BRANCH   1  17
ATOM     17  C   UNL     1       3.508   7.254  17.402  0.00  0.00    +0.000 C 
BRANCH  17  21
ATOM     18  C   UNL     1       1.274   9.323  19.256  0.00  0.00    +0.000 A 
ATOM     19  N   UNL     1       1.188   9.926  18.061  0.00  0.00    +0.000 NA
ATOM     20  O   UNL     1       2.069   9.200  17.267  0.00  0.00    +0.000 OA
ATOM     21  C   UNL     1       2.587   8.220  18.065  0.00  0.00    +0.000 A 
ATOM     22  N   UNL     1       2.154   8.264  19.295  0.00  0.00    +0.000 NA
BRANCH  18  26
ATOM     23  C   UNL     1      -1.113  12.865  21.837  0.00  0.00    +0.000 C 
ATOM     24  C   UNL     1      -0.654  11.445  21.689  0.00  0.00    +0.000 A 
ATOM     25  C   UNL     1       0.069  11.040  20.556  0.00  0.00    +0.000 A 
ATOM     26  C   UNL     1       0.490   9.706  20.421  0.00  0.00    +0.000 A 
ATOM     27  C   UNL     1       0.188   8.774  21.418  0.00  0.00    +0.000 A 
ATOM     28  C   UNL     1      -0.518   9.177  22.555  0.00  0.00    +0.000 A 
ATOM     29  C   UNL     1      -0.925  10.502  22.667  0.00  0.00    +0.000 A 
ATOM     30  F   UNL     1      -1.601  10.869  23.775  0.00  0.00    +0.000 F 
ENDBRANCH  18  26
ENDBRANCH  17  21
ENDBRANCH   1  17
TORSDOF 6
ENDMDL
MODEL 4
REMARK VINA RESULT:      -8.8      2.571      4.277
REMARK  Name = 
REMARK  7 active torsions:
REMARK  status: ('A' for Active; 'I' for Inactive)
REMARK    1  A    between atoms: C_1  and  C_2
REMARK    2  A    between atoms: C_4  and  C_5
REMARK    3  A    between atoms: C_8  and  C_9
REMARK    4  A    between atoms: C_9  and  N_10
REMARK    5  A    between atoms: N_10  and  C_11
REMARK    6  A    between atoms: C_11  and  C_12
REMARK    7  A    between atoms: C_12  and  C_13
REMARK                            x       y       z     vdW  Elec       q    Type
REMARK                         _______ _______ _______ _____ _____    ______ ____
ROOT
ATOM      1  N   UNL     1       3.169   6.100  19.760  0.00  0.00    +0.000 NA
ATOM      2  H   UNL     1       2.661   6.442  20.583  0.00  0.00    +0.000 HD
ENDROOT
BRANCH   1   3
ATOM      3  C   UNL     1       2.951   4.634  19.593  0.00  0.00    +0.000 C 
ATOM      4  C   UNL     1       1.913   4.405  18.453  0.00  0.00    +0.000 C 
ATOM      5  C   UNL     1       1.099   3.114  18.534  0.00  0.00    +0.000 C 
ATOM      6  O   UNL     1       0.544   2.931  19.831  0.00  0.00    +0.000 OA
ATOM      7  C   UNL     1       1.552   2.850  20.835  0.00  0.00    +0.000 C 
ATOM      8  C   UNL     1       2.298   4.173  20.926  0.00  0.00    +0.000 C 
BRANCH   3   9
ATOM      9  C   UNL     1       4.326   3.891  19.293  0.00  0.00    +0.000 C 
BRANCH   9  10
ATOM     10  C   UNL     1       5.114   4.322  18.060  0.00  0.00    +0.000 A 
ATOM     11  C   UNL     1       4.697   3.915  16.784  0.00  0.00    +0.000 A 
ATOM     12  C   UNL     1       5.570   4.033  15.698  0.00  0.00    +0.000 A 
ATOM     13  C   UNL     1       6.807   4.636  15.875  0.00  0.00    +0.000 A 
ATOM     14  F   UNL     1       7.686   4.644  14.865  0.00  0.00    +0.000 F 
ATOM     15  C   UNL     1       7.162   5.198  17.093  0.00  0.00    +0.000 A 
ATOM     16  C   UNL     1       6.312   5.041  18.184  0.00  0.00    +0.000 A 
ENDBRANCH   9  10
ENDBRANCH   3   9
ENDBRANCH   1   3
BRANCH   1  17
ATOM     17  C   UNL     1       2.864   6.971  18.621  0.00  0.00    +0.000 C 
BRANCH  17  21
ATOM     18  C   UNL     1       0.745   9.534  19.907  0.00  0.00    +0.000 A 
ATOM     19  N   UNL     1       0.842   9.950  18.635  0.00  0.00    +0.000 NA
ATOM     20  O   UNL     1       1.695   9.017  18.053  0.00  0.00    +0.000 OA
ATOM     21  C   UNL     1       2.014   8.123  19.035  0.00  0.00    +0.000 A 
ATOM     22  N   UNL     1       1.481   8.405  20.193  0.00  0.00    +0.000 NA
BRANCH  18  26
ATOM     23  C   UNL     1      -2.339  13.245  21.182  0.00  0.00    +0.000 C 
ATOM     24  C   UNL     1      -1.574  12.005  21.537  0.00  0.00    +0.000 A 
ATOM     25  C   UNL     1      -0.796  11.342  20.575  0.00  0.00    +0.000 A 
ATOM     26  C   UNL     1      -0.087  10.178  20.913  0.00  0.00    +0.000 A 
ATOM     27  C   UNL     1      -0.155   9.671  22.214  0.00  0.00    +0.000 A 
ATOM     28  C   UNL     1      -0.916  10.337  23.179  0.00  0.00    +0.000 A 
ATOM     29  C   UNL     1      -1.610  11.488  22.821  0.00  0.00    +0.000 A 
ATOM     30  F   UNL     1      -2.334  12.116  23.770  0.00  0.00    +0.000 F 
ENDBRANCH  18  26
ENDBRANCH  17  21
ENDBRANCH   1  17
TORSDOF 6
ENDMDL
MODEL 5
REMARK VINA RESULT:      -8.8      1.158      1.826
REMARK  Name = 
REMARK  7 active torsions:
REMARK  status: ('A' for Active; 'I' for Inactive)
REMARK    1  A    between atoms: C_1  and  C_2
REMARK    2  A    between atoms: C_4  and  C_5
REMARK    3  A    between atoms: C_8  and  C_9
REMARK    4  A    between atoms: C_9  and  N_10
REMARK    5  A    between atoms: N_10  and  C_11
REMARK    6  A    between atoms: C_11  and  C_12
REMARK    7  A    between atoms: C_12  and  C_13
REMARK                            x       y       z     vdW  Elec       q    Type
REMARK                         _______ _______ _______ _____ _____    ______ ____
ROOT
ATOM      1  N   UNL     1       4.347   6.587  18.107  0.00  0.00    +0.000 NA
ATOM      2  H   UNL     1       3.932   6.261  18.987  0.00  0.00    +0.000 HD
ENDROOT
BRANCH   1   3
ATOM      3  C   UNL     1       4.921   5.437  17.350  0.00  0.00    +0.000 C 
ATOM      4  C   UNL     1       6.328   5.103  17.931  0.00  0.00    +0.000 C 
ATOM      5  C   UNL     1       7.313   4.440  16.969  0.00  0.00    +0.000 C 
ATOM      6  O   UNL     1       7.378   5.137  15.731  0.00  0.00    +0.000 OA
ATOM      7  C   UNL     1       6.115   5.173  15.072  0.00  0.00    +0.000 C 
ATOM      8  C   UNL     1       5.122   5.971  15.904  0.00  0.00    +0.000 C 
BRANCH   3   9
ATOM      9  C   UNL     1       3.947   4.180  17.411  0.00  0.00    +0.000 C 
BRANCH   9  10
ATOM     10  C   UNL     1       3.148   3.960  18.692  0.00  0.00    +0.000 A 
ATOM     11  C   UNL     1       3.764   3.384  19.813  0.00  0.00    +0.000 A 
ATOM     12  C   UNL     1       2.981   2.894  20.862  0.00  0.00    +0.000 A 
ATOM     13  C   UNL     1       1.604   3.064  20.825  0.00  0.00    +0.000 A 
ATOM     14  F   UNL     1       0.845   2.495  21.770  0.00  0.00    +0.000 F 
ATOM     15  C   UNL     1       0.997   3.784  19.806  0.00  0.00    +0.000 A 
ATOM     16  C   UNL     1       1.773   4.233  18.741  0.00  0.00    +0.000 A 
ENDBRANCH   9  10
ENDBRANCH   3   9
ENDBRANCH   1   3
BRANCH   1  17
ATOM     17  C   UNL     1       3.380   7.445  17.418  0.00  0.00    +0.000 C 
BRANCH  17  21
ATOM     18  C   UNL     1       1.059   9.185  19.492  0.00  0.00    +0.000 A 
ATOM     19  N   UNL     1       1.503   8.278  20.375  0.00  0.00    +0.000 NA
ATOM     20  O   UNL     1       2.401   7.516  19.634  0.00  0.00    +0.000 OA
ATOM     21  C   UNL     1       2.417   8.054  18.379  0.00  0.00    +0.000 A 
ATOM     22  N   UNL     1       1.598   9.059  18.230  0.00  0.00    +0.000 NA
BRANCH  18  26
ATOM     23  C   UNL     1      -1.417  11.807  22.940  0.00  0.00    +0.000 C 
ATOM     24  C   UNL     1      -1.107  11.508  21.505  0.00  0.00    +0.000 A 
ATOM     25  C   UNL     1      -0.173  10.517  21.164  0.00  0.00    +0.000 A 
ATOM     26  C   UNL     1       0.118  10.247  19.817  0.00  0.00    +0.000 A 
ATOM     27  C   UNL     1      -0.524  10.967  18.805  0.00  0.00    +0.000 A 
ATOM     28  C   UNL     1      -1.466  11.944  19.140  0.00  0.00    +0.000 A 
ATOM     29  C   UNL     1      -1.737  12.195  20.480  0.00  0.00    +0.000 A 
ATOM     30  F   UNL     1      -2.654  13.138  20.779  0.00  0.00    +0.000 F 
ENDBRANCH  18  26
ENDBRANCH  17  21
ENDBRANCH   1  17
TORSDOF 6
ENDMDL
MODEL 6
REMARK VINA RESULT:      -8.8      2.570      4.213
REMARK  Name = 
REMARK  7 active torsions:
REMARK  status: ('A' for Active; 'I' for Inactive)
REMARK    1  A    between atoms: C_1  and  C_2
REMARK    2  A    between atoms: C_4  and  C_5
REMARK    3  A    between atoms: C_8  and  C_9
REMARK    4  A    between atoms: C_9  and  N_10
REMARK    5  A    between atoms: N_10  and  C_11
REMARK    6  A    between atoms: C_11  and  C_12
REMARK    7  A    between atoms: C_12  and  C_13
REMARK                            x       y       z     vdW  Elec       q    Type
REMARK                         _______ _______ _______ _____ _____    ______ ____
ROOT
ATOM      1  N   UNL     1       3.302   5.884  18.601  0.00  0.00    +0.000 NA
ATOM      2  H   UNL     1       4.124   6.495  18.556  0.00  0.00    +0.000 HD
ENDROOT
BRANCH   1   3
ATOM      3  C   UNL     1       3.663   4.499  18.181  0.00  0.00    +0.000 C 
ATOM      4  C   UNL     1       2.389   3.791  17.629  0.00  0.00    +0.000 C 
ATOM      5  C   UNL     1       2.366   2.267  17.738  0.00  0.00    +0.000 C 
ATOM      6  O   UNL     1       2.713   1.836  19.049  0.00  0.00    +0.000 OA
ATOM      7  C   UNL     1       4.022   2.258  19.420  0.00  0.00    +0.000 C 
ATOM      8  C   UNL     1       4.073   3.777  19.496  0.00  0.00    +0.000 C 
BRANCH   3   9
ATOM      9  C   UNL     1       4.835   4.524  17.104  0.00  0.00    +0.000 C 
BRANCH   9  10
ATOM     10  C   UNL     1       6.054   5.392  17.400  0.00  0.00    +0.000 A 
ATOM     11  C   UNL     1       7.010   4.965  18.334  0.00  0.00    +0.000 A 
ATOM     12  C   UNL     1       7.943   5.875  18.839  0.00  0.00    +0.000 A 
ATOM     13  C   UNL     1       7.975   7.170  18.342  0.00  0.00    +0.000 A 
ATOM     14  F   UNL     1       8.789   8.072  18.906  0.00  0.00    +0.000 F 
ATOM     15  C   UNL     1       7.150   7.557  17.296  0.00  0.00    +0.000 A 
ATOM     16  C   UNL     1       6.192   6.664  16.824  0.00  0.00    +0.000 A 
ENDBRANCH   9  10
ENDBRANCH   3   9
ENDBRANCH   1   3
BRANCH   1  17
ATOM     17  C   UNL     1       2.658   6.057  19.906  0.00  0.00    +0.000 C 
BRANCH  17  21
ATOM     18  C   UNL     1       0.865   9.095  20.426  0.00  0.00    +0.000 A 
ATOM     19  N   UNL     1       1.308   9.314  19.178  0.00  0.00    +0.000 NA
ATOM     20  O   UNL     1       2.062   8.179  18.898  0.00  0.00    +0.000 OA
ATOM     21  C   UNL     1       1.984   7.383  20.005  0.00  0.00    +0.000 A 
ATOM     22  N   UNL     1       1.286   7.904  20.976  0.00  0.00    +0.000 NA
BRANCH  18  26
ATOM     23  C   UNL     1      -1.963  13.206  20.455  0.00  0.00    +0.000 C 
ATOM     24  C   UNL     1      -1.377  12.022  21.163  0.00  0.00    +0.000 A 
ATOM     25  C   UNL     1      -0.556  11.111  20.480  0.00  0.00    +0.000 A 
ATOM     26  C   UNL     1      -0.016  10.000  21.149  0.00  0.00    +0.000 A 
ATOM     27  C   UNL     1      -0.296   9.795  22.502  0.00  0.00    +0.000 A 
ATOM     28  C   UNL     1      -1.099  10.709  23.191  0.00  0.00    +0.000 A 
ATOM     29  C   UNL     1      -1.624  11.801  22.508  0.00  0.00    +0.000 A 
ATOM     30  F   UNL     1      -2.393  12.671  23.194  0.00  0.00    +0.000 F 
ENDBRANCH  18  26
ENDBRANCH  17  21
ENDBRANCH   1  17
TORSDOF 6
ENDMDL
MODEL 7
REMARK VINA RESULT:      -8.7      2.644      4.404
REMARK  Name = 
REMARK  7 active torsions:
REMARK  status: ('A' for Active; 'I' for Inactive)
REMARK    1  A    between atoms: C_1  and  C_2
REMARK    2  A    between atoms: C_4  and  C_5
REMARK    3  A    between atoms: C_8  and  C_9
REMARK    4  A    between atoms: C_9  and  N_10
REMARK    5  A    between atoms: N_10  and  C_11
REMARK    6  A    between atoms: C_11  and  C_12
REMARK    7  A    between atoms: C_12  and  C_13
REMARK                            x       y       z     vdW  Elec       q    Type
REMARK                         _______ _______ _______ _____ _____    ______ ____
ROOT
ATOM      1  N   UNL     1       2.746   5.700  17.863  0.00  0.00    +0.000 NA
ATOM      2  H   UNL     1       2.928   6.224  17.000  0.00  0.00    +0.000 HD
ENDROOT
BRANCH   1   3
ATOM      3  C   UNL     1       3.456   4.388  17.829  0.00  0.00    +0.000 C 
ATOM      4  C   UNL     1       2.429   3.268  17.486  0.00  0.00    +0.000 C 
ATOM      5  C   UNL     1       2.764   1.868  18.000  0.00  0.00    +0.000 C 
ATOM      6  O   UNL     1       3.115   1.892  19.378  0.00  0.00    +0.000 OA
ATOM      7  C   UNL     1       4.257   2.707  19.623  0.00  0.00    +0.000 C 
ATOM      8  C   UNL     1       3.937   4.157  19.289  0.00  0.00    +0.000 C 
BRANCH   3   9
ATOM      9  C   UNL     1       4.657   4.424  16.785  0.00  0.00    +0.000 C 
BRANCH   9  10
ATOM     10  C   UNL     1       5.885   5.256  17.142  0.00  0.00    +0.000 A 
ATOM     11  C   UNL     1       6.891   4.710  17.953  0.00  0.00    +0.000 A 
ATOM     12  C   UNL     1       7.844   5.549  18.538  0.00  0.00    +0.000 A 
ATOM     13  C   UNL     1       7.841   6.903  18.236  0.00  0.00    +0.000 A 
ATOM     14  F   UNL     1       8.679   7.724  18.883  0.00  0.00    +0.000 F 
ATOM     15  C   UNL     1       6.960   7.428  17.301  0.00  0.00    +0.000 A 
ATOM     16  C   UNL     1       5.983   6.600  16.754  0.00  0.00    +0.000 A 
ENDBRANCH   9  10
ENDBRANCH   3   9
ENDBRANCH   1   3
BRANCH   1  17
ATOM     17  C   UNL     1       2.987   6.579  19.010  0.00  0.00    +0.000 C 
BRANCH  17  21
ATOM     18  C   UNL     1       1.066   9.581  18.896  0.00  0.00    +0.000 A 
ATOM     19  N   UNL     1       1.702   9.685  17.719  0.00  0.00    +0.000 NA
ATOM     20  O   UNL     1       2.517   8.558  17.691  0.00  0.00    +0.000 OA
ATOM     21  C   UNL     1       2.277   7.880  18.851  0.00  0.00    +0.000 A 
ATOM     22  N   UNL     1       1.417   8.472  19.635  0.00  0.00    +0.000 NA
BRANCH  18  26
ATOM     23  C   UNL     1      -1.062  12.055  22.671  0.00  0.00    +0.000 C 
ATOM     24  C   UNL     1      -0.992  11.708  21.215  0.00  0.00    +0.000 A 
ATOM     25  C   UNL     1      -0.005  10.836  20.731  0.00  0.00    +0.000 A 
ATOM     26  C   UNL     1       0.057  10.521  19.363  0.00  0.00    +0.000 A 
ATOM     27  C   UNL     1      -0.866  11.078  18.475  0.00  0.00    +0.000 A 
ATOM     28  C   UNL     1      -1.861  11.935  18.955  0.00  0.00    +0.000 A 
ATOM     29  C   UNL     1      -1.903  12.233  20.312  0.00  0.00    +0.000 A 
ATOM     30  F   UNL     1      -2.875  13.058  20.753  0.00  0.00    +0.000 F 
ENDBRANCH  18  26
ENDBRANCH  17  21
ENDBRANCH   1  17
TORSDOF 6
ENDMDL
MODEL 8
REMARK VINA RESULT:      -8.7      0.965      1.144
REMARK  Name = 
REMARK  7 active torsions:
REMARK  status: ('A' for Active; 'I' for Inactive)
REMARK    1  A    between atoms: C_1  and  C_2
REMARK    2  A    between atoms: C_4  and  C_5
REMARK    3  A    between atoms: C_8  and  C_9
REMARK    4  A    between atoms: C_9  and  N_10
REMARK    5  A    between atoms: N_10  and  C_11
REMARK    6  A    between atoms: C_11  and  C_12
REMARK    7  A    between atoms: C_12  and  C_13
REMARK                            x       y       z     vdW  Elec       q    Type
REMARK                         _______ _______ _______ _____ _____    ______ ____
ROOT
ATOM      1  N   UNL     1       3.342   6.377  17.870  0.00  0.00    +0.000 NA
ATOM      2  H   UNL     1       3.534   7.305  17.478  0.00  0.00    +0.000 HD
ENDROOT
BRANCH   1   3
ATOM      3  C   UNL     1       4.433   5.428  17.504  0.00  0.00    +0.000 C 
ATOM      4  C   UNL     1       5.522   5.458  18.619  0.00  0.00    +0.000 C 
ATOM      5  C   UNL     1       6.940   5.088  18.184  0.00  0.00    +0.000 C 
ATOM      6  O   UNL     1       7.326   5.802  17.016  0.00  0.00    +0.000 OA
ATOM      7  C   UNL     1       6.468   5.522  15.913  0.00  0.00    +0.000 C 
ATOM      8  C   UNL     1       5.062   6.022  16.213  0.00  0.00    +0.000 C 
BRANCH   3   9
ATOM      9  C   UNL     1       3.854   3.961  17.287  0.00  0.00    +0.000 C 
BRANCH   9  10
ATOM     10  C   UNL     1       3.044   3.341  18.421  0.00  0.00    +0.000 A 
ATOM     11  C   UNL     1       1.652   3.221  18.305  0.00  0.00    +0.000 A 
ATOM     12  C   UNL     1       0.880   2.955  19.440  0.00  0.00    +0.000 A 
ATOM     13  C   UNL     1       1.507   2.721  20.655  0.00  0.00    +0.000 A 
ATOM     14  F   UNL     1       0.767   2.581  21.762  0.00  0.00    +0.000 F 
ATOM     15  C   UNL     1       2.890   2.664  20.749  0.00  0.00    +0.000 A 
ATOM     16  C   UNL     1       3.657   2.973  19.628  0.00  0.00    +0.000 A 
ENDBRANCH   9  10
ENDBRANCH   3   9
ENDBRANCH   1   3
BRANCH   1  17
ATOM     17  C   UNL     1       3.009   6.523  19.290  0.00  0.00    +0.000 C 
BRANCH  17  21
ATOM     18  C   UNL     1       0.889   9.251  20.172  0.00  0.00    +0.000 A 
ATOM     19  N   UNL     1       0.988   9.470  18.852  0.00  0.00    +0.000 NA
ATOM     20  O   UNL     1       1.841   8.460  18.418  0.00  0.00    +0.000 OA
ATOM     21  C   UNL     1       2.158   7.724  19.524  0.00  0.00    +0.000 A 
ATOM     22  N   UNL     1       1.624   8.177  20.625  0.00  0.00    +0.000 NA
BRANCH  18  26
ATOM     23  C   UNL     1      -1.703  13.423  21.053  0.00  0.00    +0.000 C 
ATOM     24  C   UNL     1      -1.189  12.088  21.502  0.00  0.00    +0.000 A 
ATOM     25  C   UNL     1      -0.417  11.291  20.643  0.00  0.00    +0.000 A 
ATOM     26  C   UNL     1       0.056  10.038  21.069  0.00  0.00    +0.000 A 
ATOM     27  C   UNL     1      -0.243   9.579  22.354  0.00  0.00    +0.000 A 
ATOM     28  C   UNL     1      -0.998  10.376  23.218  0.00  0.00    +0.000 A 
ATOM     29  C   UNL     1      -1.456  11.612  22.775  0.00  0.00    +0.000 A 
ATOM     30  F   UNL     1      -2.179  12.367  23.628  0.00  0.00    +0.000 F 
ENDBRANCH  18  26
ENDBRANCH  17  21
ENDBRANCH   1  17
TORSDOF 6
ENDMDL
MODEL 9
REMARK VINA RESULT:      -8.6      3.065      3.339
REMARK  Name = 
REMARK  7 active torsions:
REMARK  status: ('A' for Active; 'I' for Inactive)
REMARK    1  A    between atoms: C_1  and  C_2
REMARK    2  A    between atoms: C_4  and  C_5
REMARK    3  A    between atoms: C_8  and  C_9
REMARK    4  A    between atoms: C_9  and  N_10
REMARK    5  A    between atoms: N_10  and  C_11
REMARK    6  A    between atoms: C_11  and  C_12
REMARK    7  A    between atoms: C_12  and  C_13
REMARK                            x       y       z     vdW  Elec       q    Type
REMARK                         _______ _______ _______ _____ _____    ______ ____
ROOT
ATOM      1  N   UNL     1       3.176   6.685  18.490  0.00  0.00    +0.000 NA
ATOM      2  H   UNL     1       2.247   6.252  18.509  0.00  0.00    +0.000 HD
ENDROOT
BRANCH   1   3
ATOM      3  C   UNL     1       4.180   5.729  17.940  0.00  0.00    +0.000 C 
ATOM      4  C   UNL     1       5.349   5.583  18.960  0.00  0.00    +0.000 C 
ATOM      5  C   UNL     1       6.707   5.194  18.375  0.00  0.00    +0.000 C 
ATOM      6  O   UNL     1       7.046   6.012  17.262  0.00  0.00    +0.000 OA
ATOM      7  C   UNL     1       6.094   5.898  16.208  0.00  0.00    +0.000 C 
ATOM      8  C   UNL     1       4.745   6.430  16.672  0.00  0.00    +0.000 C 
BRANCH   3   9
ATOM      9  C   UNL     1       3.504   4.325  17.616  0.00  0.00    +0.000 C 
BRANCH   9  10
ATOM     10  C   UNL     1       2.784   3.604  18.750  0.00  0.00    +0.000 A 
ATOM     11  C   UNL     1       1.382   3.606  18.806  0.00  0.00    +0.000 A 
ATOM     12  C   UNL     1       0.733   3.231  19.986  0.00  0.00    +0.000 A 
ATOM     13  C   UNL     1       1.480   2.772  21.062  0.00  0.00    +0.000 A 
ATOM     14  F   UNL     1       0.870   2.523  22.228  0.00  0.00    +0.000 F 
ATOM     15  C   UNL     1       2.852   2.600  20.961  0.00  0.00    +0.000 A 
ATOM     16  C   UNL     1       3.503   3.016  19.802  0.00  0.00    +0.000 A 
ENDBRANCH   9  10
ENDBRANCH   3   9
ENDBRANCH   1   3
BRANCH   1  17
ATOM     17  C   UNL     1       3.070   8.004  17.860  0.00  0.00    +0.000 C 
BRANCH  17  21
ATOM     18  C   UNL     1      -0.036   9.669  18.407  0.00  0.00    +0.000 A 
ATOM     19  N   UNL     1       0.485   9.767  19.640  0.00  0.00    +0.000 NA
ATOM     20  O   UNL     1       1.702   9.101  19.533  0.00  0.00    +0.000 OA
ATOM     21  C   UNL     1       1.797   8.681  18.237  0.00  0.00    +0.000 A 
ATOM     22  N   UNL     1       0.753   8.979  17.512  0.00  0.00    +0.000 NA
BRANCH  18  26
ATOM     23  C   UNL     1      -3.607  10.231  14.968  0.00  0.00    +0.000 C 
ATOM     24  C   UNL     1      -3.033  10.550  16.315  0.00  0.00    +0.000 A 
ATOM     25  C   UNL     1      -1.832   9.961  16.741  0.00  0.00    +0.000 A 
ATOM     26  C   UNL     1      -1.304  10.261  18.008  0.00  0.00    +0.000 A 
ATOM     27  C   UNL     1      -1.975  11.148  18.853  0.00  0.00    +0.000 A 
ATOM     28  C   UNL     1      -3.163  11.749  18.427  0.00  0.00    +0.000 A 
ATOM     29  C   UNL     1      -3.668  11.437  17.169  0.00  0.00    +0.000 A 
ATOM     30  F   UNL     1      -4.813  12.032  16.777  0.00  0.00    +0.000 F 
ENDBRANCH  18  26
ENDBRANCH  17  21
ENDBRANCH   1  17
TORSDOF 6
ENDMDL
