MODEL 1
REMARK VINA RESULT:      -9.2      0.000      0.000
REMARK  Name = 
REMARK  4 active torsions:
REMARK  status: ('A' for Active; 'I' for Inactive)
REMARK    1  A    between atoms: C_1  and  C_2
REMARK    2  A    between atoms: C_2  and  C_3
REMARK    3  A    between atoms: C_10  and  C_11
REMARK    4  A    between atoms: C_17  and  C_18
REMARK                            x       y       z     vdW  Elec       q    Type
REMARK                         _______ _______ _______ _____ _____    ______ ____
ROOT
ATOM      1  C   UNL     1       1.432   8.792  20.853  0.00  0.00    +0.000 C 
ATOM      2  O   UNL     1       1.721   8.641  22.040  0.00  0.00    +0.000 OA
ATOM      3  N   UNL     1       0.781   9.930  20.394  0.00  0.00    +0.000 N 
ATOM      4  C   UNL     1       0.659  11.081  21.287  0.00  0.00    +0.000 C 
ATOM      5  C   UNL     1      -0.806  11.462  21.475  0.00  0.00    +0.000 C 
ATOM      6  C   UNL     1      -1.505  11.668  20.130  0.00  0.00    +0.000 C 
ATOM      7  C   UNL     1      -1.343  10.443  19.238  0.00  0.00    +0.000 C 
ATOM      8  C   UNL     1       0.120  10.065  19.102  0.00  0.00    +0.000 C 
ENDROOT
BRANCH   1  18
ATOM      9  C   UNL     1       0.670   3.349  20.033  0.00  0.00    +0.000 C 
ATOM     10  C   UNL     1       2.078   3.879  19.829  0.00  0.00    +0.000 C 
ATOM     11  C   UNL     1       3.007   3.592  21.014  0.00  0.00    +0.000 C 
ATOM     12  C   UNL     1       2.693   3.326  18.524  0.00  0.00    +0.000 C 
ATOM     13  O   UNL     1       2.909   2.158  18.247  0.00  0.00    +0.000 OA
ATOM     14  N   UNL     1       2.987   4.417  17.695  0.00  0.00    +0.000 N 
ATOM     15  C   UNL     1       2.628   5.604  18.298  0.00  0.00    +0.000 A 
ATOM     16  C   UNL     1       2.814   6.872  17.816  0.00  0.00    +0.000 A 
ATOM     17  C   UNL     1       2.452   7.922  18.662  0.00  0.00    +0.000 A 
ATOM     18  C   UNL     1       1.815   7.702  19.908  0.00  0.00    +0.000 A 
ATOM     19  C   UNL     1       1.621   6.387  20.352  0.00  0.00    +0.000 A 
ATOM     20  C   UNL     1       2.059   5.363  19.548  0.00  0.00    +0.000 A 
ATOM     21  H   UNL     1       3.428   4.313  16.798  0.00  0.00    +0.000 HD
ENDBRANCH   1  18
BRANCH   7  22
ATOM     22  C   UNL     1      -1.862  10.677  17.845  0.00  0.00    +0.000 A 
ATOM     23  N   UNL     1      -2.238   9.702  17.061  0.00  0.00    +0.000 NA
ATOM     24  C   UNL     1      -2.588  10.319  15.881  0.00  0.00    +0.000 A 
ATOM     25  O   UNL     1      -3.156   9.803  14.932  0.00  0.00    +0.000 OA
ATOM     26  N   UNL     1      -2.244  11.657  15.961  0.00  0.00    +0.000 N 
ATOM     27  N   UNL     1      -1.987  11.941  17.306  0.00  0.00    +0.000 N 
ATOM     28  H   UNL     1      -2.762  12.307  15.383  0.00  0.00    +0.000 HD
ATOM     29  H   UNL     1      -1.228  12.593  17.498  0.00  0.00    +0.000 HD
ENDBRANCH   7  22
TORSDOF 2
ENDMDL
MODEL 2
REMARK VINA RESULT:      -8.5      2.896      7.993
REMARK  Name = 
REMARK  4 active torsions:
REMARK  status: ('A' for Active; 'I' for Inactive)
REMARK    1  A    between atoms: C_1  and  C_2
REMARK    2  A    between atoms: C_2  and  C_3
REMARK    3  A    between atoms: C_10  and  C_11
REMARK    4  A    between atoms: C_17  and  C_18
REMARK                            x       y       z     vdW  Elec       q    Type
REMARK                         _______ _______ _______ _____ _____    ______ ____
ROOT
ATOM      1  C   UNL     1       1.893   5.954  19.901  0.00  0.00    +0.000 C 
ATOM      2  O   UNL     1       1.126   5.782  20.848  0.00  0.00    +0.000 OA
ATOM      3  N   UNL     1       2.657   4.920  19.377  0.00  0.00    +0.000 N 
ATOM      4  C   UNL     1       2.365   3.548  19.789  0.00  0.00    +0.000 C 
ATOM      5  C   UNL     1       3.601   2.895  20.399  0.00  0.00    +0.000 C 
ATOM      6  C   UNL     1       4.805   2.996  19.462  0.00  0.00    +0.000 C 
ATOM      7  C   UNL     1       5.062   4.444  19.059  0.00  0.00    +0.000 C 
ATOM      8  C   UNL     1       3.805   5.078  18.492  0.00  0.00    +0.000 C 
ENDROOT
BRANCH   1  18
ATOM      9  C   UNL     1       0.877  11.252  21.235  0.00  0.00    +0.000 C 
ATOM     10  C   UNL     1       0.445  10.803  19.850  0.00  0.00    +0.000 C 
ATOM     11  C   UNL     1      -1.058  10.518  19.752  0.00  0.00    +0.000 C 
ATOM     12  C   UNL     1       0.864  11.834  18.780  0.00  0.00    +0.000 C 
ATOM     13  O   UNL     1       0.510  12.999  18.698  0.00  0.00    +0.000 OA
ATOM     14  N   UNL     1       1.726  11.191  17.881  0.00  0.00    +0.000 N 
ATOM     15  C   UNL     1       1.925   9.876  18.246  0.00  0.00    +0.000 A 
ATOM     16  C   UNL     1       2.655   8.929  17.580  0.00  0.00    +0.000 A 
ATOM     17  C   UNL     1       2.624   7.634  18.101  0.00  0.00    +0.000 A 
ATOM     18  C   UNL     1       1.971   7.327  19.319  0.00  0.00    +0.000 A 
ATOM     19  C   UNL     1       1.255   8.333  19.982  0.00  0.00    +0.000 A 
ATOM     20  C   UNL     1       1.223   9.583  19.414  0.00  0.00    +0.000 A 
ATOM     21  H   UNL     1       2.107  11.650  17.073  0.00  0.00    +0.000 HD
ENDBRANCH   1  18
BRANCH   7  22
ATOM     22  C   UNL     1       6.124   4.563  17.999  0.00  0.00    +0.000 A 
ATOM     23  N   UNL     1       5.857   4.930  16.774  0.00  0.00    +0.000 NA
ATOM     24  C   UNL     1       7.066   4.861  16.118  0.00  0.00    +0.000 A 
ATOM     25  O   UNL     1       7.311   5.280  14.999  0.00  0.00    +0.000 OA
ATOM     26  N   UNL     1       7.997   4.285  16.965  0.00  0.00    +0.000 N 
ATOM     27  N   UNL     1       7.454   4.302  18.255  0.00  0.00    +0.000 N 
ATOM     28  H   UNL     1       8.972   4.512  16.809  0.00  0.00    +0.000 HD
ATOM     29  H   UNL     1       7.654   3.495  18.843  0.00  0.00    +0.000 HD
ENDBRANCH   7  22
TORSDOF 2
ENDMDL
MODEL 3
REMARK VINA RESULT:      -8.4      3.249      8.185
REMARK  Name = 
REMARK  4 active torsions:
REMARK  status: ('A' for Active; 'I' for Inactive)
REMARK    1  A    between atoms: C_1  and  C_2
REMARK    2  A    between atoms: C_2  and  C_3
REMARK    3  A    between atoms: C_10  and  C_11
REMARK    4  A    between atoms: C_17  and  C_18
REMARK                            x       y       z     vdW  Elec       q    Type
REMARK                         _______ _______ _______ _____ _____    ______ ____
ROOT
ATOM      1  C   UNL     1       3.230   7.658  17.615  0.00  0.00    +0.000 C 
ATOM      2  O   UNL     1       3.090   8.501  16.729  0.00  0.00    +0.000 OA
ATOM      3  N   UNL     1       4.156   6.628  17.510  0.00  0.00    +0.000 N 
ATOM      4  C   UNL     1       5.157   6.685  16.446  0.00  0.00    +0.000 C 
ATOM      5  C   UNL     1       5.079   5.441  15.567  0.00  0.00    +0.000 C 
ATOM      6  C   UNL     1       5.162   4.163  16.402  0.00  0.00    +0.000 C 
ATOM      7  C   UNL     1       4.103   4.157  17.498  0.00  0.00    +0.000 C 
ATOM      8  C   UNL     1       4.180   5.423  18.330  0.00  0.00    +0.000 C 
ENDROOT
BRANCH   1  18
ATOM      9  C   UNL     1      -0.962  10.713  19.608  0.00  0.00    +0.000 C 
ATOM     10  C   UNL     1       0.166  10.391  20.572  0.00  0.00    +0.000 C 
ATOM     11  C   UNL     1       1.139  11.559  20.771  0.00  0.00    +0.000 C 
ATOM     12  C   UNL     1      -0.389   9.922  21.935  0.00  0.00    +0.000 C 
ATOM     13  O   UNL     1      -1.094  10.556  22.703  0.00  0.00    +0.000 OA
ATOM     14  N   UNL     1       0.075   8.620  22.160  0.00  0.00    +0.000 N 
ATOM     15  C   UNL     1       0.852   8.186  21.107  0.00  0.00    +0.000 A 
ATOM     16  C   UNL     1       1.519   6.995  20.999  0.00  0.00    +0.000 A 
ATOM     17  C   UNL     1       2.325   6.829  19.871  0.00  0.00    +0.000 A 
ATOM     18  C   UNL     1       2.368   7.784  18.827  0.00  0.00    +0.000 A 
ATOM     19  C   UNL     1       1.649   8.979  18.966  0.00  0.00    +0.000 A 
ATOM     20  C   UNL     1       0.928   9.168  20.119  0.00  0.00    +0.000 A 
ATOM     21  H   UNL     1      -0.126   8.109  23.002  0.00  0.00    +0.000 HD
ENDBRANCH   1  18
BRANCH   7  22
ATOM     22  C   UNL     1       4.269   3.002  18.448  0.00  0.00    +0.000 A 
ATOM     23  N   UNL     1       4.797   3.138  19.636  0.00  0.00    +0.000 NA
ATOM     24  C   UNL     1       4.818   1.863  20.156  0.00  0.00    +0.000 A 
ATOM     25  O   UNL     1       5.074   1.552  21.308  0.00  0.00    +0.000 OA
ATOM     26  N   UNL     1       4.439   0.974  19.165  0.00  0.00    +0.000 N 
ATOM     27  N   UNL     1       3.864   1.721  18.132  0.00  0.00    +0.000 N 
ATOM     28  H   UNL     1       4.032   0.095  19.459  0.00  0.00    +0.000 HD
ATOM     29  H   UNL     1       4.053   1.407  17.182  0.00  0.00    +0.000 HD
ENDBRANCH   7  22
TORSDOF 2
ENDMDL
MODEL 4
REMARK VINA RESULT:      -8.3      2.689      7.919
REMARK  Name = 
REMARK  4 active torsions:
REMARK  status: ('A' for Active; 'I' for Inactive)
REMARK    1  A    between atoms: C_1  and  C_2
REMARK    2  A    between atoms: C_2  and  C_3
REMARK    3  A    between atoms: C_10  and  C_11
REMARK    4  A    between atoms: C_17  and  C_18
REMARK                            x       y       z     vdW  Elec       q    Type
REMARK                         _______ _______ _______ _____ _____    ______ ____
ROOT
ATOM      1  C   UNL     1       2.456   8.512  18.002  0.00  0.00    +0.000 C 
ATOM      2  O   UNL     1       2.746   9.136  16.981  0.00  0.00    +0.000 OA
ATOM      3  N   UNL     1       3.065   7.307  18.325  0.00  0.00    +0.000 N 
ATOM      4  C   UNL     1       4.248   6.890  17.574  0.00  0.00    +0.000 C 
ATOM      5  C   UNL     1       4.024   5.526  16.930  0.00  0.00    +0.000 C 
ATOM      6  C   UNL     1       3.572   4.491  17.961  0.00  0.00    +0.000 C 
ATOM      7  C   UNL     1       2.341   4.976  18.718  0.00  0.00    +0.000 C 
ATOM      8  C   UNL     1       2.580   6.351  19.314  0.00  0.00    +0.000 C 
ENDROOT
BRANCH   1  18
ATOM      9  C   UNL     1      -2.316  11.350  17.771  0.00  0.00    +0.000 C 
ATOM     10  C   UNL     1      -1.306  11.797  18.813  0.00  0.00    +0.000 C 
ATOM     11  C   UNL     1      -0.520  13.045  18.393  0.00  0.00    +0.000 C 
ATOM     12  C   UNL     1      -1.989  12.033  20.179  0.00  0.00    +0.000 C 
ATOM     13  O   UNL     1      -2.868  12.840  20.436  0.00  0.00    +0.000 OA
ATOM     14  N   UNL     1      -1.407  11.157  21.104  0.00  0.00    +0.000 N 
ATOM     15  C   UNL     1      -0.441  10.377  20.503  0.00  0.00    +0.000 A 
ATOM     16  C   UNL     1       0.374   9.454  21.100  0.00  0.00    +0.000 A 
ATOM     17  C   UNL     1       1.346   8.861  20.292  0.00  0.00    +0.000 A 
ATOM     18  C   UNL     1       1.421   9.106  18.899  0.00  0.00    +0.000 A 
ATOM     19  C   UNL     1       0.550  10.040  18.323  0.00  0.00    +0.000 A 
ATOM     20  C   UNL     1      -0.345  10.680  19.145  0.00  0.00    +0.000 A 
ATOM     21  H   UNL     1      -1.663  11.145  22.076  0.00  0.00    +0.000 HD
ENDBRANCH   1  18
BRANCH   7  22
ATOM     22  C   UNL     1       1.976   4.066  19.860  0.00  0.00    +0.000 A 
ATOM     23  N   UNL     1       2.868   3.385  20.530  0.00  0.00    +0.000 NA
ATOM     24  C   UNL     1       2.137   2.650  21.436  0.00  0.00    +0.000 A 
ATOM     25  O   UNL     1       2.577   2.004  22.372  0.00  0.00    +0.000 OA
ATOM     26  N   UNL     1       0.791   2.808  21.152  0.00  0.00    +0.000 N 
ATOM     27  N   UNL     1       0.674   3.899  20.284  0.00  0.00    +0.000 N 
ATOM     28  H   UNL     1       0.136   2.677  21.913  0.00  0.00    +0.000 HD
ATOM     29  H   UNL     1      -0.035   3.828  19.556  0.00  0.00    +0.000 HD
ENDBRANCH   7  22
TORSDOF 2
ENDMDL
MODEL 5
REMARK VINA RESULT:      -8.1      3.113      8.073
REMARK  Name = 
REMARK  4 active torsions:
REMARK  status: ('A' for Active; 'I' for Inactive)
REMARK    1  A    between atoms: C_1  and  C_2
REMARK    2  A    between atoms: C_2  and  C_3
REMARK    3  A    between atoms: C_10  and  C_11
REMARK    4  A    between atoms: C_17  and  C_18
REMARK                            x       y       z     vdW  Elec       q    Type
REMARK                         _______ _______ _______ _____ _____    ______ ____
ROOT
ATOM      1  C   UNL     1       2.843   8.074  17.925  0.00  0.00    +0.000 C 
ATOM      2  O   UNL     1       2.714   8.817  16.952  0.00  0.00    +0.000 OA
ATOM      3  N   UNL     1       3.776   7.046  17.946  0.00  0.00    +0.000 N 
ATOM      4  C   UNL     1       4.797   6.999  16.900  0.00  0.00    +0.000 C 
ATOM      5  C   UNL     1       4.744   5.669  16.155  0.00  0.00    +0.000 C 
ATOM      6  C   UNL     1       4.819   4.486  17.121  0.00  0.00    +0.000 C 
ATOM      7  C   UNL     1       3.739   4.587  18.193  0.00  0.00    +0.000 C 
ATOM      8  C   UNL     1       3.792   5.934  18.888  0.00  0.00    +0.000 C 
ENDROOT
BRANCH   1  18
ATOM      9  C   UNL     1      -1.299  11.395  19.567  0.00  0.00    +0.000 C 
ATOM     10  C   UNL     1      -0.204  11.118  20.581  0.00  0.00    +0.000 C 
ATOM     11  C   UNL     1       0.800  12.269  20.714  0.00  0.00    +0.000 C 
ATOM     12  C   UNL     1      -0.805  10.773  21.962  0.00  0.00    +0.000 C 
ATOM     13  O   UNL     1      -1.508  11.486  22.660  0.00  0.00    +0.000 OA
ATOM     14  N   UNL     1      -0.386   9.479  22.299  0.00  0.00    +0.000 N 
ATOM     15  C   UNL     1       0.401   8.942  21.303  0.00  0.00    +0.000 A 
ATOM     16  C   UNL     1       1.034   7.728  21.305  0.00  0.00    +0.000 A 
ATOM     17  C   UNL     1       1.860   7.450  20.215  0.00  0.00    +0.000 A 
ATOM     18  C   UNL     1       1.956   8.319  19.100  0.00  0.00    +0.000 A 
ATOM     19  C   UNL     1       1.271   9.542  19.128  0.00  0.00    +0.000 A 
ATOM     20  C   UNL     1       0.530   9.841  20.245  0.00  0.00    +0.000 A 
ATOM     21  H   UNL     1      -0.623   9.043  23.173  0.00  0.00    +0.000 HD
ENDBRANCH   1  18
BRANCH   7  22
ATOM     22  C   UNL     1       3.894   3.539  19.262  0.00  0.00    +0.000 A 
ATOM     23  N   UNL     1       3.123   3.488  20.315  0.00  0.00    +0.000 NA
ATOM     24  C   UNL     1       3.617   2.441  21.059  0.00  0.00    +0.000 A 
ATOM     25  O   UNL     1       3.095   1.935  22.038  0.00  0.00    +0.000 OA
ATOM     26  N   UNL     1       4.794   2.002  20.479  0.00  0.00    +0.000 N 
ATOM     27  N   UNL     1       4.857   2.553  19.195  0.00  0.00    +0.000 N 
ATOM     28  H   UNL     1       5.065   1.040  20.645  0.00  0.00    +0.000 HD
ATOM     29  H   UNL     1       5.777   2.839  18.866  0.00  0.00    +0.000 HD
ENDBRANCH   7  22
TORSDOF 2
ENDMDL
MODEL 6
REMARK VINA RESULT:      -8.1      2.789      7.981
REMARK  Name = 
REMARK  4 active torsions:
REMARK  status: ('A' for Active; 'I' for Inactive)
REMARK    1  A    between atoms: C_1  and  C_2
REMARK    2  A    between atoms: C_2  and  C_3
REMARK    3  A    between atoms: C_10  and  C_11
REMARK    4  A    between atoms: C_17  and  C_18
REMARK                            x       y       z     vdW  Elec       q    Type
REMARK                         _______ _______ _______ _____ _____    ______ ____
ROOT
ATOM      1  C   UNL     1       2.820   7.948  17.870  0.00  0.00    +0.000 C 
ATOM      2  O   UNL     1       2.992   8.541  16.805  0.00  0.00    +0.000 OA
ATOM      3  N   UNL     1       3.497   6.775  18.175  0.00  0.00    +0.000 N 
ATOM      4  C   UNL     1       4.619   6.368  17.331  0.00  0.00    +0.000 C 
ATOM      5  C   UNL     1       4.383   4.974  16.759  0.00  0.00    +0.000 C 
ATOM      6  C   UNL     1       4.065   3.965  17.863  0.00  0.00    +0.000 C 
ATOM      7  C   UNL     1       2.894   4.439  18.715  0.00  0.00    +0.000 C 
ATOM      8  C   UNL     1       3.140   5.842  19.238  0.00  0.00    +0.000 C 
ENDROOT
BRANCH   1  18
ATOM      9  C   UNL     1      -1.704  11.174  18.000  0.00  0.00    +0.000 C 
ATOM     10  C   UNL     1      -0.643  11.444  19.052  0.00  0.00    +0.000 C 
ATOM     11  C   UNL     1       0.237  12.656  18.722  0.00  0.00    +0.000 C 
ATOM     12  C   UNL     1      -1.281  11.613  20.448  0.00  0.00    +0.000 C 
ATOM     13  O   UNL     1      -2.085  12.463  20.795  0.00  0.00    +0.000 OA
ATOM     14  N   UNL     1      -0.758  10.614  21.280  0.00  0.00    +0.000 N 
ATOM     15  C   UNL     1       0.130   9.815  20.591  0.00  0.00    +0.000 A 
ATOM     16  C   UNL     1       0.875   8.779  21.087  0.00  0.00    +0.000 A 
ATOM     17  C   UNL     1       1.781   8.183  20.207  0.00  0.00    +0.000 A 
ATOM     18  C   UNL     1       1.852   8.543  18.839  0.00  0.00    +0.000 A 
ATOM     19  C   UNL     1       1.053   9.592  18.367  0.00  0.00    +0.000 A 
ATOM     20  C   UNL     1       0.228  10.228  19.263  0.00  0.00    +0.000 A 
ATOM     21  H   UNL     1      -0.997  10.538  22.253  0.00  0.00    +0.000 HD
ENDBRANCH   1  18
BRANCH   7  22
ATOM     22  C   UNL     1       2.668   3.562  19.917  0.00  0.00    +0.000 A 
ATOM     23  N   UNL     1       1.615   3.673  20.682  0.00  0.00    +0.000 NA
ATOM     24  C   UNL     1       1.810   2.746  21.680  0.00  0.00    +0.000 A 
ATOM     25  O   UNL     1       0.993   2.394  22.515  0.00  0.00    +0.000 OA
ATOM     26  N   UNL     1       3.083   2.218  21.553  0.00  0.00    +0.000 N 
ATOM     27  N   UNL     1       3.556   2.572  20.285  0.00  0.00    +0.000 N 
ATOM     28  H   UNL     1       3.243   1.290  21.927  0.00  0.00    +0.000 HD
ATOM     29  H   UNL     1       4.545   2.800  20.214  0.00  0.00    +0.000 HD
ENDBRANCH   7  22
TORSDOF 2
ENDMDL
MODEL 7
REMARK VINA RESULT:      -8.0      3.850      8.110
REMARK  Name = 
REMARK  4 active torsions:
REMARK  status: ('A' for Active; 'I' for Inactive)
REMARK    1  A    between atoms: C_1  and  C_2
REMARK    2  A    between atoms: C_2  and  C_3
REMARK    3  A    between atoms: C_10  and  C_11
REMARK    4  A    between atoms: C_17  and  C_18
REMARK                            x       y       z     vdW  Elec       q    Type
REMARK                         _______ _______ _______ _____ _____    ______ ____
ROOT
ATOM      1  C   UNL     1       3.326   5.269  17.529  0.00  0.00    +0.000 C 
ATOM      2  O   UNL     1       2.787   4.196  17.256  0.00  0.00    +0.000 OA
ATOM      3  N   UNL     1       4.528   5.655  16.950  0.00  0.00    +0.000 N 
ATOM      4  C   UNL     1       5.038   4.896  15.810  0.00  0.00    +0.000 C 
ATOM      5  C   UNL     1       6.435   4.359  16.104  0.00  0.00    +0.000 C 
ATOM      6  C   UNL     1       7.379   5.477  16.552  0.00  0.00    +0.000 C 
ATOM      7  C   UNL     1       6.797   6.240  17.737  0.00  0.00    +0.000 C 
ATOM      8  C   UNL     1       5.394   6.726  17.429  0.00  0.00    +0.000 C 
ENDROOT
BRANCH   1  18
ATOM      9  C   UNL     1      -0.107   9.635  17.697  0.00  0.00    +0.000 C 
ATOM     10  C   UNL     1       1.061   9.648  18.667  0.00  0.00    +0.000 C 
ATOM     11  C   UNL     1       2.215  10.547  18.208  0.00  0.00    +0.000 C 
ATOM     12  C   UNL     1       0.598  10.057  20.083  0.00  0.00    +0.000 C 
ATOM     13  O   UNL     1       0.088  11.114  20.417  0.00  0.00    +0.000 OA
ATOM     14  N   UNL     1       0.883   8.993  20.950  0.00  0.00    +0.000 N 
ATOM     15  C   UNL     1       1.463   7.944  20.267  0.00  0.00    +0.000 A 
ATOM     16  C   UNL     1       1.927   6.767  20.787  0.00  0.00    +0.000 A 
ATOM     17  C   UNL     1       2.566   5.898  19.900  0.00  0.00    +0.000 A 
ATOM     18  C   UNL     1       2.634   6.157  18.509  0.00  0.00    +0.000 A 
ATOM     19  C   UNL     1       2.123   7.364  18.014  0.00  0.00    +0.000 A 
ATOM     20  C   UNL     1       1.574   8.248  18.910  0.00  0.00    +0.000 A 
ATOM     21  H   UNL     1       0.704   9.034  21.937  0.00  0.00    +0.000 HD
ENDBRANCH   1  18
BRANCH   7  22
ATOM     22  C   UNL     1       7.611   7.456  18.089  0.00  0.00    +0.000 A 
ATOM     23  N   UNL     1       7.504   8.586  17.442  0.00  0.00    +0.000 NA
ATOM     24  C   UNL     1       8.438   9.411  18.026  0.00  0.00    +0.000 A 
ATOM     25  O   UNL     1       8.562  10.611  17.845  0.00  0.00    +0.000 OA
ATOM     26  N   UNL     1       9.194   8.666  18.914  0.00  0.00    +0.000 N 
ATOM     27  N   UNL     1       8.518   7.461  19.129  0.00  0.00    +0.000 N 
ATOM     28  H   UNL     1       9.631   9.161  19.683  0.00  0.00    +0.000 HD
ATOM     29  H   UNL     1       9.094   6.628  19.233  0.00  0.00    +0.000 HD
ENDBRANCH   7  22
TORSDOF 2
ENDMDL
MODEL 8
REMARK VINA RESULT:      -7.9      2.922      7.844
REMARK  Name = 
REMARK  4 active torsions:
REMARK  status: ('A' for Active; 'I' for Inactive)
REMARK    1  A    between atoms: C_1  and  C_2
REMARK    2  A    between atoms: C_2  and  C_3
REMARK    3  A    between atoms: C_10  and  C_11
REMARK    4  A    between atoms: C_17  and  C_18
REMARK                            x       y       z     vdW  Elec       q    Type
REMARK                         _______ _______ _______ _____ _____    ______ ____
ROOT
ATOM      1  C   UNL     1       2.288   6.062  19.723  0.00  0.00    +0.000 C 
ATOM      2  O   UNL     1       1.819   5.831  20.837  0.00  0.00    +0.000 OA
ATOM      3  N   UNL     1       2.889   5.070  18.959  0.00  0.00    +0.000 N 
ATOM      4  C   UNL     1       2.742   3.676  19.371  0.00  0.00    +0.000 C 
ATOM      5  C   UNL     1       4.108   3.030  19.580  0.00  0.00    +0.000 C 
ATOM      6  C   UNL     1       5.001   3.202  18.350  0.00  0.00    +0.000 C 
ATOM      7  C   UNL     1       5.115   4.671  17.960  0.00  0.00    +0.000 C 
ATOM      8  C   UNL     1       3.742   5.295  17.797  0.00  0.00    +0.000 C 
ENDROOT
BRANCH   1  18
ATOM      9  C   UNL     1       0.768  11.146  21.371  0.00  0.00    +0.000 C 
ATOM     10  C   UNL     1       0.313  10.713  19.989  0.00  0.00    +0.000 C 
ATOM     11  C   UNL     1      -1.153  10.265  19.951  0.00  0.00    +0.000 C 
ATOM     12  C   UNL     1       0.555  11.832  18.952  0.00  0.00    +0.000 C 
ATOM     13  O   UNL     1       0.070  12.952  18.947  0.00  0.00    +0.000 OA
ATOM     14  N   UNL     1       1.432  11.331  17.981  0.00  0.00    +0.000 N 
ATOM     15  C   UNL     1       1.795  10.032  18.268  0.00  0.00    +0.000 A 
ATOM     16  C   UNL     1       2.588   9.205  17.520  0.00  0.00    +0.000 A 
ATOM     17  C   UNL     1       2.729   7.892  17.976  0.00  0.00    +0.000 A 
ATOM     18  C   UNL     1       2.181   7.459  19.208  0.00  0.00    +0.000 A 
ATOM     19  C   UNL     1       1.397   8.347  19.956  0.00  0.00    +0.000 A 
ATOM     20  C   UNL     1       1.195   9.609  19.454  0.00  0.00    +0.000 A 
ATOM     21  H   UNL     1       1.715  11.866  17.178  0.00  0.00    +0.000 HD
ENDBRANCH   1  18
BRANCH   7  22
ATOM     22  C   UNL     1       5.836   4.862  16.653  0.00  0.00    +0.000 A 
ATOM     23  N   UNL     1       5.682   4.051  15.640  0.00  0.00    +0.000 NA
ATOM     24  C   UNL     1       6.539   4.531  14.675  0.00  0.00    +0.000 A 
ATOM     25  O   UNL     1       6.594   4.177  13.509  0.00  0.00    +0.000 OA
ATOM     26  N   UNL     1       7.306   5.542  15.228  0.00  0.00    +0.000 N 
ATOM     27  N   UNL     1       6.700   5.914  16.433  0.00  0.00    +0.000 N 
ATOM     28  H   UNL     1       7.681   6.241  14.598  0.00  0.00    +0.000 HD
ATOM     29  H   UNL     1       7.323   6.159  17.200  0.00  0.00    +0.000 HD
ENDBRANCH   7  22
TORSDOF 2
ENDMDL
MODEL 9
REMARK VINA RESULT:      -7.8      3.091      7.960
REMARK  Name = 
REMARK  4 active torsions:
REMARK  status: ('A' for Active; 'I' for Inactive)
REMARK    1  A    between atoms: C_1  and  C_2
REMARK    2  A    between atoms: C_2  and  C_3
REMARK    3  A    between atoms: C_10  and  C_11
REMARK    4  A    between atoms: C_17  and  C_18
REMARK                            x       y       z     vdW  Elec       q    Type
REMARK                         _______ _______ _______ _____ _____    ______ ____
ROOT
ATOM      1  C   UNL     1       1.606   4.845  19.642  0.00  0.00    +0.000 C 
ATOM      2  O   UNL     1       0.799   4.354  20.432  0.00  0.00    +0.000 OA
ATOM      3  N   UNL     1       2.430   4.058  18.850  0.00  0.00    +0.000 N 
ATOM      4  C   UNL     1       2.166   2.623  18.764  0.00  0.00    +0.000 C 
ATOM      5  C   UNL     1       3.392   1.823  19.192  0.00  0.00    +0.000 C 
ATOM      6  C   UNL     1       4.637   2.252  18.414  0.00  0.00    +0.000 C 
ATOM      7  C   UNL     1       4.863   3.755  18.532  0.00  0.00    +0.000 C 
ATOM      8  C   UNL     1       3.615   4.521  18.137  0.00  0.00    +0.000 C 
ENDROOT
BRANCH   1  18
ATOM      9  C   UNL     1       1.749   9.337  22.911  0.00  0.00    +0.000 C 
ATOM     10  C   UNL     1       0.842   9.406  21.696  0.00  0.00    +0.000 C 
ATOM     11  C   UNL     1      -0.636   9.182  22.034  0.00  0.00    +0.000 C 
ATOM     12  C   UNL     1       1.020  10.747  20.950  0.00  0.00    +0.000 C 
ATOM     13  O   UNL     1       0.809  11.868  21.385  0.00  0.00    +0.000 OA
ATOM     14  N   UNL     1       1.460  10.459  19.651  0.00  0.00    +0.000 N 
ATOM     15  C   UNL     1       1.598   9.099  19.470  0.00  0.00    +0.000 A 
ATOM     16  C   UNL     1       1.950   8.444  18.320  0.00  0.00    +0.000 A 
ATOM     17  C   UNL     1       1.925   7.049  18.362  0.00  0.00    +0.000 A 
ATOM     18  C   UNL     1       1.665   6.334  19.557  0.00  0.00    +0.000 A 
ATOM     19  C   UNL     1       1.333   7.045  20.718  0.00  0.00    +0.000 A 
ATOM     20  C   UNL     1       1.277   8.415  20.642  0.00  0.00    +0.000 A 
ATOM     21  H   UNL     1       1.615  11.171  18.960  0.00  0.00    +0.000 HD
ENDBRANCH   1  18
BRANCH   7  22
ATOM     22  C   UNL     1       5.971   4.238  17.635  0.00  0.00    +0.000 A 
ATOM     23  N   UNL     1       5.766   4.609  16.399  0.00  0.00    +0.000 NA
ATOM     24  C   UNL     1       7.016   4.923  15.917  0.00  0.00    +0.000 A 
ATOM     25  O   UNL     1       7.270   5.474  14.859  0.00  0.00    +0.000 OA
ATOM     26  N   UNL     1       7.960   4.562  16.864  0.00  0.00    +0.000 N 
ATOM     27  N   UNL     1       7.279   4.333  18.064  0.00  0.00    +0.000 N 
ATOM     28  H   UNL     1       8.843   5.058  16.854  0.00  0.00    +0.000 HD
ATOM     29  H   UNL     1       7.623   3.571  18.645  0.00  0.00    +0.000 HD
ENDBRANCH   7  22
TORSDOF 2
ENDMDL
