MODEL 1
REMARK VINA RESULT:      -9.1      0.000      0.000
REMARK  Name = 
REMARK  5 active torsions:
REMARK  status: ('A' for Active; 'I' for Inactive)
REMARK    1  A    between atoms: C_1  and  C_2
REMARK    2  A    between atoms: C_5  and  C_6
REMARK    3  A    between atoms: C_9  and  C_10
REMARK    4  A    between atoms: C_11  and  N_12
REMARK    5  A    between atoms: C_19  and  C_20
REMARK                            x       y       z     vdW  Elec       q    Type
REMARK                         _______ _______ _______ _____ _____    ______ ____
ROOT
ATOM      1  N   UNL     1       1.964   7.799  18.738  0.00  0.00    +0.000 N 
ATOM      2  C   UNL     1       1.688   8.686  19.752  0.00  0.00    +0.000 C 
ATOM      3  O   UNL     1       1.922   8.523  20.943  0.00  0.00    +0.000 OA
ATOM      4  N   UNL     1       1.119   9.893  19.335  0.00  0.00    +0.000 N 
ATOM      5  C   UNL     1       0.994  10.942  20.348  0.00  0.00    +0.000 C 
ATOM      6  C   UNL     1      -0.395  10.906  20.978  0.00  0.00    +0.000 C 
ATOM      7  C   UNL     1      -1.464  11.080  19.899  0.00  0.00    +0.000 C 
ATOM      8  C   UNL     1      -1.286  10.058  18.755  0.00  0.00    +0.000 C 
ATOM      9  C   UNL     1       0.165  10.037  18.229  0.00  0.00    +0.000 C 
ATOM     10  H   UNL     1       1.875   8.206  17.820  0.00  0.00    +0.000 HD
ENDROOT
BRANCH   8  11
ATOM     11  C   UNL     1      -2.244  10.355  17.623  0.00  0.00    +0.000 A 
ATOM     12  C   UNL     1      -2.067   9.789  16.379  0.00  0.00    +0.000 A 
ATOM     13  C   UNL     1      -3.000  10.130  15.430  0.00  0.00    +0.000 A 
ATOM     14  N   UNL     1      -4.030  10.962  15.660  0.00  0.00    +0.000 NA
ATOM     15  C   UNL     1      -4.109  11.479  16.887  0.00  0.00    +0.000 A 
ATOM     16  N   UNL     1      -5.158  12.331  17.159  0.00  0.00    +0.000 N 
ATOM     17  N   UNL     1      -3.266  11.200  17.885  0.00  0.00    +0.000 NA
ATOM     18  H   UNL     1      -5.919  12.144  16.521  0.00  0.00    +0.000 HD
ATOM     19  H   UNL     1      -5.367  12.310  18.147  0.00  0.00    +0.000 HD
ENDBRANCH   8  11
BRANCH   1  25
ATOM     20  C   UNL     1       4.195   5.064  17.571  0.00  0.00    +0.000 A 
ATOM     21  C   UNL     1       3.889   4.021  18.440  0.00  0.00    +0.000 A 
ATOM     22  C   UNL     1       2.939   4.195  19.439  0.00  0.00    +0.000 A 
ATOM     23  C   UNL     1       2.254   5.418  19.611  0.00  0.00    +0.000 A 
ATOM     24  C   UNL     1       1.282   5.432  20.755  0.00  0.00    +0.000 C 
ATOM     25  C   UNL     1       2.541   6.493  18.745  0.00  0.00    +0.000 A 
ATOM     26  C   UNL     1       3.521   6.288  17.737  0.00  0.00    +0.000 A 
BRANCH  20  31
ATOM     27  C   UNL     1       6.451   3.979  13.324  0.00  0.00    +0.000 C 
ATOM     28  C   UNL     1       6.250   4.379  14.731  0.00  0.00    +0.000 A 
ATOM     29  C   UNL     1       7.169   4.776  15.675  0.00  0.00    +0.000 A 
ATOM     30  O   UNL     1       6.503   5.065  16.829  0.00  0.00    +0.000 OA
ATOM     31  C   UNL     1       5.188   4.824  16.525  0.00  0.00    +0.000 A 
ATOM     32  N   UNL     1       4.994   4.407  15.286  0.00  0.00    +0.000 NA
ENDBRANCH  20  31
ENDBRANCH   1  25
TORSDOF 3
ENDMDL
MODEL 2
REMARK VINA RESULT:      -8.9      0.668      1.223
REMARK  Name = 
REMARK  5 active torsions:
REMARK  status: ('A' for Active; 'I' for Inactive)
REMARK    1  A    between atoms: C_1  and  C_2
REMARK    2  A    between atoms: C_5  and  C_6
REMARK    3  A    between atoms: C_9  and  C_10
REMARK    4  A    between atoms: C_11  and  N_12
REMARK    5  A    between atoms: C_19  and  C_20
REMARK                            x       y       z     vdW  Elec       q    Type
REMARK                         _______ _______ _______ _____ _____    ______ ____
ROOT
ATOM      1  N   UNL     1       1.919   7.759  18.674  0.00  0.00    +0.000 N 
ATOM      2  C   UNL     1       1.708   8.610  19.733  0.00  0.00    +0.000 C 
ATOM      3  O   UNL     1       1.988   8.395  20.905  0.00  0.00    +0.000 OA
ATOM      4  N   UNL     1       1.152   9.846  19.388  0.00  0.00    +0.000 N 
ATOM      5  C   UNL     1       1.095  10.856  20.447  0.00  0.00    +0.000 C 
ATOM      6  C   UNL     1      -0.267  10.827  21.133  0.00  0.00    +0.000 C 
ATOM      7  C   UNL     1      -1.375  11.068  20.109  0.00  0.00    +0.000 C 
ATOM      8  C   UNL     1      -1.271  10.089  18.920  0.00  0.00    +0.000 C 
ATOM      9  C   UNL     1       0.156  10.056  18.331  0.00  0.00    +0.000 C 
ATOM     10  H   UNL     1       1.801   8.204  17.778  0.00  0.00    +0.000 HD
ENDROOT
BRANCH   8  11
ATOM     11  C   UNL     1      -2.268  10.454  17.843  0.00  0.00    +0.000 A 
ATOM     12  C   UNL     1      -3.373  11.226  18.133  0.00  0.00    +0.000 A 
ATOM     13  C   UNL     1      -4.207  11.495  17.075  0.00  0.00    +0.000 A 
ATOM     14  N   UNL     1      -3.998  11.047  15.826  0.00  0.00    +0.000 NA
ATOM     15  C   UNL     1      -2.915  10.289  15.643  0.00  0.00    +0.000 A 
ATOM     16  N   UNL     1      -2.667   9.820  14.371  0.00  0.00    +0.000 N 
ATOM     17  N   UNL     1      -2.032   9.983  16.598  0.00  0.00    +0.000 NA
ATOM     18  H   UNL     1      -3.117  10.421  13.696  0.00  0.00    +0.000 HD
ATOM     19  H   UNL     1      -1.677   9.653  14.257  0.00  0.00    +0.000 HD
ENDBRANCH   8  11
BRANCH   1  25
ATOM     20  C   UNL     1       4.104   5.049  17.370  0.00  0.00    +0.000 A 
ATOM     21  C   UNL     1       3.755   3.959  18.163  0.00  0.00    +0.000 A 
ATOM     22  C   UNL     1       2.790   4.093  19.153  0.00  0.00    +0.000 A 
ATOM     23  C   UNL     1       2.132   5.319  19.393  0.00  0.00    +0.000 A 
ATOM     24  C   UNL     1       1.139   5.283  20.518  0.00  0.00    +0.000 C 
ATOM     25  C   UNL     1       2.463   6.441  18.605  0.00  0.00    +0.000 A 
ATOM     26  C   UNL     1       3.457   6.277  17.604  0.00  0.00    +0.000 A 
BRANCH  20  31
ATOM     27  C   UNL     1       6.455   3.879  13.197  0.00  0.00    +0.000 C 
ATOM     28  C   UNL     1       6.211   4.387  14.562  0.00  0.00    +0.000 A 
ATOM     29  C   UNL     1       7.069   5.011  15.438  0.00  0.00    +0.000 A 
ATOM     30  O   UNL     1       6.378   5.316  16.574  0.00  0.00    +0.000 OA
ATOM     31  C   UNL     1       5.111   4.853  16.328  0.00  0.00    +0.000 A 
ATOM     32  N   UNL     1       4.970   4.286  15.143  0.00  0.00    +0.000 NA
ENDBRANCH  20  31
ENDBRANCH   1  25
TORSDOF 3
ENDMDL
MODEL 3
REMARK VINA RESULT:      -8.4      2.554      8.688
REMARK  Name = 
REMARK  5 active torsions:
REMARK  status: ('A' for Active; 'I' for Inactive)
REMARK    1  A    between atoms: C_1  and  C_2
REMARK    2  A    between atoms: C_5  and  C_6
REMARK    3  A    between atoms: C_9  and  C_10
REMARK    4  A    between atoms: C_11  and  N_12
REMARK    5  A    between atoms: C_19  and  C_20
REMARK                            x       y       z     vdW  Elec       q    Type
REMARK                         _______ _______ _______ _____ _____    ______ ____
ROOT
ATOM      1  N   UNL     1       1.390   8.853  19.116  0.00  0.00    +0.000 N 
ATOM      2  C   UNL     1       2.439   8.729  18.236  0.00  0.00    +0.000 C 
ATOM      3  O   UNL     1       2.688   9.469  17.294  0.00  0.00    +0.000 OA
ATOM      4  N   UNL     1       3.303   7.661  18.502  0.00  0.00    +0.000 N 
ATOM      5  C   UNL     1       4.538   7.608  17.719  0.00  0.00    +0.000 C 
ATOM      6  C   UNL     1       4.356   6.705  16.504  0.00  0.00    +0.000 C 
ATOM      7  C   UNL     1       3.951   5.300  16.952  0.00  0.00    +0.000 C 
ATOM      8  C   UNL     1       2.715   5.335  17.876  0.00  0.00    +0.000 C 
ATOM      9  C   UNL     1       2.889   6.353  19.024  0.00  0.00    +0.000 C 
ATOM     10  H   UNL     1       1.480   8.262  19.927  0.00  0.00    +0.000 HD
ENDROOT
BRANCH   8  11
ATOM     11  C   UNL     1       2.436   3.960  18.441  0.00  0.00    +0.000 A 
ATOM     12  C   UNL     1       1.309   3.722  19.200  0.00  0.00    +0.000 A 
ATOM     13  C   UNL     1       1.160   2.435  19.657  0.00  0.00    +0.000 A 
ATOM     14  N   UNL     1       2.034   1.447  19.407  0.00  0.00    +0.000 NA
ATOM     15  C   UNL     1       3.105   1.774  18.682  0.00  0.00    +0.000 A 
ATOM     16  N   UNL     1       4.019   0.781  18.401  0.00  0.00    +0.000 N 
ATOM     17  N   UNL     1       3.337   2.989  18.176  0.00  0.00    +0.000 NA
ATOM     18  H   UNL     1       3.565  -0.119  18.454  0.00  0.00    +0.000 HD
ATOM     19  H   UNL     1       4.511   1.003  17.547  0.00  0.00    +0.000 HD
ENDBRANCH   8  11
BRANCH   1  25
ATOM     20  C   UNL     1      -1.645  10.651  17.942  0.00  0.00    +0.000 A 
ATOM     21  C   UNL     1      -1.907  11.534  18.986  0.00  0.00    +0.000 A 
ATOM     22  C   UNL     1      -1.089  11.554  20.109  0.00  0.00    +0.000 A 
ATOM     23  C   UNL     1       0.025  10.696  20.237  0.00  0.00    +0.000 A 
ATOM     24  C   UNL     1       0.779  10.840  21.527  0.00  0.00    +0.000 C 
ATOM     25  C   UNL     1       0.318   9.792  19.194  0.00  0.00    +0.000 A 
ATOM     26  C   UNL     1      -0.538   9.789  18.061  0.00  0.00    +0.000 A 
BRANCH  20  31
ATOM     27  C   UNL     1      -3.706   9.886  13.530  0.00  0.00    +0.000 C 
ATOM     28  C   UNL     1      -3.490  10.409  14.893  0.00  0.00    +0.000 A 
ATOM     29  C   UNL     1      -4.273  11.251  15.649  0.00  0.00    +0.000 A 
ATOM     30  O   UNL     1      -3.666  11.433  16.857  0.00  0.00    +0.000 OA
ATOM     31  C   UNL     1      -2.523  10.681  16.773  0.00  0.00    +0.000 A 
ATOM     32  N   UNL     1      -2.376  10.060  15.617  0.00  0.00    +0.000 NA
ENDBRANCH  20  31
ENDBRANCH   1  25
TORSDOF 3
ENDMDL
MODEL 4
REMARK VINA RESULT:      -8.3      2.712      8.900
REMARK  Name = 
REMARK  5 active torsions:
REMARK  status: ('A' for Active; 'I' for Inactive)
REMARK    1  A    between atoms: C_1  and  C_2
REMARK    2  A    between atoms: C_5  and  C_6
REMARK    3  A    between atoms: C_9  and  C_10
REMARK    4  A    between atoms: C_11  and  N_12
REMARK    5  A    between atoms: C_19  and  C_20
REMARK                            x       y       z     vdW  Elec       q    Type
REMARK                         _______ _______ _______ _____ _____    ______ ____
ROOT
ATOM      1  N   UNL     1       1.515   8.904  19.286  0.00  0.00    +0.000 N 
ATOM      2  C   UNL     1       2.277   8.541  18.201  0.00  0.00    +0.000 C 
ATOM      3  O   UNL     1       2.143   8.942  17.052  0.00  0.00    +0.000 OA
ATOM      4  N   UNL     1       3.319   7.654  18.488  0.00  0.00    +0.000 N 
ATOM      5  C   UNL     1       4.276   7.396  17.410  0.00  0.00    +0.000 C 
ATOM      6  C   UNL     1       3.882   6.139  16.642  0.00  0.00    +0.000 C 
ATOM      7  C   UNL     1       3.818   4.943  17.592  0.00  0.00    +0.000 C 
ATOM      8  C   UNL     1       2.904   5.229  18.803  0.00  0.00    +0.000 C 
ATOM      9  C   UNL     1       3.256   6.572  19.479  0.00  0.00    +0.000 C 
ATOM     10  H   UNL     1       1.913   8.614  20.165  0.00  0.00    +0.000 HD
ENDROOT
BRANCH   8  11
ATOM     11  C   UNL     1       2.989   4.104  19.810  0.00  0.00    +0.000 A 
ATOM     12  C   UNL     1       2.018   3.944  20.776  0.00  0.00    +0.000 A 
ATOM     13  C   UNL     1       2.200   2.886  21.634  0.00  0.00    +0.000 A 
ATOM     14  N   UNL     1       3.245   2.044  21.572  0.00  0.00    +0.000 NA
ATOM     15  C   UNL     1       4.145   2.289  20.618  0.00  0.00    +0.000 A 
ATOM     16  N   UNL     1       5.226   1.439  20.522  0.00  0.00    +0.000 N 
ATOM     17  N   UNL     1       4.055   3.277  19.724  0.00  0.00    +0.000 NA
ATOM     18  H   UNL     1       4.990   0.546  20.928  0.00  0.00    +0.000 HD
ATOM     19  H   UNL     1       5.576   1.440  19.574  0.00  0.00    +0.000 HD
ENDBRANCH   8  11
BRANCH   1  25
ATOM     20  C   UNL     1      -1.599  10.613  18.190  0.00  0.00    +0.000 A 
ATOM     21  C   UNL     1      -1.925  11.401  19.290  0.00  0.00    +0.000 A 
ATOM     22  C   UNL     1      -1.125  11.385  20.426  0.00  0.00    +0.000 A 
ATOM     23  C   UNL     1       0.034  10.583  20.511  0.00  0.00    +0.000 A 
ATOM     24  C   UNL     1       0.760  10.675  21.822  0.00  0.00    +0.000 C 
ATOM     25  C   UNL     1       0.391   9.775  19.412  0.00  0.00    +0.000 A 
ATOM     26  C   UNL     1      -0.448   9.806  18.267  0.00  0.00    +0.000 A 
BRANCH  20  31
ATOM     27  C   UNL     1      -3.619   9.957  13.741  0.00  0.00    +0.000 C 
ATOM     28  C   UNL     1      -3.410  10.456  15.116  0.00  0.00    +0.000 A 
ATOM     29  C   UNL     1      -4.185  11.301  15.874  0.00  0.00    +0.000 A 
ATOM     30  O   UNL     1      -3.591  11.453  17.092  0.00  0.00    +0.000 OA
ATOM     31  C   UNL     1      -2.462  10.679  17.011  0.00  0.00    +0.000 A 
ATOM     32  N   UNL     1      -2.313  10.072  15.847  0.00  0.00    +0.000 NA
ENDBRANCH  20  31
ENDBRANCH   1  25
TORSDOF 3
ENDMDL
MODEL 5
REMARK VINA RESULT:      -8.2      2.701      8.560
REMARK  Name = 
REMARK  5 active torsions:
REMARK  status: ('A' for Active; 'I' for Inactive)
REMARK    1  A    between atoms: C_1  and  C_2
REMARK    2  A    between atoms: C_5  and  C_6
REMARK    3  A    between atoms: C_9  and  C_10
REMARK    4  A    between atoms: C_11  and  N_12
REMARK    5  A    between atoms: C_19  and  C_20
REMARK                            x       y       z     vdW  Elec       q    Type
REMARK                         _______ _______ _______ _____ _____    ______ ____
ROOT
ATOM      1  N   UNL     1       1.234   9.059  19.153  0.00  0.00    +0.000 N 
ATOM      2  C   UNL     1       2.267   8.835  18.274  0.00  0.00    +0.000 C 
ATOM      3  O   UNL     1       2.521   9.488  17.270  0.00  0.00    +0.000 OA
ATOM      4  N   UNL     1       3.107   7.770  18.617  0.00  0.00    +0.000 N 
ATOM      5  C   UNL     1       4.329   7.620  17.825  0.00  0.00    +0.000 C 
ATOM      6  C   UNL     1       4.106   6.623  16.692  0.00  0.00    +0.000 C 
ATOM      7  C   UNL     1       3.672   5.272  17.260  0.00  0.00    +0.000 C 
ATOM      8  C   UNL     1       2.451   5.417  18.194  0.00  0.00    +0.000 C 
ATOM      9  C   UNL     1       2.668   6.522  19.251  0.00  0.00    +0.000 C 
ATOM     10  H   UNL     1       1.322   8.535  20.010  0.00  0.00    +0.000 HD
ENDROOT
BRANCH   8  11
ATOM     11  C   UNL     1       2.145   4.101  18.875  0.00  0.00    +0.000 A 
ATOM     12  C   UNL     1       1.803   2.986  18.139  0.00  0.00    +0.000 A 
ATOM     13  C   UNL     1       1.549   1.848  18.865  0.00  0.00    +0.000 A 
ATOM     14  N   UNL     1       1.613   1.786  20.205  0.00  0.00    +0.000 NA
ATOM     15  C   UNL     1       1.931   2.919  20.834  0.00  0.00    +0.000 A 
ATOM     16  N   UNL     1       2.014   2.888  22.210  0.00  0.00    +0.000 N 
ATOM     17  N   UNL     1       2.214   4.073  20.225  0.00  0.00    +0.000 NA
ATOM     18  H   UNL     1       2.197   1.943  22.516  0.00  0.00    +0.000 HD
ATOM     19  H   UNL     1       2.645   3.609  22.529  0.00  0.00    +0.000 HD
ENDBRANCH   8  11
BRANCH   1  25
ATOM     20  C   UNL     1      -1.767  10.838  17.869  0.00  0.00    +0.000 A 
ATOM     21  C   UNL     1      -1.993  11.808  18.841  0.00  0.00    +0.000 A 
ATOM     22  C   UNL     1      -1.161  11.897  19.951  0.00  0.00    +0.000 A 
ATOM     23  C   UNL     1      -0.068  11.023  20.135  0.00  0.00    +0.000 A 
ATOM     24  C   UNL     1       0.705  11.250  21.402  0.00  0.00    +0.000 C 
ATOM     25  C   UNL     1       0.188  10.030  19.166  0.00  0.00    +0.000 A 
ATOM     26  C   UNL     1      -0.682   9.958  18.046  0.00  0.00    +0.000 A 
BRANCH  20  31
ATOM     27  C   UNL     1      -3.825   9.888  13.491  0.00  0.00    +0.000 C 
ATOM     28  C   UNL     1      -3.627  10.441  14.846  0.00  0.00    +0.000 A 
ATOM     29  C   UNL     1      -4.455  11.239  15.602  0.00  0.00    +0.000 A 
ATOM     30  O   UNL     1      -3.847  11.474  16.800  0.00  0.00    +0.000 OA
ATOM     31  C   UNL     1      -2.659  10.797  16.711  0.00  0.00    +0.000 A 
ATOM     32  N   UNL     1      -2.485  10.173  15.560  0.00  0.00    +0.000 NA
ENDBRANCH  20  31
ENDBRANCH   1  25
TORSDOF 3
ENDMDL
MODEL 6
REMARK VINA RESULT:      -8.0      1.635      2.077
REMARK  Name = 
REMARK  5 active torsions:
REMARK  status: ('A' for Active; 'I' for Inactive)
REMARK    1  A    between atoms: C_1  and  C_2
REMARK    2  A    between atoms: C_5  and  C_6
REMARK    3  A    between atoms: C_9  and  C_10
REMARK    4  A    between atoms: C_11  and  N_12
REMARK    5  A    between atoms: C_19  and  C_20
REMARK                            x       y       z     vdW  Elec       q    Type
REMARK                         _______ _______ _______ _____ _____    ______ ____
ROOT
ATOM      1  N   UNL     1       2.329   6.607  19.129  0.00  0.00    +0.000 N 
ATOM      2  C   UNL     1       1.971   6.961  20.407  0.00  0.00    +0.000 C 
ATOM      3  O   UNL     1       1.868   6.208  21.368  0.00  0.00    +0.000 OA
ATOM      4  N   UNL     1       1.746   8.328  20.595  0.00  0.00    +0.000 N 
ATOM      5  C   UNL     1       1.559   8.778  21.976  0.00  0.00    +0.000 C 
ATOM      6  C   UNL     1       0.074   8.841  22.316  0.00  0.00    +0.000 C 
ATOM      7  C   UNL     1      -0.645   9.783  21.349  0.00  0.00    +0.000 C 
ATOM      8  C   UNL     1      -0.371   9.402  19.878  0.00  0.00    +0.000 C 
ATOM      9  C   UNL     1       1.138   9.225  19.605  0.00  0.00    +0.000 C 
ATOM     10  H   UNL     1       2.545   7.399  18.543  0.00  0.00    +0.000 HD
ENDROOT
BRANCH   8  11
ATOM     11  C   UNL     1      -0.949  10.442  18.944  0.00  0.00    +0.000 A 
ATOM     12  C   UNL     1      -1.860  10.090  17.970  0.00  0.00    +0.000 A 
ATOM     13  C   UNL     1      -2.317  11.119  17.183  0.00  0.00    +0.000 A 
ATOM     14  N   UNL     1      -1.923  12.396  17.318  0.00  0.00    +0.000 NA
ATOM     15  C   UNL     1      -1.024  12.639  18.273  0.00  0.00    +0.000 A 
ATOM     16  N   UNL     1      -0.603  13.940  18.443  0.00  0.00    +0.000 N 
ATOM     17  N   UNL     1      -0.528  11.716  19.102  0.00  0.00    +0.000 NA
ATOM     18  H   UNL     1      -1.307  14.571  18.087  0.00  0.00    +0.000 HD
ATOM     19  H   UNL     1      -0.297  14.077  19.396  0.00  0.00    +0.000 HD
ENDBRANCH   8  11
BRANCH   1  25
ATOM     20  C   UNL     1       4.146   4.260  16.890  0.00  0.00    +0.000 A 
ATOM     21  C   UNL     1       3.537   3.038  17.161  0.00  0.00    +0.000 A 
ATOM     22  C   UNL     1       2.511   2.956  18.095  0.00  0.00    +0.000 A 
ATOM     23  C   UNL     1       2.050   4.091  18.797  0.00  0.00    +0.000 A 
ATOM     24  C   UNL     1       0.953   3.811  19.783  0.00  0.00    +0.000 C 
ATOM     25  C   UNL     1       2.646   5.344  18.543  0.00  0.00    +0.000 A 
ATOM     26  C   UNL     1       3.696   5.397  17.588  0.00  0.00    +0.000 A 
BRANCH  20  31
ATOM     27  C   UNL     1       6.740   3.954  12.709  0.00  0.00    +0.000 C 
ATOM     28  C   UNL     1       6.408   4.201  14.127  0.00  0.00    +0.000 A 
ATOM     29  C   UNL     1       7.192   4.697  15.143  0.00  0.00    +0.000 A 
ATOM     30  O   UNL     1       6.436   4.765  16.275  0.00  0.00    +0.000 OA
ATOM     31  C   UNL     1       5.208   4.296  15.886  0.00  0.00    +0.000 A 
ATOM     32  N   UNL     1       5.150   3.943  14.614  0.00  0.00    +0.000 NA
ENDBRANCH  20  31
ENDBRANCH   1  25
TORSDOF 3
ENDMDL
MODEL 7
REMARK VINA RESULT:      -7.9      2.736      8.729
REMARK  Name = 
REMARK  5 active torsions:
REMARK  status: ('A' for Active; 'I' for Inactive)
REMARK    1  A    between atoms: C_1  and  C_2
REMARK    2  A    between atoms: C_5  and  C_6
REMARK    3  A    between atoms: C_9  and  C_10
REMARK    4  A    between atoms: C_11  and  N_12
REMARK    5  A    between atoms: C_19  and  C_20
REMARK                            x       y       z     vdW  Elec       q    Type
REMARK                         _______ _______ _______ _____ _____    ______ ____
ROOT
ATOM      1  N   UNL     1       1.768   8.681  19.258  0.00  0.00    +0.000 N 
ATOM      2  C   UNL     1       2.482   8.347  18.132  0.00  0.00    +0.000 C 
ATOM      3  O   UNL     1       2.289   8.767  16.998  0.00  0.00    +0.000 OA
ATOM      4  N   UNL     1       3.547   7.468  18.354  0.00  0.00    +0.000 N 
ATOM      5  C   UNL     1       4.455   7.242  17.228  0.00  0.00    +0.000 C 
ATOM      6  C   UNL     1       4.040   5.994  16.456  0.00  0.00    +0.000 C 
ATOM      7  C   UNL     1       4.035   4.781  17.386  0.00  0.00    +0.000 C 
ATOM      8  C   UNL     1       3.176   5.034  18.643  0.00  0.00    +0.000 C 
ATOM      9  C   UNL     1       3.543   6.369  19.326  0.00  0.00    +0.000 C 
ATOM     10  H   UNL     1       2.210   8.382  20.112  0.00  0.00    +0.000 HD
ENDROOT
BRANCH   8  11
ATOM     11  C   UNL     1       3.322   3.892  19.625  0.00  0.00    +0.000 A 
ATOM     12  C   UNL     1       4.413   3.050  19.575  0.00  0.00    +0.000 A 
ATOM     13  C   UNL     1       4.439   2.051  20.517  0.00  0.00    +0.000 A 
ATOM     14  N   UNL     1       3.480   1.870  21.440  0.00  0.00    +0.000 NA
ATOM     15  C   UNL     1       2.452   2.719  21.400  0.00  0.00    +0.000 A 
ATOM     16  N   UNL     1       1.454   2.565  22.339  0.00  0.00    +0.000 N 
ATOM     17  N   UNL     1       2.338   3.733  20.538  0.00  0.00    +0.000 NA
ATOM     18  H   UNL     1       1.823   2.086  23.147  0.00  0.00    +0.000 HD
ATOM     19  H   UNL     1       0.995   3.452  22.495  0.00  0.00    +0.000 HD
ENDBRANCH   8  11
BRANCH   1  25
ATOM     20  C   UNL     1      -1.374  10.430  18.312  0.00  0.00    +0.000 A 
ATOM     21  C   UNL     1      -1.687  11.150  19.462  0.00  0.00    +0.000 A 
ATOM     22  C   UNL     1      -0.869  11.074  20.582  0.00  0.00    +0.000 A 
ATOM     23  C   UNL     1       0.296  10.276  20.602  0.00  0.00    +0.000 A 
ATOM     24  C   UNL     1       1.042  10.296  21.905  0.00  0.00    +0.000 C 
ATOM     25  C   UNL     1       0.640   9.536  19.452  0.00  0.00    +0.000 A 
ATOM     26  C   UNL     1      -0.217   9.628  18.324  0.00  0.00    +0.000 A 
BRANCH  20  31
ATOM     27  C   UNL     1      -3.520   9.942  13.901  0.00  0.00    +0.000 C 
ATOM     28  C   UNL     1      -3.254  10.411  15.276  0.00  0.00    +0.000 A 
ATOM     29  C   UNL     1      -3.964  11.291  16.060  0.00  0.00    +0.000 A 
ATOM     30  O   UNL     1      -3.337  11.394  17.266  0.00  0.00    +0.000 OA
ATOM     31  C   UNL     1      -2.256  10.558  17.153  0.00  0.00    +0.000 A 
ATOM     32  N   UNL     1      -2.166   9.958  15.979  0.00  0.00    +0.000 NA
ENDBRANCH  20  31
ENDBRANCH   1  25
TORSDOF 3
ENDMDL
MODEL 8
REMARK VINA RESULT:      -7.9      1.414      1.946
REMARK  Name = 
REMARK  5 active torsions:
REMARK  status: ('A' for Active; 'I' for Inactive)
REMARK    1  A    between atoms: C_1  and  C_2
REMARK    2  A    between atoms: C_5  and  C_6
REMARK    3  A    between atoms: C_9  and  C_10
REMARK    4  A    between atoms: C_11  and  N_12
REMARK    5  A    between atoms: C_19  and  C_20
REMARK                            x       y       z     vdW  Elec       q    Type
REMARK                         _______ _______ _______ _____ _____    ______ ____
ROOT
ATOM      1  N   UNL     1       2.293   6.669  19.050  0.00  0.00    +0.000 N 
ATOM      2  C   UNL     1       2.022   7.076  20.335  0.00  0.00    +0.000 C 
ATOM      3  O   UNL     1       2.052   6.377  21.340  0.00  0.00    +0.000 OA
ATOM      4  N   UNL     1       1.724   8.436  20.468  0.00  0.00    +0.000 N 
ATOM      5  C   UNL     1       1.626   8.954  21.834  0.00  0.00    +0.000 C 
ATOM      6  C   UNL     1       0.174   8.946  22.300  0.00  0.00    +0.000 C 
ATOM      7  C   UNL     1      -0.685   9.782  21.352  0.00  0.00    +0.000 C 
ATOM      8  C   UNL     1      -0.513   9.332  19.886  0.00  0.00    +0.000 C 
ATOM      9  C   UNL     1       0.975   9.233  19.489  0.00  0.00    +0.000 C 
ATOM     10  H   UNL     1       2.404   7.436  18.406  0.00  0.00    +0.000 HD
ENDROOT
BRANCH   8  11
ATOM     11  C   UNL     1      -1.237  10.277  18.952  0.00  0.00    +0.000 A 
ATOM     12  C   UNL     1      -1.494  11.580  19.323  0.00  0.00    +0.000 A 
ATOM     13  C   UNL     1      -2.155  12.345  18.393  0.00  0.00    +0.000 A 
ATOM     14  N   UNL     1      -2.548  11.888  17.192  0.00  0.00    +0.000 NA
ATOM     15  C   UNL     1      -2.275  10.609  16.928  0.00  0.00    +0.000 A 
ATOM     16  N   UNL     1      -2.658  10.111  15.702  0.00  0.00    +0.000 N 
ATOM     17  N   UNL     1      -1.623   9.785  17.754  0.00  0.00    +0.000 NA
ATOM     18  H   UNL     1      -2.742  10.870  15.041  0.00  0.00    +0.000 HD
ATOM     19  H   UNL     1      -2.059   9.338  15.446  0.00  0.00    +0.000 HD
ENDBRANCH   8  11
BRANCH   1  25
ATOM     20  C   UNL     1       4.164   4.295  16.886  0.00  0.00    +0.000 A 
ATOM     21  C   UNL     1       3.590   3.067  17.203  0.00  0.00    +0.000 A 
ATOM     22  C   UNL     1       2.571   2.991  18.144  0.00  0.00    +0.000 A 
ATOM     23  C   UNL     1       2.081   4.137  18.808  0.00  0.00    +0.000 A 
ATOM     24  C   UNL     1       0.997   3.861  19.809  0.00  0.00    +0.000 C 
ATOM     25  C   UNL     1       2.641   5.395  18.507  0.00  0.00    +0.000 A 
ATOM     26  C   UNL     1       3.686   5.443  17.546  0.00  0.00    +0.000 A 
BRANCH  20  31
ATOM     27  C   UNL     1       6.745   3.925  12.702  0.00  0.00    +0.000 C 
ATOM     28  C   UNL     1       6.414   4.205  14.114  0.00  0.00    +0.000 A 
ATOM     29  C   UNL     1       7.192   4.746  15.111  0.00  0.00    +0.000 A 
ATOM     30  O   UNL     1       6.440   4.830  16.246  0.00  0.00    +0.000 OA
ATOM     31  C   UNL     1       5.220   4.325  15.876  0.00  0.00    +0.000 A 
ATOM     32  N   UNL     1       5.164   3.935  14.614  0.00  0.00    +0.000 NA
ENDBRANCH  20  31
ENDBRANCH   1  25
TORSDOF 3
ENDMDL
MODEL 9
REMARK VINA RESULT:      -7.8      3.152      9.466
REMARK  Name = 
REMARK  5 active torsions:
REMARK  status: ('A' for Active; 'I' for Inactive)
REMARK    1  A    between atoms: C_1  and  C_2
REMARK    2  A    between atoms: C_5  and  C_6
REMARK    3  A    between atoms: C_9  and  C_10
REMARK    4  A    between atoms: C_11  and  N_12
REMARK    5  A    between atoms: C_19  and  C_20
REMARK                            x       y       z     vdW  Elec       q    Type
REMARK                         _______ _______ _______ _____ _____    ______ ____
ROOT
ATOM      1  N   UNL     1       0.612   9.325  19.291  0.00  0.00    +0.000 N 
ATOM      2  C   UNL     1       1.687   9.180  18.446  0.00  0.00    +0.000 C 
ATOM      3  O   UNL     1       1.932   9.861  17.459  0.00  0.00    +0.000 OA
ATOM      4  N   UNL     1       2.582   8.168  18.806  0.00  0.00    +0.000 N 
ATOM      5  C   UNL     1       3.838   8.107  18.056  0.00  0.00    +0.000 C 
ATOM      6  C   UNL     1       3.719   7.114  16.905  0.00  0.00    +0.000 C 
ATOM      7  C   UNL     1       3.355   5.730  17.443  0.00  0.00    +0.000 C 
ATOM      8  C   UNL     1       2.096   5.783  18.336  0.00  0.00    +0.000 C 
ATOM      9  C   UNL     1       2.204   6.885  19.411  0.00  0.00    +0.000 C 
ATOM     10  H   UNL     1       0.704   8.797  20.144  0.00  0.00    +0.000 HD
ENDROOT
BRANCH   8  11
ATOM     11  C   UNL     1       1.853   4.441  18.991  0.00  0.00    +0.000 A 
ATOM     12  C   UNL     1       1.400   3.366  18.256  0.00  0.00    +0.000 A 
ATOM     13  C   UNL     1       1.218   2.199  18.957  0.00  0.00    +0.000 A 
ATOM     14  N   UNL     1       1.450   2.074  20.274  0.00  0.00    +0.000 NA
ATOM     15  C   UNL     1       1.866   3.172  20.907  0.00  0.00    +0.000 A 
ATOM     16  N   UNL     1       2.120   3.077  22.259  0.00  0.00    +0.000 N 
ATOM     17  N   UNL     1       2.091   4.350  20.318  0.00  0.00    +0.000 NA
ATOM     18  H   UNL     1       2.323   2.117  22.497  0.00  0.00    +0.000 HD
ATOM     19  H   UNL     1       2.800   3.775  22.527  0.00  0.00    +0.000 HD
ENDBRANCH   8  11
BRANCH   1  25
ATOM     20  C   UNL     1      -1.630  11.972  20.629  0.00  0.00    +0.000 A 
ATOM     21  C   UNL     1      -2.575  12.119  19.617  0.00  0.00    +0.000 A 
ATOM     22  C   UNL     1      -2.493  11.350  18.463  0.00  0.00    +0.000 A 
ATOM     23  C   UNL     1      -1.466  10.401  18.270  0.00  0.00    +0.000 A 
ATOM     24  C   UNL     1      -1.521   9.680  16.954  0.00  0.00    +0.000 C 
ATOM     25  C   UNL     1      -0.495  10.227  19.278  0.00  0.00    +0.000 A 
ATOM     26  C   UNL     1      -0.599  11.031  20.444  0.00  0.00    +0.000 A 
BRANCH  20  31
ATOM     27  C   UNL     1      -3.379  14.347  24.578  0.00  0.00    +0.000 C 
ATOM     28  C   UNL     1      -2.434  13.848  23.559  0.00  0.00    +0.000 A 
ATOM     29  C   UNL     1      -1.074  14.026  23.456  0.00  0.00    +0.000 A 
ATOM     30  O   UNL     1      -0.635  13.353  22.354  0.00  0.00    +0.000 OA
ATOM     31  C   UNL     1      -1.771  12.791  21.832  0.00  0.00    +0.000 A 
ATOM     32  N   UNL     1      -2.867  13.066  22.516  0.00  0.00    +0.000 NA
ENDBRANCH  20  31
ENDBRANCH   1  25
TORSDOF 3
ENDMDL
