MODEL 1
REMARK VINA RESULT:      -8.2      0.000      0.000
REMARK  Name = 
REMARK  5 active torsions:
REMARK  status: ('A' for Active; 'I' for Inactive)
REMARK    1  A    between atoms: C_1  and  C_2
REMARK    2  A    between atoms: C_2  and  C_3
REMARK    3  A    between atoms: C_2  and  C_6
REMARK    4  A    between atoms: C_10  and  N_11
REMARK    5  A    between atoms: C_18  and  C_19
REMARK                            x       y       z     vdW  Elec       q    Type
REMARK                         _______ _______ _______ _____ _____    ______ ____
ROOT
ATOM      1  N   UNL     1       3.323   5.874  20.138  0.00  0.00    +0.000 N 
ATOM      2  C   UNL     1       4.475   5.510  19.286  0.00  0.00    +0.000 C 
ATOM      3  C   UNL     1       3.971   4.291  18.570  0.00  0.00    +0.000 A 
ATOM      4  C   UNL     1       3.022   3.688  19.399  0.00  0.00    +0.000 A 
ATOM      5  C   UNL     1       2.235   2.624  18.994  0.00  0.00    +0.000 A 
ATOM      6  C   UNL     1       2.406   2.166  17.690  0.00  0.00    +0.000 A 
ATOM      7  C   UNL     1       3.341   2.781  16.833  0.00  0.00    +0.000 A 
ATOM      8  C   UNL     1       4.143   3.860  17.258  0.00  0.00    +0.000 A 
ATOM      9  C   UNL     1       2.714   4.635  20.495  0.00  0.00    +0.000 C 
ATOM     10  O   UNL     1       1.920   4.413  21.390  0.00  0.00    +0.000 OA
ENDROOT
BRANCH   1  15
ATOM     11  C   UNL     1       1.285   8.912  19.664  0.00  0.00    +0.000 A 
ATOM     12  C   UNL     1       1.832   9.320  18.436  0.00  0.00    +0.000 A 
ATOM     13  C   UNL     1       2.516   8.419  17.628  0.00  0.00    +0.000 A 
ATOM     14  C   UNL     1       2.752   7.125  18.081  0.00  0.00    +0.000 A 
ATOM     15  C   UNL     1       2.452   6.794  19.405  0.00  0.00    +0.000 A 
ATOM     16  C   UNL     1       1.594   7.628  20.141  0.00  0.00    +0.000 A 
BRANCH  11  18
ATOM     17  C   UNL     1      -0.786  10.288  19.495  0.00  0.00    +0.000 C 
ATOM     18  C   UNL     1       0.373   9.871  20.407  0.00  0.00    +0.000 C 
BRANCH  18  19
ATOM     19  C   UNL     1      -0.137   9.345  21.724  0.00  0.00    +0.000 C 
ATOM     20  C   UNL     1       0.428   9.635  22.897  0.00  0.00    +0.000 C 
ATOM     21  F   UNL     1      -0.099   9.200  24.056  0.00  0.00    +0.000 F 
ENDBRANCH  18  19
ENDBRANCH  11  18
ENDBRANCH   1  15
BRANCH   8  22
ATOM     22  C   UNL     1       5.032   4.556  16.257  0.00  0.00    +0.000 C 
ATOM     23  F   UNL     1       5.030   3.989  15.020  0.00  0.00    +0.000 F 
ATOM     24  F   UNL     1       4.667   5.853  16.064  0.00  0.00    +0.000 F 
ATOM     25  F   UNL     1       6.335   4.588  16.651  0.00  0.00    +0.000 F 
ENDBRANCH   8  22
TORSDOF 4
ENDMDL
MODEL 2
REMARK VINA RESULT:      -7.8      1.095      1.300
REMARK  Name = 
REMARK  5 active torsions:
REMARK  status: ('A' for Active; 'I' for Inactive)
REMARK    1  A    between atoms: C_1  and  C_2
REMARK    2  A    between atoms: C_2  and  C_3
REMARK    3  A    between atoms: C_2  and  C_6
REMARK    4  A    between atoms: C_10  and  N_11
REMARK    5  A    between atoms: C_18  and  C_19
REMARK                            x       y       z     vdW  Elec       q    Type
REMARK                         _______ _______ _______ _____ _____    ______ ____
ROOT
ATOM      1  N   UNL     1       3.321   5.832  20.195  0.00  0.00    +0.000 N 
ATOM      2  C   UNL     1       4.465   5.504  19.317  0.00  0.00    +0.000 C 
ATOM      3  C   UNL     1       3.966   4.295  18.581  0.00  0.00    +0.000 A 
ATOM      4  C   UNL     1       3.039   3.659  19.409  0.00  0.00    +0.000 A 
ATOM      5  C   UNL     1       2.260   2.595  18.991  0.00  0.00    +0.000 A 
ATOM      6  C   UNL     1       2.418   2.169  17.674  0.00  0.00    +0.000 A 
ATOM      7  C   UNL     1       3.331   2.817  16.818  0.00  0.00    +0.000 A 
ATOM      8  C   UNL     1       4.124   3.897  17.256  0.00  0.00    +0.000 A 
ATOM      9  C   UNL     1       2.734   4.577  20.531  0.00  0.00    +0.000 C 
ATOM     10  O   UNL     1       1.956   4.322  21.432  0.00  0.00    +0.000 OA
ENDROOT
BRANCH   1  15
ATOM     11  C   UNL     1       1.156   8.800  19.853  0.00  0.00    +0.000 A 
ATOM     12  C   UNL     1       1.713   9.308  18.668  0.00  0.00    +0.000 A 
ATOM     13  C   UNL     1       2.457   8.491  17.824  0.00  0.00    +0.000 A 
ATOM     14  C   UNL     1       2.742   7.183  18.203  0.00  0.00    +0.000 A 
ATOM     15  C   UNL     1       2.426   6.757  19.496  0.00  0.00    +0.000 A 
ATOM     16  C   UNL     1       1.513   7.504  20.259  0.00  0.00    +0.000 A 
BRANCH  11  18
ATOM     17  C   UNL     1      -0.161   8.991  21.960  0.00  0.00    +0.000 C 
ATOM     18  C   UNL     1       0.183   9.669  20.629  0.00  0.00    +0.000 C 
BRANCH  18  19
ATOM     19  C   UNL     1       0.655  11.084  20.848  0.00  0.00    +0.000 C 
ATOM     20  C   UNL     1      -0.034  11.986  21.547  0.00  0.00    +0.000 C 
ATOM     21  F   UNL     1       0.455  13.218  21.777  0.00  0.00    +0.000 F 
ENDBRANCH  18  19
ENDBRANCH  11  18
ENDBRANCH   1  15
BRANCH   8  22
ATOM     22  C   UNL     1       4.988   4.628  16.259  0.00  0.00    +0.000 C 
ATOM     23  F   UNL     1       4.962   4.102  15.005  0.00  0.00    +0.000 F 
ATOM     24  F   UNL     1       4.614   5.930  16.115  0.00  0.00    +0.000 F 
ATOM     25  F   UNL     1       6.300   4.654  16.626  0.00  0.00    +0.000 F 
ENDBRANCH   8  22
TORSDOF 4
ENDMDL
MODEL 3
REMARK VINA RESULT:      -7.8      2.349      3.867
REMARK  Name = 
REMARK  5 active torsions:
REMARK  status: ('A' for Active; 'I' for Inactive)
REMARK    1  A    between atoms: C_1  and  C_2
REMARK    2  A    between atoms: C_2  and  C_3
REMARK    3  A    between atoms: C_2  and  C_6
REMARK    4  A    between atoms: C_10  and  N_11
REMARK    5  A    between atoms: C_18  and  C_19
REMARK                            x       y       z     vdW  Elec       q    Type
REMARK                         _______ _______ _______ _____ _____    ______ ____
ROOT
ATOM      1  N   UNL     1       4.064   3.147  18.546  0.00  0.00    +0.000 N 
ATOM      2  C   UNL     1       5.530   3.329  18.601  0.00  0.00    +0.000 C 
ATOM      3  C   UNL     1       5.735   4.541  17.740  0.00  0.00    +0.000 A 
ATOM      4  C   UNL     1       4.688   4.574  16.816  0.00  0.00    +0.000 A 
ATOM      5  C   UNL     1       4.469   5.641  15.963  0.00  0.00    +0.000 A 
ATOM      6  C   UNL     1       5.338   6.725  16.063  0.00  0.00    +0.000 A 
ATOM      7  C   UNL     1       6.383   6.718  17.009  0.00  0.00    +0.000 A 
ATOM      8  C   UNL     1       6.602   5.623  17.869  0.00  0.00    +0.000 A 
ATOM      9  C   UNL     1       3.682   3.573  17.240  0.00  0.00    +0.000 C 
ATOM     10  O   UNL     1       2.641   3.354  16.647  0.00  0.00    +0.000 OA
ENDROOT
BRANCH   1  15
ATOM     11  C   UNL     1       2.326   6.010  20.094  0.00  0.00    +0.000 A 
ATOM     12  C   UNL     1       1.312   5.288  20.746  0.00  0.00    +0.000 A 
ATOM     13  C   UNL     1       1.457   3.929  21.001  0.00  0.00    +0.000 A 
ATOM     14  C   UNL     1       2.571   3.251  20.518  0.00  0.00    +0.000 A 
ATOM     15  C   UNL     1       3.444   3.898  19.639  0.00  0.00    +0.000 A 
ATOM     16  C   UNL     1       3.407   5.300  19.547  0.00  0.00    +0.000 A 
BRANCH  11  18
ATOM     17  C   UNL     1       2.094   7.962  18.564  0.00  0.00    +0.000 C 
ATOM     18  C   UNL     1       2.213   7.522  20.027  0.00  0.00    +0.000 C 
BRANCH  18  19
ATOM     19  C   UNL     1       1.096   8.097  20.859  0.00  0.00    +0.000 C 
ATOM     20  C   UNL     1       1.300   8.900  21.904  0.00  0.00    +0.000 C 
ATOM     21  F   UNL     1       0.272   9.448  22.578  0.00  0.00    +0.000 F 
ENDBRANCH  18  19
ENDBRANCH  11  18
ENDBRANCH   1  15
BRANCH   8  22
ATOM     22  C   UNL     1       7.656   5.729  18.943  0.00  0.00    +0.000 C 
ATOM     23  F   UNL     1       8.604   4.755  18.892  0.00  0.00    +0.000 F 
ATOM     24  F   UNL     1       8.338   6.905  18.876  0.00  0.00    +0.000 F 
ATOM     25  F   UNL     1       7.128   5.672  20.197  0.00  0.00    +0.000 F 
ENDBRANCH   8  22
TORSDOF 4
ENDMDL
MODEL 4
REMARK VINA RESULT:      -7.8      3.194      4.070
REMARK  Name = 
REMARK  5 active torsions:
REMARK  status: ('A' for Active; 'I' for Inactive)
REMARK    1  A    between atoms: C_1  and  C_2
REMARK    2  A    between atoms: C_2  and  C_3
REMARK    3  A    between atoms: C_2  and  C_6
REMARK    4  A    between atoms: C_10  and  N_11
REMARK    5  A    between atoms: C_18  and  C_19
REMARK                            x       y       z     vdW  Elec       q    Type
REMARK                         _______ _______ _______ _____ _____    ______ ____
ROOT
ATOM      1  N   UNL     1       2.601   6.453  17.635  0.00  0.00    +0.000 N 
ATOM      2  C   UNL     1       1.731   5.269  17.798  0.00  0.00    +0.000 C 
ATOM      3  C   UNL     1       2.635   4.303  18.507  0.00  0.00    +0.000 A 
ATOM      4  C   UNL     1       3.946   4.625  18.149  0.00  0.00    +0.000 A 
ATOM      5  C   UNL     1       5.053   4.040  18.739  0.00  0.00    +0.000 A 
ATOM      6  C   UNL     1       4.819   3.103  19.743  0.00  0.00    +0.000 A 
ATOM      7  C   UNL     1       3.503   2.788  20.133  0.00  0.00    +0.000 A 
ATOM      8  C   UNL     1       2.381   3.384  19.522  0.00  0.00    +0.000 A 
ATOM      9  C   UNL     1       3.914   5.931  17.453  0.00  0.00    +0.000 C 
ATOM     10  O   UNL     1       4.899   6.497  17.012  0.00  0.00    +0.000 OA
ENDROOT
BRANCH   1  15
ATOM     11  C   UNL     1       1.183   9.260  19.566  0.00  0.00    +0.000 A 
ATOM     12  C   UNL     1       0.893   8.553  20.745  0.00  0.00    +0.000 A 
ATOM     13  C   UNL     1       1.519   7.344  21.022  0.00  0.00    +0.000 A 
ATOM     14  C   UNL     1       2.366   6.772  20.078  0.00  0.00    +0.000 A 
ATOM     15  C   UNL     1       2.447   7.328  18.799  0.00  0.00    +0.000 A 
ATOM     16  C   UNL     1       1.980   8.637  18.591  0.00  0.00    +0.000 A 
BRANCH  11  18
ATOM     17  C   UNL     1       1.570  11.481  18.505  0.00  0.00    +0.000 C 
ATOM     18  C   UNL     1       0.637  10.667  19.408  0.00  0.00    +0.000 C 
BRANCH  18  19
ATOM     19  C   UNL     1      -0.785  10.727  18.913  0.00  0.00    +0.000 C 
ATOM     20  C   UNL     1      -1.198  10.125  17.797  0.00  0.00    +0.000 C 
ATOM     21  F   UNL     1      -2.492  10.146  17.427  0.00  0.00    +0.000 F 
ENDBRANCH  18  19
ENDBRANCH  11  18
ENDBRANCH   1  15
BRANCH   8  22
ATOM     22  C   UNL     1       1.005   3.099  20.070  0.00  0.00    +0.000 C 
ATOM     23  F   UNL     1       1.000   2.355  21.208  0.00  0.00    +0.000 F 
ATOM     24  F   UNL     1       0.331   4.241  20.378  0.00  0.00    +0.000 F 
ATOM     25  F   UNL     1       0.219   2.429  19.182  0.00  0.00    +0.000 F 
ENDBRANCH   8  22
TORSDOF 4
ENDMDL
MODEL 5
REMARK VINA RESULT:      -7.7      1.434      1.703
REMARK  Name = 
REMARK  5 active torsions:
REMARK  status: ('A' for Active; 'I' for Inactive)
REMARK    1  A    between atoms: C_1  and  C_2
REMARK    2  A    between atoms: C_2  and  C_3
REMARK    3  A    between atoms: C_2  and  C_6
REMARK    4  A    between atoms: C_10  and  N_11
REMARK    5  A    between atoms: C_18  and  C_19
REMARK                            x       y       z     vdW  Elec       q    Type
REMARK                         _______ _______ _______ _____ _____    ______ ____
ROOT
ATOM      1  N   UNL     1       3.287   5.947  20.135  0.00  0.00    +0.000 N 
ATOM      2  C   UNL     1       4.452   5.551  19.315  0.00  0.00    +0.000 C 
ATOM      3  C   UNL     1       3.941   4.334  18.600  0.00  0.00    +0.000 A 
ATOM      4  C   UNL     1       2.960   3.759  19.410  0.00  0.00    +0.000 A 
ATOM      5  C   UNL     1       2.161   2.708  18.996  0.00  0.00    +0.000 A 
ATOM      6  C   UNL     1       2.356   2.232  17.701  0.00  0.00    +0.000 A 
ATOM      7  C   UNL     1       3.323   2.820  16.862  0.00  0.00    +0.000 A 
ATOM      8  C   UNL     1       4.137   3.886  17.296  0.00  0.00    +0.000 A 
ATOM      9  C   UNL     1       2.644   4.724  20.488  0.00  0.00    +0.000 C 
ATOM     10  O   UNL     1       1.823   4.527  21.366  0.00  0.00    +0.000 OA
ENDROOT
BRANCH   1  15
ATOM     11  C   UNL     1       1.395   9.060  19.548  0.00  0.00    +0.000 A 
ATOM     12  C   UNL     1       1.946   9.385  18.298  0.00  0.00    +0.000 A 
ATOM     13  C   UNL     1       2.575   8.418  17.523  0.00  0.00    +0.000 A 
ATOM     14  C   UNL     1       2.752   7.134  18.030  0.00  0.00    +0.000 A 
ATOM     15  C   UNL     1       2.453   6.877  19.371  0.00  0.00    +0.000 A 
ATOM     16  C   UNL     1       1.647   7.784  20.079  0.00  0.00    +0.000 A 
BRANCH  11  18
ATOM     17  C   UNL     1       1.140  11.488  20.043  0.00  0.00    +0.000 C 
ATOM     18  C   UNL     1       0.541  10.094  20.258  0.00  0.00    +0.000 C 
BRANCH  18  19
ATOM     19  C   UNL     1      -0.916  10.065  19.872  0.00  0.00    +0.000 C 
ATOM     20  C   UNL     1      -1.365  10.455  18.678  0.00  0.00    +0.000 C 
ATOM     21  F   UNL     1      -2.665  10.348  18.349  0.00  0.00    +0.000 F 
ENDBRANCH  18  19
ENDBRANCH  11  18
ENDBRANCH   1  15
BRANCH   8  22
ATOM     22  C   UNL     1       5.064   4.554  16.311  0.00  0.00    +0.000 C 
ATOM     23  F   UNL     1       5.100   3.961  15.088  0.00  0.00    +0.000 F 
ATOM     24  F   UNL     1       4.716   5.849  16.077  0.00  0.00    +0.000 F 
ATOM     25  F   UNL     1       6.353   4.586  16.749  0.00  0.00    +0.000 F 
ENDBRANCH   8  22
TORSDOF 4
ENDMDL
MODEL 6
REMARK VINA RESULT:      -7.6      1.681      2.253
REMARK  Name = 
REMARK  5 active torsions:
REMARK  status: ('A' for Active; 'I' for Inactive)
REMARK    1  A    between atoms: C_1  and  C_2
REMARK    2  A    between atoms: C_2  and  C_3
REMARK    3  A    between atoms: C_2  and  C_6
REMARK    4  A    between atoms: C_10  and  N_11
REMARK    5  A    between atoms: C_18  and  C_19
REMARK                            x       y       z     vdW  Elec       q    Type
REMARK                         _______ _______ _______ _____ _____    ______ ____
ROOT
ATOM      1  N   UNL     1       3.451   5.081  19.595  0.00  0.00    +0.000 N 
ATOM      2  C   UNL     1       4.873   5.484  19.594  0.00  0.00    +0.000 C 
ATOM      3  C   UNL     1       5.343   4.995  18.254  0.00  0.00    +0.000 A 
ATOM      4  C   UNL     1       4.540   3.907  17.906  0.00  0.00    +0.000 A 
ATOM      5  C   UNL     1       4.586   3.303  16.662  0.00  0.00    +0.000 A 
ATOM      6  C   UNL     1       5.472   3.835  15.729  0.00  0.00    +0.000 A 
ATOM      7  C   UNL     1       6.270   4.950  16.056  0.00  0.00    +0.000 A 
ATOM      8  C   UNL     1       6.219   5.554  17.329  0.00  0.00    +0.000 A 
ATOM      9  C   UNL     1       3.405   3.863  18.857  0.00  0.00    +0.000 C 
ATOM     10  O   UNL     1       2.517   3.030  18.827  0.00  0.00    +0.000 OA
ENDROOT
BRANCH   1  15
ATOM     11  C   UNL     1       1.832   8.397  19.567  0.00  0.00    +0.000 A 
ATOM     12  C   UNL     1       2.286   8.820  18.306  0.00  0.00    +0.000 A 
ATOM     13  C   UNL     1       2.733   7.900  17.365  0.00  0.00    +0.000 A 
ATOM     14  C   UNL     1       2.830   6.555  17.706  0.00  0.00    +0.000 A 
ATOM     15  C   UNL     1       2.643   6.166  19.035  0.00  0.00    +0.000 A 
ATOM     16  C   UNL     1       2.006   7.049  19.923  0.00  0.00    +0.000 A 
BRANCH  11  18
ATOM     17  C   UNL     1      -0.164   9.860  19.854  0.00  0.00    +0.000 C 
ATOM     18  C   UNL     1       1.162   9.411  20.476  0.00  0.00    +0.000 C 
BRANCH  18  19
ATOM     19  C   UNL     1       0.962   8.935  21.892  0.00  0.00    +0.000 C 
ATOM     20  C   UNL     1       0.240   9.601  22.794  0.00  0.00    +0.000 C 
ATOM     21  F   UNL     1       0.029   9.107  24.028  0.00  0.00    +0.000 F 
ENDBRANCH  18  19
ENDBRANCH  11  18
ENDBRANCH   1  15
BRANCH   8  22
ATOM     22  C   UNL     1       7.003   6.819  17.575  0.00  0.00    +0.000 C 
ATOM     23  F   UNL     1       7.926   7.101  16.616  0.00  0.00    +0.000 F 
ATOM     24  F   UNL     1       6.199   7.916  17.640  0.00  0.00    +0.000 F 
ATOM     25  F   UNL     1       7.687   6.787  18.753  0.00  0.00    +0.000 F 
ENDBRANCH   8  22
TORSDOF 4
ENDMDL
MODEL 7
REMARK VINA RESULT:      -7.6      3.361      4.242
REMARK  Name = 
REMARK  5 active torsions:
REMARK  status: ('A' for Active; 'I' for Inactive)
REMARK    1  A    between atoms: C_1  and  C_2
REMARK    2  A    between atoms: C_2  and  C_3
REMARK    3  A    between atoms: C_2  and  C_6
REMARK    4  A    between atoms: C_10  and  N_11
REMARK    5  A    between atoms: C_18  and  C_19
REMARK                            x       y       z     vdW  Elec       q    Type
REMARK                         _______ _______ _______ _____ _____    ______ ____
ROOT
ATOM      1  N   UNL     1       2.616   6.275  17.540  0.00  0.00    +0.000 N 
ATOM      2  C   UNL     1       1.712   5.136  17.806  0.00  0.00    +0.000 C 
ATOM      3  C   UNL     1       2.591   4.204  18.587  0.00  0.00    +0.000 A 
ATOM      4  C   UNL     1       3.909   4.453  18.196  0.00  0.00    +0.000 A 
ATOM      5  C   UNL     1       5.002   3.885  18.825  0.00  0.00    +0.000 A 
ATOM      6  C   UNL     1       4.749   3.042  19.905  0.00  0.00    +0.000 A 
ATOM      7  C   UNL     1       3.426   2.802  20.328  0.00  0.00    +0.000 A 
ATOM      8  C   UNL     1       2.319   3.381  19.676  0.00  0.00    +0.000 A 
ATOM      9  C   UNL     1       3.912   5.698  17.394  0.00  0.00    +0.000 C 
ATOM     10  O   UNL     1       4.909   6.194  16.902  0.00  0.00    +0.000 OA
ENDROOT
BRANCH   1  15
ATOM     11  C   UNL     1       1.394   9.339  19.193  0.00  0.00    +0.000 A 
ATOM     12  C   UNL     1       0.994   8.755  20.406  0.00  0.00    +0.000 A 
ATOM     13  C   UNL     1       1.492   7.519  20.800  0.00  0.00    +0.000 A 
ATOM     14  C   UNL     1       2.318   6.801  19.940  0.00  0.00    +0.000 A 
ATOM     15  C   UNL     1       2.500   7.247  18.629  0.00  0.00    +0.000 A 
ATOM     16  C   UNL     1       2.167   8.573  18.304  0.00  0.00    +0.000 A 
BRANCH  11  18
ATOM     17  C   UNL     1       0.526  11.443  20.206  0.00  0.00    +0.000 C 
ATOM     18  C   UNL     1       0.988  10.774  18.908  0.00  0.00    +0.000 C 
BRANCH  18  19
ATOM     19  C   UNL     1       2.053  11.593  18.225  0.00  0.00    +0.000 C 
ATOM     20  C   UNL     1       2.402  12.818  18.622  0.00  0.00    +0.000 C 
ATOM     21  F   UNL     1       3.405  13.488  18.027  0.00  0.00    +0.000 F 
ENDBRANCH  18  19
ENDBRANCH  11  18
ENDBRANCH   1  15
BRANCH   8  22
ATOM     22  C   UNL     1       0.939   3.186  20.255  0.00  0.00    +0.000 C 
ATOM     23  F   UNL     1       0.919   2.516  21.438  0.00  0.00    +0.000 F 
ATOM     24  F   UNL     1       0.314   4.371  20.497  0.00  0.00    +0.000 F 
ATOM     25  F   UNL     1       0.117   2.493  19.419  0.00  0.00    +0.000 F 
ENDBRANCH   8  22
TORSDOF 4
ENDMDL
MODEL 8
REMARK VINA RESULT:      -7.6      2.168      2.946
REMARK  Name = 
REMARK  5 active torsions:
REMARK  status: ('A' for Active; 'I' for Inactive)
REMARK    1  A    between atoms: C_1  and  C_2
REMARK    2  A    between atoms: C_2  and  C_3
REMARK    3  A    between atoms: C_2  and  C_6
REMARK    4  A    between atoms: C_10  and  N_11
REMARK    5  A    between atoms: C_18  and  C_19
REMARK                            x       y       z     vdW  Elec       q    Type
REMARK                         _______ _______ _______ _____ _____    ______ ____
ROOT
ATOM      1  N   UNL     1       3.923   4.800  19.354  0.00  0.00    +0.000 N 
ATOM      2  C   UNL     1       5.302   5.332  19.396  0.00  0.00    +0.000 C 
ATOM      3  C   UNL     1       5.787   5.073  18.000  0.00  0.00    +0.000 A 
ATOM      4  C   UNL     1       5.082   3.970  17.514  0.00  0.00    +0.000 A 
ATOM      5  C   UNL     1       5.159   3.545  16.200  0.00  0.00    +0.000 A 
ATOM      6  C   UNL     1       5.973   4.280  15.340  0.00  0.00    +0.000 A 
ATOM      7  C   UNL     1       6.670   5.411  15.809  0.00  0.00    +0.000 A 
ATOM      8  C   UNL     1       6.590   5.832  17.152  0.00  0.00    +0.000 A 
ATOM      9  C   UNL     1       3.975   3.692  18.459  0.00  0.00    +0.000 C 
ATOM     10  O   UNL     1       3.168   2.791  18.322  0.00  0.00    +0.000 OA
ENDROOT
BRANCH   1  15
ATOM     11  C   UNL     1       1.781   7.761  19.865  0.00  0.00    +0.000 A 
ATOM     12  C   UNL     1       2.285   8.545  18.814  0.00  0.00    +0.000 A 
ATOM     13  C   UNL     1       2.977   7.962  17.759  0.00  0.00    +0.000 A 
ATOM     14  C   UNL     1       3.263   6.600  17.789  0.00  0.00    +0.000 A 
ATOM     15  C   UNL     1       3.006   5.869  18.951  0.00  0.00    +0.000 A 
ATOM     16  C   UNL     1       2.141   6.404  19.920  0.00  0.00    +0.000 A 
BRANCH  11  18
ATOM     17  C   UNL     1       1.679   8.903  22.077  0.00  0.00    +0.000 C 
ATOM     18  C   UNL     1       0.859   8.412  20.880  0.00  0.00    +0.000 C 
BRANCH  18  19
ATOM     19  C   UNL     1       0.003   9.518  20.318  0.00  0.00    +0.000 C 
ATOM     20  C   UNL     1      -0.384  10.578  21.030  0.00  0.00    +0.000 C 
ATOM     21  F   UNL     1      -1.090  11.577  20.471  0.00  0.00    +0.000 F 
ENDBRANCH  18  19
ENDBRANCH  11  18
ENDBRANCH   1  15
BRANCH   8  22
ATOM     22  C   UNL     1       7.257   7.121  17.561  0.00  0.00    +0.000 C 
ATOM     23  F   UNL     1       8.118   7.623  16.635  0.00  0.00    +0.000 F 
ATOM     24  F   UNL     1       6.355   8.113  17.795  0.00  0.00    +0.000 F 
ATOM     25  F   UNL     1       7.978   6.992  18.710  0.00  0.00    +0.000 F 
ENDBRANCH   8  22
TORSDOF 4
ENDMDL
MODEL 9
REMARK VINA RESULT:      -7.6      3.057      3.815
REMARK  Name = 
REMARK  5 active torsions:
REMARK  status: ('A' for Active; 'I' for Inactive)
REMARK    1  A    between atoms: C_1  and  C_2
REMARK    2  A    between atoms: C_2  and  C_3
REMARK    3  A    between atoms: C_2  and  C_6
REMARK    4  A    between atoms: C_10  and  N_11
REMARK    5  A    between atoms: C_18  and  C_19
REMARK                            x       y       z     vdW  Elec       q    Type
REMARK                         _______ _______ _______ _____ _____    ______ ____
ROOT
ATOM      1  N   UNL     1       2.669   6.242  17.509  0.00  0.00    +0.000 N 
ATOM      2  C   UNL     1       1.765   5.101  17.768  0.00  0.00    +0.000 C 
ATOM      3  C   UNL     1       2.643   4.169  18.551  0.00  0.00    +0.000 A 
ATOM      4  C   UNL     1       3.962   4.422  18.167  0.00  0.00    +0.000 A 
ATOM      5  C   UNL     1       5.053   3.855  18.801  0.00  0.00    +0.000 A 
ATOM      6  C   UNL     1       4.796   3.009  19.877  0.00  0.00    +0.000 A 
ATOM      7  C   UNL     1       3.472   2.765  20.294  0.00  0.00    +0.000 A 
ATOM      8  C   UNL     1       2.366   3.343  19.637  0.00  0.00    +0.000 A 
ATOM      9  C   UNL     1       3.966   5.669  17.367  0.00  0.00    +0.000 C 
ATOM     10  O   UNL     1       4.965   6.168  16.882  0.00  0.00    +0.000 OA
ENDROOT
BRANCH   1  15
ATOM     11  C   UNL     1       1.336   9.232  19.211  0.00  0.00    +0.000 A 
ATOM     12  C   UNL     1       1.035   8.631  20.445  0.00  0.00    +0.000 A 
ATOM     13  C   UNL     1       1.631   7.432  20.817  0.00  0.00    +0.000 A 
ATOM     14  C   UNL     1       2.457   6.763  19.919  0.00  0.00    +0.000 A 
ATOM     15  C   UNL     1       2.545   7.212  18.599  0.00  0.00    +0.000 A 
ATOM     16  C   UNL     1       2.111   8.511  18.287  0.00  0.00    +0.000 A 
BRANCH  11  18
ATOM     17  C   UNL     1      -0.664  10.581  18.587  0.00  0.00    +0.000 C 
ATOM     18  C   UNL     1       0.826  10.636  18.943  0.00  0.00    +0.000 C 
BRANCH  18  19
ATOM     19  C   UNL     1       1.080  11.612  20.063  0.00  0.00    +0.000 C 
ATOM     20  C   UNL     1       0.104  12.213  20.745  0.00  0.00    +0.000 C 
ATOM     21  F   UNL     1       0.373  13.025  21.784  0.00  0.00    +0.000 F 
ENDBRANCH  18  19
ENDBRANCH  11  18
ENDBRANCH   1  15
BRANCH   8  22
ATOM     22  C   UNL     1       0.984   3.144  20.208  0.00  0.00    +0.000 C 
ATOM     23  F   UNL     1       0.316   4.299  20.470  0.00  0.00    +0.000 F 
ATOM     24  F   UNL     1       0.179   2.440  19.366  0.00  0.00    +0.000 F 
ATOM     25  F   UNL     1       1.000   2.448  21.379  0.00  0.00    +0.000 F 
ENDBRANCH   8  22
TORSDOF 4
ENDMDL
