MODEL 1
REMARK VINA RESULT:      -8.1      0.000      0.000
REMARK  Name = 
REMARK  5 active torsions:
REMARK  status: ('A' for Active; 'I' for Inactive)
REMARK    1  A    between atoms: C_2  and  C_13
REMARK    2  A    between atoms: N_3  and  C_4
REMARK    3  A    between atoms: C_4  and  C_5
REMARK    4  A    between atoms: N_9  and  C_10
REMARK    5  A    between atoms: C_13  and  C_14
REMARK                            x       y       z     vdW  Elec       q    Type
REMARK                         _______ _______ _______ _____ _____    ______ ____
ROOT
ATOM      1  O   UNL     1       2.249   4.896  21.189  0.00  0.00    +0.000 OA
ATOM      2  C   UNL     1       2.570   5.429  20.127  0.00  0.00    +0.000 C 
ATOM      3  N   UNL     1       2.411   6.783  19.938  0.00  0.00    +0.000 N 
ATOM      4  H   UNL     1       2.666   7.228  19.063  0.00  0.00    +0.000 HD
ENDROOT
BRANCH   2   5
ATOM      5  C   UNL     1       3.208   4.639  18.953  0.00  0.00    +0.000 C 
ATOM      6  C   UNL     1       2.222   4.442  17.776  0.00  0.00    +0.000 C 
ATOM      7  C   UNL     1       2.615   3.131  17.099  0.00  0.00    +0.000 C 
ATOM      8  C   UNL     1       3.394   2.333  18.136  0.00  0.00    +0.000 C 
ATOM      9  C   UNL     1       3.338   3.162  19.415  0.00  0.00    +0.000 C 
BRANCH   5  10
ATOM     10  C   UNL     1       4.523   5.302  18.500  0.00  0.00    +0.000 A 
ATOM     11  C   UNL     1       4.548   6.123  17.354  0.00  0.00    +0.000 A 
ATOM     12  C   UNL     1       5.723   6.753  16.926  0.00  0.00    +0.000 A 
ATOM     13  C   UNL     1       6.910   6.570  17.627  0.00  0.00    +0.000 A 
ATOM     14  C   UNL     1       6.907   5.760  18.751  0.00  0.00    +0.000 A 
ATOM     15  F   UNL     1       8.048   5.568  19.428  0.00  0.00    +0.000 F 
ATOM     16  C   UNL     1       5.739   5.138  19.191  0.00  0.00    +0.000 A 
ENDBRANCH   5  10
ENDBRANCH   2   5
BRANCH   3  17
ATOM     17  C   UNL     1       1.764   7.612  20.930  0.00  0.00    +0.000 C 
BRANCH  17  18
ATOM     18  C   UNL     1       1.116   8.766  20.256  0.00  0.00    +0.000 A 
ATOM     19  N   UNL     1       1.419   9.259  19.065  0.00  0.00    +0.000 NA
ATOM     20  N   UNL     1       0.583  10.325  18.816  0.00  0.00    +0.000 NA
ATOM     21  C   UNL     1      -0.207  10.464  19.857  0.00  0.00    +0.000 A 
ATOM     22  N   UNL     1       0.089   9.507  20.779  0.00  0.00    +0.000 N 
BRANCH  22  23
ATOM     23  C   UNL     1      -0.568   9.300  22.051  0.00  0.00    +0.000 C 
ATOM     24  C   UNL     1      -0.893  10.463  22.977  0.00  0.00    +0.000 C 
ATOM     25  C   UNL     1       0.154   9.482  23.376  0.00  0.00    +0.000 C 
ENDBRANCH  22  23
ENDBRANCH  17  18
ENDBRANCH   3  17
TORSDOF 5
ENDMDL
MODEL 2
REMARK VINA RESULT:      -8.0      1.220      1.603
REMARK  Name = 
REMARK  5 active torsions:
REMARK  status: ('A' for Active; 'I' for Inactive)
REMARK    1  A    between atoms: C_2  and  C_13
REMARK    2  A    between atoms: N_3  and  C_4
REMARK    3  A    between atoms: C_4  and  C_5
REMARK    4  A    between atoms: N_9  and  C_10
REMARK    5  A    between atoms: C_13  and  C_14
REMARK                            x       y       z     vdW  Elec       q    Type
REMARK                         _______ _______ _______ _____ _____    ______ ____
ROOT
ATOM      1  O   UNL     1       1.962   4.746  21.242  0.00  0.00    +0.000 OA
ATOM      2  C   UNL     1       2.405   5.216  20.194  0.00  0.00    +0.000 C 
ATOM      3  N   UNL     1       2.382   6.571  19.960  0.00  0.00    +0.000 N 
ATOM      4  H   UNL     1       2.739   6.965  19.097  0.00  0.00    +0.000 HD
ENDROOT
BRANCH   2   5
ATOM      5  C   UNL     1       3.054   4.336  19.091  0.00  0.00    +0.000 C 
ATOM      6  C   UNL     1       2.016   3.834  18.058  0.00  0.00    +0.000 C 
ATOM      7  C   UNL     1       2.534   2.492  17.544  0.00  0.00    +0.000 C 
ATOM      8  C   UNL     1       3.495   1.972  18.605  0.00  0.00    +0.000 C 
ATOM      9  C   UNL     1       3.424   2.979  19.748  0.00  0.00    +0.000 C 
BRANCH   5  10
ATOM     10  C   UNL     1       4.225   5.080  18.419  0.00  0.00    +0.000 A 
ATOM     11  C   UNL     1       5.489   5.127  19.043  0.00  0.00    +0.000 A 
ATOM     12  C   UNL     1       6.577   5.781  18.452  0.00  0.00    +0.000 A 
ATOM     13  C   UNL     1       6.428   6.415  17.224  0.00  0.00    +0.000 A 
ATOM     14  C   UNL     1       5.192   6.386  16.599  0.00  0.00    +0.000 A 
ATOM     15  F   UNL     1       5.034   7.004  15.419  0.00  0.00    +0.000 F 
ATOM     16  C   UNL     1       4.106   5.728  17.175  0.00  0.00    +0.000 A 
ENDBRANCH   5  10
ENDBRANCH   2   5
BRANCH   3  17
ATOM     17  C   UNL     1       1.741   7.483  20.880  0.00  0.00    +0.000 C 
BRANCH  17  18
ATOM     18  C   UNL     1       1.351   8.719  20.153  0.00  0.00    +0.000 A 
ATOM     19  N   UNL     1       1.429   8.926  18.847  0.00  0.00    +0.000 NA
ATOM     20  N   UNL     1       0.970  10.198  18.587  0.00  0.00    +0.000 NA
ATOM     21  C   UNL     1       0.626  10.741  19.733  0.00  0.00    +0.000 A 
ATOM     22  N   UNL     1       0.844   9.849  20.738  0.00  0.00    +0.000 N 
BRANCH  22  23
ATOM     23  C   UNL     1       0.572  10.049  22.145  0.00  0.00    +0.000 C 
ATOM     24  C   UNL     1      -0.615   9.387  22.828  0.00  0.00    +0.000 C 
ATOM     25  C   UNL     1      -0.614  10.864  22.634  0.00  0.00    +0.000 C 
ENDBRANCH  22  23
ENDBRANCH  17  18
ENDBRANCH   3  17
TORSDOF 5
ENDMDL
MODEL 3
REMARK VINA RESULT:      -7.7      1.721      2.458
REMARK  Name = 
REMARK  5 active torsions:
REMARK  status: ('A' for Active; 'I' for Inactive)
REMARK    1  A    between atoms: C_2  and  C_13
REMARK    2  A    between atoms: N_3  and  C_4
REMARK    3  A    between atoms: C_4  and  C_5
REMARK    4  A    between atoms: N_9  and  C_10
REMARK    5  A    between atoms: C_13  and  C_14
REMARK                            x       y       z     vdW  Elec       q    Type
REMARK                         _______ _______ _______ _____ _____    ______ ____
ROOT
ATOM      1  O   UNL     1       2.550   7.827  17.692  0.00  0.00    +0.000 OA
ATOM      2  C   UNL     1       2.289   7.166  18.697  0.00  0.00    +0.000 C 
ATOM      3  N   UNL     1       1.700   7.750  19.795  0.00  0.00    +0.000 N 
ATOM      4  H   UNL     1       1.489   7.214  20.630  0.00  0.00    +0.000 HD
ENDROOT
BRANCH   2   5
ATOM      5  C   UNL     1       2.560   5.640  18.790  0.00  0.00    +0.000 C 
ATOM      6  C   UNL     1       1.577   4.819  17.920  0.00  0.00    +0.000 C 
ATOM      7  C   UNL     1       1.416   3.467  18.614  0.00  0.00    +0.000 C 
ATOM      8  C   UNL     1       1.813   3.684  20.068  0.00  0.00    +0.000 C 
ATOM      9  C   UNL     1       2.091   5.178  20.196  0.00  0.00    +0.000 C 
BRANCH   5  10
ATOM     10  C   UNL     1       4.031   5.326  18.453  0.00  0.00    +0.000 A 
ATOM     11  C   UNL     1       4.371   4.768  17.204  0.00  0.00    +0.000 A 
ATOM     12  C   UNL     1       5.699   4.485  16.861  0.00  0.00    +0.000 A 
ATOM     13  C   UNL     1       6.724   4.744  17.764  0.00  0.00    +0.000 A 
ATOM     14  C   UNL     1       6.409   5.285  19.000  0.00  0.00    +0.000 A 
ATOM     15  F   UNL     1       7.388   5.529  19.882  0.00  0.00    +0.000 F 
ATOM     16  C   UNL     1       5.090   5.581  19.345  0.00  0.00    +0.000 A 
ENDBRANCH   5  10
ENDBRANCH   2   5
BRANCH   3  17
ATOM     17  C   UNL     1       1.465   9.175  19.855  0.00  0.00    +0.000 C 
BRANCH  17  18
ATOM     18  C   UNL     1       0.879   9.519  21.176  0.00  0.00    +0.000 A 
ATOM     19  N   UNL     1       1.287   9.089  22.360  0.00  0.00    +0.000 NA
ATOM     20  N   UNL     1       0.474   9.644  23.322  0.00  0.00    +0.000 NA
ATOM     21  C   UNL     1      -0.414  10.396  22.710  0.00  0.00    +0.000 A 
ATOM     22  N   UNL     1      -0.195  10.350  21.367  0.00  0.00    +0.000 N 
BRANCH  22  23
ATOM     23  C   UNL     1      -0.935  11.057  20.346  0.00  0.00    +0.000 C 
ATOM     24  C   UNL     1      -0.536  12.455  19.897  0.00  0.00    +0.000 C 
ATOM     25  C   UNL     1      -1.800  12.266  20.662  0.00  0.00    +0.000 C 
ENDBRANCH  22  23
ENDBRANCH  17  18
ENDBRANCH   3  17
TORSDOF 5
ENDMDL
MODEL 4
REMARK VINA RESULT:      -7.7      2.164      3.018
REMARK  Name = 
REMARK  5 active torsions:
REMARK  status: ('A' for Active; 'I' for Inactive)
REMARK    1  A    between atoms: C_2  and  C_13
REMARK    2  A    between atoms: N_3  and  C_4
REMARK    3  A    between atoms: C_4  and  C_5
REMARK    4  A    between atoms: N_9  and  C_10
REMARK    5  A    between atoms: C_13  and  C_14
REMARK                            x       y       z     vdW  Elec       q    Type
REMARK                         _______ _______ _______ _____ _____    ______ ____
ROOT
ATOM      1  O   UNL     1       1.453   5.138  17.566  0.00  0.00    +0.000 OA
ATOM      2  C   UNL     1       2.621   5.238  17.944  0.00  0.00    +0.000 C 
ATOM      3  N   UNL     1       3.161   6.463  18.258  0.00  0.00    +0.000 N 
ATOM      4  H   UNL     1       4.124   6.554  18.564  0.00  0.00    +0.000 HD
ENDROOT
BRANCH   2   5
ATOM      5  C   UNL     1       3.546   4.006  18.136  0.00  0.00    +0.000 C 
ATOM      6  C   UNL     1       2.853   2.684  17.724  0.00  0.00    +0.000 C 
ATOM      7  C   UNL     1       3.464   1.588  18.595  0.00  0.00    +0.000 C 
ATOM      8  C   UNL     1       4.047   2.288  19.815  0.00  0.00    +0.000 C 
ATOM      9  C   UNL     1       3.663   3.757  19.664  0.00  0.00    +0.000 C 
BRANCH   5  10
ATOM     10  C   UNL     1       4.885   4.210  17.401  0.00  0.00    +0.000 A 
ATOM     11  C   UNL     1       6.046   4.555  18.122  0.00  0.00    +0.000 A 
ATOM     12  C   UNL     1       7.281   4.732  17.486  0.00  0.00    +0.000 A 
ATOM     13  C   UNL     1       7.386   4.579  16.108  0.00  0.00    +0.000 A 
ATOM     14  C   UNL     1       6.254   4.248  15.381  0.00  0.00    +0.000 A 
ATOM     15  F   UNL     1       6.342   4.109  14.051  0.00  0.00    +0.000 F 
ATOM     16  C   UNL     1       5.023   4.059  16.008  0.00  0.00    +0.000 A 
ENDBRANCH   5  10
ENDBRANCH   2   5
BRANCH   3  17
ATOM     17  C   UNL     1       2.422   7.688  18.052  0.00  0.00    +0.000 C 
BRANCH  17  18
ATOM     18  C   UNL     1       1.836   8.129  19.344  0.00  0.00    +0.000 A 
ATOM     19  N   UNL     1       1.861   7.469  20.491  0.00  0.00    +0.000 NA
ATOM     20  N   UNL     1       1.206   8.226  21.437  0.00  0.00    +0.000 NA
ATOM     21  C   UNL     1       0.793   9.327  20.851  0.00  0.00    +0.000 A 
ATOM     22  N   UNL     1       1.169   9.310  19.542  0.00  0.00    +0.000 N 
BRANCH  22  23
ATOM     23  C   UNL     1       0.930  10.346  18.562  0.00  0.00    +0.000 C 
ATOM     24  C   UNL     1       1.745  11.630  18.546  0.00  0.00    +0.000 C 
ATOM     25  C   UNL     1       0.307  11.682  18.928  0.00  0.00    +0.000 C 
ENDBRANCH  22  23
ENDBRANCH  17  18
ENDBRANCH   3  17
TORSDOF 5
ENDMDL
MODEL 5
REMARK VINA RESULT:      -7.7      1.794      2.628
REMARK  Name = 
REMARK  5 active torsions:
REMARK  status: ('A' for Active; 'I' for Inactive)
REMARK    1  A    between atoms: C_2  and  C_13
REMARK    2  A    between atoms: N_3  and  C_4
REMARK    3  A    between atoms: C_4  and  C_5
REMARK    4  A    between atoms: N_9  and  C_10
REMARK    5  A    between atoms: C_13  and  C_14
REMARK                            x       y       z     vdW  Elec       q    Type
REMARK                         _______ _______ _______ _____ _____    ______ ____
ROOT
ATOM      1  O   UNL     1       1.368   5.144  17.567  0.00  0.00    +0.000 OA
ATOM      2  C   UNL     1       2.522   5.236  17.987  0.00  0.00    +0.000 C 
ATOM      3  N   UNL     1       3.057   6.459  18.323  0.00  0.00    +0.000 N 
ATOM      4  H   UNL     1       4.009   6.544  18.662  0.00  0.00    +0.000 HD
ENDROOT
BRANCH   2   5
ATOM      5  C   UNL     1       3.434   4.000  18.208  0.00  0.00    +0.000 C 
ATOM      6  C   UNL     1       2.778   2.692  17.701  0.00  0.00    +0.000 C 
ATOM      7  C   UNL     1       3.325   1.568  18.580  0.00  0.00    +0.000 C 
ATOM      8  C   UNL     1       3.811   2.228  19.863  0.00  0.00    +0.000 C 
ATOM      9  C   UNL     1       3.436   3.701  19.731  0.00  0.00    +0.000 C 
BRANCH   5  10
ATOM     10  C   UNL     1       4.824   4.229  17.583  0.00  0.00    +0.000 A 
ATOM     11  C   UNL     1       5.004   4.115  16.189  0.00  0.00    +0.000 A 
ATOM     12  C   UNL     1       6.251   4.332  15.589  0.00  0.00    +0.000 A 
ATOM     13  C   UNL     1       7.355   4.659  16.368  0.00  0.00    +0.000 A 
ATOM     14  C   UNL     1       7.199   4.768  17.740  0.00  0.00    +0.000 A 
ATOM     15  F   UNL     1       8.259   5.073  18.503  0.00  0.00    +0.000 F 
ATOM     16  C   UNL     1       5.958   4.565  18.345  0.00  0.00    +0.000 A 
ENDBRANCH   5  10
ENDBRANCH   2   5
BRANCH   3  17
ATOM     17  C   UNL     1       2.331   7.687  18.094  0.00  0.00    +0.000 C 
BRANCH  17  18
ATOM     18  C   UNL     1       1.788   8.182  19.385  0.00  0.00    +0.000 A 
ATOM     19  N   UNL     1       1.795   7.543  20.545  0.00  0.00    +0.000 NA
ATOM     20  N   UNL     1       1.194   8.350  21.484  0.00  0.00    +0.000 NA
ATOM     21  C   UNL     1       0.829   9.460  20.883  0.00  0.00    +0.000 A 
ATOM     22  N   UNL     1       1.185   9.399  19.570  0.00  0.00    +0.000 N 
BRANCH  22  23
ATOM     23  C   UNL     1       0.986  10.427  18.572  0.00  0.00    +0.000 C 
ATOM     24  C   UNL     1       2.044  11.486  18.297  0.00  0.00    +0.000 C 
ATOM     25  C   UNL     1       0.762  11.884  18.943  0.00  0.00    +0.000 C 
ENDBRANCH  22  23
ENDBRANCH  17  18
ENDBRANCH   3  17
TORSDOF 5
ENDMDL
MODEL 6
REMARK VINA RESULT:      -7.6      1.847      2.284
REMARK  Name = 
REMARK  5 active torsions:
REMARK  status: ('A' for Active; 'I' for Inactive)
REMARK    1  A    between atoms: C_2  and  C_13
REMARK    2  A    between atoms: N_3  and  C_4
REMARK    3  A    between atoms: C_4  and  C_5
REMARK    4  A    between atoms: N_9  and  C_10
REMARK    5  A    between atoms: C_13  and  C_14
REMARK                            x       y       z     vdW  Elec       q    Type
REMARK                         _______ _______ _______ _____ _____    ______ ____
ROOT
ATOM      1  O   UNL     1       3.554   7.842  16.796  0.00  0.00    +0.000 OA
ATOM      2  C   UNL     1       3.002   7.386  17.798  0.00  0.00    +0.000 C 
ATOM      3  N   UNL     1       2.120   8.148  18.529  0.00  0.00    +0.000 N 
ATOM      4  H   UNL     1       1.667   7.782  19.359  0.00  0.00    +0.000 HD
ENDROOT
BRANCH   2   5
ATOM      5  C   UNL     1       3.221   5.928  18.283  0.00  0.00    +0.000 C 
ATOM      6  C   UNL     1       2.084   4.982  17.823  0.00  0.00    +0.000 C 
ATOM      7  C   UNL     1       1.975   3.892  18.888  0.00  0.00    +0.000 C 
ATOM      8  C   UNL     1       2.597   4.467  20.153  0.00  0.00    +0.000 C 
ATOM      9  C   UNL     1       2.953   5.910  19.812  0.00  0.00    +0.000 C 
BRANCH   5  10
ATOM     10  C   UNL     1       4.609   5.413  17.854  0.00  0.00    +0.000 A 
ATOM     11  C   UNL     1       4.757   4.676  16.661  0.00  0.00    +0.000 A 
ATOM     12  C   UNL     1       6.007   4.208  16.236  0.00  0.00    +0.000 A 
ATOM     13  C   UNL     1       7.142   4.456  16.999  0.00  0.00    +0.000 A 
ATOM     14  C   UNL     1       7.016   5.171  18.179  0.00  0.00    +0.000 A 
ATOM     15  F   UNL     1       8.102   5.406  18.928  0.00  0.00    +0.000 F 
ATOM     16  C   UNL     1       5.777   5.651  18.604  0.00  0.00    +0.000 A 
ENDBRANCH   5  10
ENDBRANCH   2   5
BRANCH   3  17
ATOM     17  C   UNL     1       1.890   9.541  18.218  0.00  0.00    +0.000 C 
BRANCH  17  18
ATOM     18  C   UNL     1       0.488   9.894  18.561  0.00  0.00    +0.000 A 
ATOM     19  N   UNL     1      -0.529  10.000  17.720  0.00  0.00    +0.000 NA
ATOM     20  N   UNL     1      -1.649  10.346  18.443  0.00  0.00    +0.000 NA
ATOM     21  C   UNL     1      -1.295  10.446  19.705  0.00  0.00    +0.000 A 
ATOM     22  N   UNL     1       0.033  10.168  19.824  0.00  0.00    +0.000 N 
BRANCH  22  23
ATOM     23  C   UNL     1       0.804  10.144  21.047  0.00  0.00    +0.000 C 
ATOM     24  C   UNL     1       1.033   8.853  21.819  0.00  0.00    +0.000 C 
ATOM     25  C   UNL     1       0.164   9.910  22.406  0.00  0.00    +0.000 C 
ENDBRANCH  22  23
ENDBRANCH  17  18
ENDBRANCH   3  17
TORSDOF 5
ENDMDL
MODEL 7
REMARK VINA RESULT:      -7.6      1.932      2.733
REMARK  Name = 
REMARK  5 active torsions:
REMARK  status: ('A' for Active; 'I' for Inactive)
REMARK    1  A    between atoms: C_2  and  C_13
REMARK    2  A    between atoms: N_3  and  C_4
REMARK    3  A    between atoms: C_4  and  C_5
REMARK    4  A    between atoms: N_9  and  C_10
REMARK    5  A    between atoms: C_13  and  C_14
REMARK                            x       y       z     vdW  Elec       q    Type
REMARK                         _______ _______ _______ _____ _____    ______ ____
ROOT
ATOM      1  O   UNL     1       3.117   7.745  17.535  0.00  0.00    +0.000 OA
ATOM      2  C   UNL     1       2.683   7.067  18.466  0.00  0.00    +0.000 C 
ATOM      3  N   UNL     1       1.877   7.624  19.433  0.00  0.00    +0.000 N 
ATOM      4  H   UNL     1       1.522   7.074  20.207  0.00  0.00    +0.000 HD
ENDROOT
BRANCH   2   5
ATOM      5  C   UNL     1       2.967   5.547  18.598  0.00  0.00    +0.000 C 
ATOM      6  C   UNL     1       1.905   4.687  17.870  0.00  0.00    +0.000 C 
ATOM      7  C   UNL     1       1.821   3.368  18.635  0.00  0.00    +0.000 C 
ATOM      8  C   UNL     1       2.361   3.649  20.031  0.00  0.00    +0.000 C 
ATOM      9  C   UNL     1       2.645   5.147  20.063  0.00  0.00    +0.000 C 
BRANCH   5  10
ATOM     10  C   UNL     1       4.398   5.217  18.128  0.00  0.00    +0.000 A 
ATOM     11  C   UNL     1       5.500   5.480  18.968  0.00  0.00    +0.000 A 
ATOM     12  C   UNL     1       6.811   5.178  18.578  0.00  0.00    +0.000 A 
ATOM     13  C   UNL     1       7.056   4.613  17.331  0.00  0.00    +0.000 A 
ATOM     14  C   UNL     1       5.987   4.355  16.489  0.00  0.00    +0.000 A 
ATOM     15  F   UNL     1       6.213   3.821  15.280  0.00  0.00    +0.000 F 
ATOM     16  C   UNL     1       4.677   4.642  16.874  0.00  0.00    +0.000 A 
ENDBRANCH   5  10
ENDBRANCH   2   5
BRANCH   3  17
ATOM     17  C   UNL     1       1.601   9.043  19.457  0.00  0.00    +0.000 C 
BRANCH  17  18
ATOM     18  C   UNL     1       0.986   9.400  20.761  0.00  0.00    +0.000 A 
ATOM     19  N   UNL     1       1.408   9.033  21.961  0.00  0.00    +0.000 NA
ATOM     20  N   UNL     1       0.559   9.576  22.899  0.00  0.00    +0.000 NA
ATOM     21  C   UNL     1      -0.363  10.257  22.257  0.00  0.00    +0.000 A 
ATOM     22  N   UNL     1      -0.131  10.178  20.917  0.00  0.00    +0.000 N 
BRANCH  22  23
ATOM     23  C   UNL     1      -0.901  10.809  19.868  0.00  0.00    +0.000 C 
ATOM     24  C   UNL     1      -0.445  12.105  19.216  0.00  0.00    +0.000 C 
ATOM     25  C   UNL     1      -1.654  12.111  20.085  0.00  0.00    +0.000 C 
ENDBRANCH  22  23
ENDBRANCH  17  18
ENDBRANCH   3  17
TORSDOF 5
ENDMDL
MODEL 8
REMARK VINA RESULT:      -7.6      1.150      1.226
REMARK  Name = 
REMARK  5 active torsions:
REMARK  status: ('A' for Active; 'I' for Inactive)
REMARK    1  A    between atoms: C_2  and  C_13
REMARK    2  A    between atoms: N_3  and  C_4
REMARK    3  A    between atoms: C_4  and  C_5
REMARK    4  A    between atoms: N_9  and  C_10
REMARK    5  A    between atoms: C_13  and  C_14
REMARK                            x       y       z     vdW  Elec       q    Type
REMARK                         _______ _______ _______ _____ _____    ______ ____
ROOT
ATOM      1  O   UNL     1       2.593   4.791  20.940  0.00  0.00    +0.000 OA
ATOM      2  C   UNL     1       2.780   5.031  19.747  0.00  0.00    +0.000 C 
ATOM      3  N   UNL     1       2.537   6.283  19.231  0.00  0.00    +0.000 N 
ATOM      4  H   UNL     1       2.681   6.487  18.248  0.00  0.00    +0.000 HD
ENDROOT
BRANCH   2   5
ATOM      5  C   UNL     1       3.336   3.973  18.758  0.00  0.00    +0.000 C 
ATOM      6  C   UNL     1       2.265   3.502  17.743  0.00  0.00    +0.000 C 
ATOM      7  C   UNL     1       2.621   2.061  17.380  0.00  0.00    +0.000 C 
ATOM      8  C   UNL     1       3.485   1.535  18.518  0.00  0.00    +0.000 C 
ATOM      9  C   UNL     1       3.517   2.653  19.555  0.00  0.00    +0.000 C 
BRANCH   5  10
ATOM     10  C   UNL     1       4.606   4.495  18.057  0.00  0.00    +0.000 A 
ATOM     11  C   UNL     1       4.573   4.838  16.690  0.00  0.00    +0.000 A 
ATOM     12  C   UNL     1       5.706   5.330  16.028  0.00  0.00    +0.000 A 
ATOM     13  C   UNL     1       6.905   5.482  16.714  0.00  0.00    +0.000 A 
ATOM     14  C   UNL     1       6.958   5.142  18.056  0.00  0.00    +0.000 A 
ATOM     15  F   UNL     1       8.113   5.275  18.725  0.00  0.00    +0.000 F 
ATOM     16  C   UNL     1       5.833   4.663  18.726  0.00  0.00    +0.000 A 
ENDBRANCH   5  10
ENDBRANCH   2   5
BRANCH   3  17
ATOM     17  C   UNL     1       1.951   7.330  20.037  0.00  0.00    +0.000 C 
BRANCH  17  18
ATOM     18  C   UNL     1       1.768   8.546  19.203  0.00  0.00    +0.000 A 
ATOM     19  N   UNL     1       2.382   8.823  18.063  0.00  0.00    +0.000 NA
ATOM     20  N   UNL     1       1.929  10.045  17.618  0.00  0.00    +0.000 NA
ATOM     21  C   UNL     1       1.054  10.490  18.492  0.00  0.00    +0.000 A 
ATOM     22  N   UNL     1       0.920   9.582  19.498  0.00  0.00    +0.000 N 
BRANCH  22  23
ATOM     23  C   UNL     1       0.040   9.681  20.641  0.00  0.00    +0.000 C 
ATOM     24  C   UNL     1      -0.028  10.944  21.486  0.00  0.00    +0.000 C 
ATOM     25  C   UNL     1       0.562   9.707  22.068  0.00  0.00    +0.000 C 
ENDBRANCH  22  23
ENDBRANCH  17  18
ENDBRANCH   3  17
TORSDOF 5
ENDMDL
MODEL 9
REMARK VINA RESULT:      -7.6      3.864      7.295
REMARK  Name = 
REMARK  5 active torsions:
REMARK  status: ('A' for Active; 'I' for Inactive)
REMARK    1  A    between atoms: C_2  and  C_13
REMARK    2  A    between atoms: N_3  and  C_4
REMARK    3  A    between atoms: C_4  and  C_5
REMARK    4  A    between atoms: N_9  and  C_10
REMARK    5  A    between atoms: C_13  and  C_14
REMARK                            x       y       z     vdW  Elec       q    Type
REMARK                         _______ _______ _______ _____ _____    ______ ____
ROOT
ATOM      1  O   UNL     1       2.019   3.114  16.858  0.00  0.00    +0.000 OA
ATOM      2  C   UNL     1       2.816   3.517  17.706  0.00  0.00    +0.000 C 
ATOM      3  N   UNL     1       4.142   3.710  17.396  0.00  0.00    +0.000 N 
ATOM      4  H   UNL     1       4.806   4.035  18.091  0.00  0.00    +0.000 HD
ENDROOT
BRANCH   2   5
ATOM      5  C   UNL     1       2.387   3.873  19.155  0.00  0.00    +0.000 C 
ATOM      6  C   UNL     1       3.354   3.288  20.212  0.00  0.00    +0.000 C 
ATOM      7  C   UNL     1       2.519   3.032  21.465  0.00  0.00    +0.000 C 
ATOM      8  C   UNL     1       1.073   2.930  21.000  0.00  0.00    +0.000 C 
ATOM      9  C   UNL     1       1.126   3.026  19.479  0.00  0.00    +0.000 C 
BRANCH   5  10
ATOM     10  C   UNL     1       2.211   5.396  19.312  0.00  0.00    +0.000 A 
ATOM     11  C   UNL     1       1.777   5.938  20.540  0.00  0.00    +0.000 A 
ATOM     12  C   UNL     1       1.622   7.319  20.720  0.00  0.00    +0.000 A 
ATOM     13  C   UNL     1       1.888   8.194  19.673  0.00  0.00    +0.000 A 
ATOM     14  C   UNL     1       2.308   7.680  18.458  0.00  0.00    +0.000 A 
ATOM     15  F   UNL     1       2.557   8.515  17.439  0.00  0.00    +0.000 F 
ATOM     16  C   UNL     1       2.476   6.307  18.273  0.00  0.00    +0.000 A 
ENDBRANCH   5  10
ENDBRANCH   2   5
BRANCH   3  17
ATOM     17  C   UNL     1       4.675   3.347  16.102  0.00  0.00    +0.000 C 
BRANCH  17  18
ATOM     18  C   UNL     1       5.796   4.259  15.760  0.00  0.00    +0.000 A 
ATOM     19  N   UNL     1       6.307   5.209  16.529  0.00  0.00    +0.000 NA
ATOM     20  N   UNL     1       7.327   5.819  15.836  0.00  0.00    +0.000 NA
ATOM     21  C   UNL     1       7.418   5.236  14.661  0.00  0.00    +0.000 A 
ATOM     22  N   UNL     1       6.481   4.251  14.573  0.00  0.00    +0.000 N 
BRANCH  22  23
ATOM     23  C   UNL     1       6.268   3.359  13.456  0.00  0.00    +0.000 C 
ATOM     24  C   UNL     1       6.643   3.758  12.036  0.00  0.00    +0.000 C 
ATOM     25  C   UNL     1       5.206   3.620  12.400  0.00  0.00    +0.000 C 
ENDBRANCH  22  23
ENDBRANCH  17  18
ENDBRANCH   3  17
TORSDOF 5
ENDMDL
