MODEL 1
REMARK VINA RESULT:      -9.3      0.000      0.000
REMARK  Name = 
REMARK  4 active torsions:
REMARK  status: ('A' for Active; 'I' for Inactive)
REMARK    1  A    between atoms: C_1  and  C_2
REMARK    2  A    between atoms: C_12  and  C_13
REMARK    3  A    between atoms: N_15  and  C_16
REMARK    4  A    between atoms: C_16  and  C_17
REMARK                            x       y       z     vdW  Elec       q    Type
REMARK                         _______ _______ _______ _____ _____    ______ ____
ROOT
ATOM      1  C   UNL     1       5.017   4.994  18.346  0.00  0.00    +0.000 C 
ATOM      2  O   UNL     1       5.411   4.294  19.268  0.00  0.00    +0.000 OA
ATOM      3  N   UNL     1       3.928   5.842  18.442  0.00  0.00    +0.000 N 
ATOM      4  H   UNL     1       3.542   6.250  17.602  0.00  0.00    +0.000 HD
ENDROOT
BRANCH   1  16
ATOM      5  C   UNL     1       7.509   6.660  17.749  0.00  0.00    +0.000 C 
ATOM      6  C   UNL     1       6.867   5.735  16.757  0.00  0.00    +0.000 A 
ATOM      7  N   UNL     1       7.492   5.698  15.543  0.00  0.00    +0.000 NA
ATOM      8  C   UNL     1       6.976   4.960  14.550  0.00  0.00    +0.000 A 
ATOM      9  C   UNL     1       7.603   4.941  13.315  0.00  0.00    +0.000 A 
ATOM     10  C   UNL     1       7.068   4.213  12.258  0.00  0.00    +0.000 A 
ATOM     11  F   UNL     1       7.686   4.225  11.070  0.00  0.00    +0.000 F 
ATOM     12  C   UNL     1       5.900   3.482  12.410  0.00  0.00    +0.000 A 
ATOM     13  C   UNL     1       5.262   3.472  13.646  0.00  0.00    +0.000 A 
ATOM     14  C   UNL     1       5.796   4.208  14.718  0.00  0.00    +0.000 A 
ATOM     15  C   UNL     1       5.179   4.231  15.975  0.00  0.00    +0.000 A 
ATOM     16  C   UNL     1       5.718   4.988  17.025  0.00  0.00    +0.000 A 
ENDBRANCH   1  16
BRANCH   3  17
ATOM     17  C   UNL     1       3.153   6.005  19.658  0.00  0.00    +0.000 C 
BRANCH  17  18
ATOM     18  C   UNL     1       2.275   7.231  19.625  0.00  0.00    +0.000 A 
ATOM     19  C   UNL     1       2.199   8.048  18.494  0.00  0.00    +0.000 A 
ATOM     20  C   UNL     1       1.467   9.237  18.534  0.00  0.00    +0.000 A 
ATOM     21  C   UNL     1       0.824   9.595  19.717  0.00  0.00    +0.000 A 
ATOM     22  N   UNL     1       0.135  10.849  19.785  0.00  0.00    +0.000 N 
ATOM     23  C   UNL     1      -0.487  11.386  20.895  0.00  0.00    +0.000 A 
ATOM     24  C   UNL     1      -0.997  12.605  20.529  0.00  0.00    +0.000 A 
ATOM     25  C   UNL     1      -0.646  12.737  19.175  0.00  0.00    +0.000 A 
ATOM     26  N   UNL     1       0.037  11.688  18.714  0.00  0.00    +0.000 NA
ATOM     27  N   UNL     1       0.855   8.803  20.827  0.00  0.00    +0.000 NA
ATOM     28  C   UNL     1       1.572   7.655  20.750  0.00  0.00    +0.000 A 
ENDBRANCH  17  18
ENDBRANCH   3  17
TORSDOF 3
ENDMDL
MODEL 2
REMARK VINA RESULT:      -9.2      0.676      1.195
REMARK  Name = 
REMARK  4 active torsions:
REMARK  status: ('A' for Active; 'I' for Inactive)
REMARK    1  A    between atoms: C_1  and  C_2
REMARK    2  A    between atoms: C_12  and  C_13
REMARK    3  A    between atoms: N_15  and  C_16
REMARK    4  A    between atoms: C_16  and  C_17
REMARK                            x       y       z     vdW  Elec       q    Type
REMARK                         _______ _______ _______ _____ _____    ______ ____
ROOT
ATOM      1  C   UNL     1       4.932   4.953  18.408  0.00  0.00    +0.000 C 
ATOM      2  O   UNL     1       5.348   4.274  19.337  0.00  0.00    +0.000 OA
ATOM      3  N   UNL     1       3.804   5.750  18.490  0.00  0.00    +0.000 N 
ATOM      4  H   UNL     1       3.409   6.137  17.645  0.00  0.00    +0.000 HD
ENDROOT
BRANCH   1  16
ATOM      5  C   UNL     1       7.403   6.663  17.858  0.00  0.00    +0.000 C 
ATOM      6  C   UNL     1       6.786   5.741  16.848  0.00  0.00    +0.000 A 
ATOM      7  N   UNL     1       7.424   5.730  15.640  0.00  0.00    +0.000 NA
ATOM      8  C   UNL     1       6.929   4.996  14.632  0.00  0.00    +0.000 A 
ATOM      9  C   UNL     1       7.568   5.003  13.404  0.00  0.00    +0.000 A 
ATOM     10  C   UNL     1       7.055   4.281  12.332  0.00  0.00    +0.000 A 
ATOM     11  F   UNL     1       7.685   4.317  11.151  0.00  0.00    +0.000 F 
ATOM     12  C   UNL     1       5.896   3.530  12.463  0.00  0.00    +0.000 A 
ATOM     13  C   UNL     1       5.246   3.495  13.692  0.00  0.00    +0.000 A 
ATOM     14  C   UNL     1       5.759   4.225  14.779  0.00  0.00    +0.000 A 
ATOM     15  C   UNL     1       5.129   4.222  16.030  0.00  0.00    +0.000 A 
ATOM     16  C   UNL     1       5.646   4.974  17.094  0.00  0.00    +0.000 A 
ENDBRANCH   1  16
BRANCH   3  17
ATOM     17  C   UNL     1       3.010   5.882  19.697  0.00  0.00    +0.000 C 
BRANCH  17  18
ATOM     18  C   UNL     1       2.279   7.199  19.769  0.00  0.00    +0.000 A 
ATOM     19  C   UNL     1       1.570   7.581  20.911  0.00  0.00    +0.000 A 
ATOM     20  C   UNL     1       0.809   8.753  20.906  0.00  0.00    +0.000 A 
ATOM     21  C   UNL     1       0.764   9.524  19.747  0.00  0.00    +0.000 A 
ATOM     22  N   UNL     1      -0.073  10.686  19.713  0.00  0.00    +0.000 N 
ATOM     23  C   UNL     1      -0.290  11.512  18.628  0.00  0.00    +0.000 A 
ATOM     24  C   UNL     1      -1.173  12.484  19.023  0.00  0.00    +0.000 A 
ATOM     25  C   UNL     1      -1.446  12.181  20.367  0.00  0.00    +0.000 A 
ATOM     26  N   UNL     1      -0.792  11.101  20.796  0.00  0.00    +0.000 NA
ATOM     27  N   UNL     1       1.469   9.193  18.628  0.00  0.00    +0.000 NA
ATOM     28  C   UNL     1       2.199   8.051  18.670  0.00  0.00    +0.000 A 
ENDBRANCH  17  18
ENDBRANCH   3  17
TORSDOF 3
ENDMDL
MODEL 3
REMARK VINA RESULT:      -9.2      3.481      9.460
REMARK  Name = 
REMARK  4 active torsions:
REMARK  status: ('A' for Active; 'I' for Inactive)
REMARK    1  A    between atoms: C_1  and  C_2
REMARK    2  A    between atoms: C_12  and  C_13
REMARK    3  A    between atoms: N_15  and  C_16
REMARK    4  A    between atoms: C_16  and  C_17
REMARK                            x       y       z     vdW  Elec       q    Type
REMARK                         _______ _______ _______ _____ _____    ______ ____
ROOT
ATOM      1  C   UNL     1       2.398   5.948  19.874  0.00  0.00    +0.000 C 
ATOM      2  O   UNL     1       1.689   4.956  19.772  0.00  0.00    +0.000 OA
ATOM      3  N   UNL     1       3.780   5.906  19.837  0.00  0.00    +0.000 N 
ATOM      4  H   UNL     1       4.309   6.723  20.109  0.00  0.00    +0.000 HD
ENDROOT
BRANCH   1  16
ATOM      5  C   UNL     1       2.600   8.143  17.758  0.00  0.00    +0.000 C 
ATOM      6  C   UNL     1       1.872   8.304  19.061  0.00  0.00    +0.000 A 
ATOM      7  N   UNL     1       1.301   9.533  19.231  0.00  0.00    +0.000 NA
ATOM      8  C   UNL     1       0.678   9.824  20.382  0.00  0.00    +0.000 A 
ATOM      9  C   UNL     1       0.117  11.079  20.558  0.00  0.00    +0.000 A 
ATOM     10  C   UNL     1      -0.502  11.418  21.755  0.00  0.00    +0.000 A 
ATOM     11  F   UNL     1      -1.023  12.643  21.904  0.00  0.00    +0.000 F 
ATOM     12  C   UNL     1      -0.581  10.513  22.803  0.00  0.00    +0.000 A 
ATOM     13  C   UNL     1      -0.039   9.242  22.644  0.00  0.00    +0.000 A 
ATOM     14  C   UNL     1       0.590   8.893  21.436  0.00  0.00    +0.000 A 
ATOM     15  C   UNL     1       1.155   7.627  21.240  0.00  0.00    +0.000 A 
ATOM     16  C   UNL     1       1.795   7.307  20.034  0.00  0.00    +0.000 A 
ENDBRANCH   1  16
BRANCH   3  17
ATOM     17  C   UNL     1       4.534   4.679  19.650  0.00  0.00    +0.000 C 
BRANCH  17  18
ATOM     18  C   UNL     1       5.213   4.616  18.306  0.00  0.00    +0.000 A 
ATOM     19  C   UNL     1       6.234   5.505  17.959  0.00  0.00    +0.000 A 
ATOM     20  C   UNL     1       6.765   5.496  16.666  0.00  0.00    +0.000 A 
ATOM     21  C   UNL     1       6.255   4.595  15.733  0.00  0.00    +0.000 A 
ATOM     22  N   UNL     1       6.744   4.633  14.387  0.00  0.00    +0.000 N 
ATOM     23  C   UNL     1       6.297   3.868  13.328  0.00  0.00    +0.000 A 
ATOM     24  C   UNL     1       7.018   4.239  12.222  0.00  0.00    +0.000 A 
ATOM     25  C   UNL     1       7.888   5.236  12.691  0.00  0.00    +0.000 A 
ATOM     26  N   UNL     1       7.734   5.486  13.993  0.00  0.00    +0.000 NA
ATOM     27  N   UNL     1       5.281   3.696  16.051  0.00  0.00    +0.000 NA
ATOM     28  C   UNL     1       4.792   3.732  17.316  0.00  0.00    +0.000 A 
ENDBRANCH  17  18
ENDBRANCH   3  17
TORSDOF 3
ENDMDL
MODEL 4
REMARK VINA RESULT:      -8.7      3.560      9.603
REMARK  Name = 
REMARK  4 active torsions:
REMARK  status: ('A' for Active; 'I' for Inactive)
REMARK    1  A    between atoms: C_1  and  C_2
REMARK    2  A    between atoms: C_12  and  C_13
REMARK    3  A    between atoms: N_15  and  C_16
REMARK    4  A    between atoms: C_16  and  C_17
REMARK                            x       y       z     vdW  Elec       q    Type
REMARK                         _______ _______ _______ _____ _____    ______ ____
ROOT
ATOM      1  C   UNL     1       2.511   6.262  19.707  0.00  0.00    +0.000 C 
ATOM      2  O   UNL     1       1.895   5.229  19.480  0.00  0.00    +0.000 OA
ATOM      3  N   UNL     1       3.893   6.339  19.725  0.00  0.00    +0.000 N 
ATOM      4  H   UNL     1       4.338   7.166  20.097  0.00  0.00    +0.000 HD
ENDROOT
BRANCH   1  16
ATOM      5  C   UNL     1       2.347   8.554  17.693  0.00  0.00    +0.000 C 
ATOM      6  C   UNL     1       1.697   8.583  19.046  0.00  0.00    +0.000 A 
ATOM      7  N   UNL     1       1.018   9.738  19.312  0.00  0.00    +0.000 NA
ATOM      8  C   UNL     1       0.449   9.914  20.514  0.00  0.00    +0.000 A 
ATOM      9  C   UNL     1      -0.222  11.095  20.787  0.00  0.00    +0.000 A 
ATOM     10  C   UNL     1      -0.788  11.318  22.036  0.00  0.00    +0.000 A 
ATOM     11  F   UNL     1      -1.418  12.474  22.278  0.00  0.00    +0.000 F 
ATOM     12  C   UNL     1      -0.704  10.365  23.042  0.00  0.00    +0.000 A 
ATOM     13  C   UNL     1      -0.050   9.165  22.785  0.00  0.00    +0.000 A 
ATOM     14  C   UNL     1       0.527   8.935  21.524  0.00  0.00    +0.000 A 
ATOM     15  C   UNL     1       1.203   7.744  21.230  0.00  0.00    +0.000 A 
ATOM     16  C   UNL     1       1.787   7.543  19.972  0.00  0.00    +0.000 A 
ENDBRANCH   1  16
BRANCH   3  17
ATOM     17  C   UNL     1       4.755   5.204  19.452  0.00  0.00    +0.000 C 
BRANCH  17  18
ATOM     18  C   UNL     1       5.094   5.072  17.989  0.00  0.00    +0.000 A 
ATOM     19  C   UNL     1       4.528   4.072  17.194  0.00  0.00    +0.000 A 
ATOM     20  C   UNL     1       4.948   3.903  15.872  0.00  0.00    +0.000 A 
ATOM     21  C   UNL     1       5.941   4.741  15.367  0.00  0.00    +0.000 A 
ATOM     22  N   UNL     1       6.427   4.523  14.037  0.00  0.00    +0.000 N 
ATOM     23  C   UNL     1       7.451   5.208  13.414  0.00  0.00    +0.000 A 
ATOM     24  C   UNL     1       7.604   4.667  12.163  0.00  0.00    +0.000 A 
ATOM     25  C   UNL     1       6.631   3.656  12.099  0.00  0.00    +0.000 A 
ATOM     26  N   UNL     1       5.915   3.557  13.220  0.00  0.00    +0.000 NA
ATOM     27  N   UNL     1       6.489   5.744  16.109  0.00  0.00    +0.000 NA
ATOM     28  C   UNL     1       6.055   5.880  17.386  0.00  0.00    +0.000 A 
ENDBRANCH  17  18
ENDBRANCH   3  17
TORSDOF 3
ENDMDL
MODEL 5
REMARK VINA RESULT:      -8.1      2.132      3.483
REMARK  Name = 
REMARK  4 active torsions:
REMARK  status: ('A' for Active; 'I' for Inactive)
REMARK    1  A    between atoms: C_1  and  C_2
REMARK    2  A    between atoms: C_12  and  C_13
REMARK    3  A    between atoms: N_15  and  C_16
REMARK    4  A    between atoms: C_16  and  C_17
REMARK                            x       y       z     vdW  Elec       q    Type
REMARK                         _______ _______ _______ _____ _____    ______ ____
ROOT
ATOM      1  C   UNL     1       2.307   5.815  20.137  0.00  0.00    +0.000 C 
ATOM      2  O   UNL     1       2.008   5.055  21.049  0.00  0.00    +0.000 OA
ATOM      3  N   UNL     1       1.981   7.159  20.127  0.00  0.00    +0.000 N 
ATOM      4  H   UNL     1       2.090   7.689  19.273  0.00  0.00    +0.000 HD
ENDROOT
BRANCH   1  16
ATOM      5  C   UNL     1       1.369   3.528  18.341  0.00  0.00    +0.000 C 
ATOM      6  C   UNL     1       2.641   4.293  18.121  0.00  0.00    +0.000 A 
ATOM      7  N   UNL     1       3.362   3.876  17.038  0.00  0.00    +0.000 NA
ATOM      8  C   UNL     1       4.552   4.437  16.775  0.00  0.00    +0.000 A 
ATOM      9  C   UNL     1       5.288   3.998  15.687  0.00  0.00    +0.000 A 
ATOM     10  C   UNL     1       6.540   4.537  15.413  0.00  0.00    +0.000 A 
ATOM     11  F   UNL     1       7.238   4.083  14.363  0.00  0.00    +0.000 F 
ATOM     12  C   UNL     1       7.084   5.530  16.213  0.00  0.00    +0.000 A 
ATOM     13  C   UNL     1       6.355   5.999  17.302  0.00  0.00    +0.000 A 
ATOM     14  C   UNL     1       5.089   5.457  17.585  0.00  0.00    +0.000 A 
ATOM     15  C   UNL     1       4.329   5.894  18.677  0.00  0.00    +0.000 A 
ATOM     16  C   UNL     1       3.078   5.326  18.953  0.00  0.00    +0.000 A 
ENDBRANCH   1  16
BRANCH   3  17
ATOM     17  C   UNL     1       1.270   7.813  21.209  0.00  0.00    +0.000 C 
BRANCH  17  18
ATOM     18  C   UNL     1       0.857   9.222  20.864  0.00  0.00    +0.000 A 
ATOM     19  C   UNL     1       0.734   9.645  19.538  0.00  0.00    +0.000 A 
ATOM     20  C   UNL     1       0.463  10.985  19.250  0.00  0.00    +0.000 A 
ATOM     21  C   UNL     1       0.325  11.888  20.303  0.00  0.00    +0.000 A 
ATOM     22  N   UNL     1       0.121  13.275  20.011  0.00  0.00    +0.000 N 
ATOM     23  C   UNL     1       0.040  14.305  20.927  0.00  0.00    +0.000 A 
ATOM     24  C   UNL     1      -0.135  15.468  20.221  0.00  0.00    +0.000 A 
ATOM     25  C   UNL     1      -0.153  15.061  18.877  0.00  0.00    +0.000 A 
ATOM     26  N   UNL     1       0.001  13.743  18.734  0.00  0.00    +0.000 NA
ATOM     27  N   UNL     1       0.409  11.499  21.607  0.00  0.00    +0.000 NA
ATOM     28  C   UNL     1       0.670  10.190  21.848  0.00  0.00    +0.000 A 
ENDBRANCH  17  18
ENDBRANCH   3  17
TORSDOF 3
ENDMDL
MODEL 6
REMARK VINA RESULT:      -8.1      3.650      6.470
REMARK  Name = 
REMARK  4 active torsions:
REMARK  status: ('A' for Active; 'I' for Inactive)
REMARK    1  A    between atoms: C_1  and  C_2
REMARK    2  A    between atoms: C_12  and  C_13
REMARK    3  A    between atoms: N_15  and  C_16
REMARK    4  A    between atoms: C_16  and  C_17
REMARK                            x       y       z     vdW  Elec       q    Type
REMARK                         _______ _______ _______ _____ _____    ______ ____
ROOT
ATOM      1  C   UNL     1       0.749  10.214  18.849  0.00  0.00    +0.000 C 
ATOM      2  O   UNL     1      -0.233  10.273  18.122  0.00  0.00    +0.000 OA
ATOM      3  N   UNL     1       1.231  11.292  19.570  0.00  0.00    +0.000 N 
ATOM      4  H   UNL     1       2.142  11.232  20.002  0.00  0.00    +0.000 HD
ENDROOT
BRANCH   1  16
ATOM      5  C   UNL     1       0.582   8.479  21.358  0.00  0.00    +0.000 C 
ATOM      6  C   UNL     1       1.411   8.131  20.157  0.00  0.00    +0.000 A 
ATOM      7  N   UNL     1       2.102   6.958  20.278  0.00  0.00    +0.000 NA
ATOM      8  C   UNL     1       2.931   6.570  19.299  0.00  0.00    +0.000 A 
ATOM      9  C   UNL     1       3.644   5.390  19.434  0.00  0.00    +0.000 A 
ATOM     10  C   UNL     1       4.538   4.984  18.450  0.00  0.00    +0.000 A 
ATOM     11  F   UNL     1       5.226   3.846  18.614  0.00  0.00    +0.000 F 
ATOM     12  C   UNL     1       4.738   5.741  17.305  0.00  0.00    +0.000 A 
ATOM     13  C   UNL     1       4.020   6.921  17.140  0.00  0.00    +0.000 A 
ATOM     14  C   UNL     1       3.116   7.339  18.132  0.00  0.00    +0.000 A 
ATOM     15  C   UNL     1       2.382   8.525  18.007  0.00  0.00    +0.000 A 
ATOM     16  C   UNL     1       1.501   8.933  19.019  0.00  0.00    +0.000 A 
ENDBRANCH   1  16
BRANCH   3  17
ATOM     17  C   UNL     1       0.605  12.601  19.557  0.00  0.00    +0.000 C 
BRANCH  17  18
ATOM     18  C   UNL     1      -0.538  12.708  20.535  0.00  0.00    +0.000 A 
ATOM     19  C   UNL     1      -0.469  12.133  21.807  0.00  0.00    +0.000 A 
ATOM     20  C   UNL     1      -1.585  12.149  22.647  0.00  0.00    +0.000 A 
ATOM     21  C   UNL     1      -2.763  12.739  22.193  0.00  0.00    +0.000 A 
ATOM     22  N   UNL     1      -3.931  12.692  23.021  0.00  0.00    +0.000 N 
ATOM     23  C   UNL     1      -5.189  13.157  22.695  0.00  0.00    +0.000 A 
ATOM     24  C   UNL     1      -6.012  12.893  23.760  0.00  0.00    +0.000 A 
ATOM     25  C   UNL     1      -5.177  12.266  24.699  0.00  0.00    +0.000 A 
ATOM     26  N   UNL     1      -3.921  12.137  24.268  0.00  0.00    +0.000 NA
ATOM     27  N   UNL     1      -2.851  13.334  20.969  0.00  0.00    +0.000 NA
ATOM     28  C   UNL     1      -1.747  13.302  20.183  0.00  0.00    +0.000 A 
ENDBRANCH  17  18
ENDBRANCH   3  17
TORSDOF 3
ENDMDL
MODEL 7
REMARK VINA RESULT:      -8.0      5.963     11.314
REMARK  Name = 
REMARK  4 active torsions:
REMARK  status: ('A' for Active; 'I' for Inactive)
REMARK    1  A    between atoms: C_1  and  C_2
REMARK    2  A    between atoms: C_12  and  C_13
REMARK    3  A    between atoms: N_15  and  C_16
REMARK    4  A    between atoms: C_16  and  C_17
REMARK                            x       y       z     vdW  Elec       q    Type
REMARK                         _______ _______ _______ _____ _____    ______ ____
ROOT
ATOM      1  C   UNL     1       0.432  11.424  20.700  0.00  0.00    +0.000 C 
ATOM      2  O   UNL     1       1.548  11.837  20.986  0.00  0.00    +0.000 OA
ATOM      3  N   UNL     1       0.180  10.588  19.627  0.00  0.00    +0.000 N 
ATOM      4  H   UNL     1      -0.774  10.432  19.333  0.00  0.00    +0.000 HD
ENDROOT
BRANCH   1  16
ATOM      5  C   UNL     1      -0.444   9.891  23.193  0.00  0.00    +0.000 C 
ATOM      6  C   UNL     1      -1.149  11.109  22.672  0.00  0.00    +0.000 A 
ATOM      7  N   UNL     1      -2.235  11.482  23.411  0.00  0.00    +0.000 NA
ATOM      8  C   UNL     1      -2.989  12.516  23.011  0.00  0.00    +0.000 A 
ATOM      9  C   UNL     1      -4.101  12.879  23.753  0.00  0.00    +0.000 A 
ATOM     10  C   UNL     1      -4.921  13.924  23.341  0.00  0.00    +0.000 A 
ATOM     11  F   UNL     1      -5.998  14.244  24.069  0.00  0.00    +0.000 F 
ATOM     12  C   UNL     1      -4.646  14.635  22.182  0.00  0.00    +0.000 A 
ATOM     13  C   UNL     1      -3.526  14.300  21.430  0.00  0.00    +0.000 A 
ATOM     14  C   UNL     1      -2.694  13.243  21.841  0.00  0.00    +0.000 A 
ATOM     15  C   UNL     1      -1.562  12.868  21.106  0.00  0.00    +0.000 A 
ATOM     16  C   UNL     1      -0.759  11.798  21.523  0.00  0.00    +0.000 A 
ENDBRANCH   1  16
BRANCH   3  17
ATOM     17  C   UNL     1       1.220  10.093  18.743  0.00  0.00    +0.000 C 
BRANCH  17  18
ATOM     18  C   UNL     1       1.687   8.709  19.116  0.00  0.00    +0.000 A 
ATOM     19  C   UNL     1       2.328   7.879  18.192  0.00  0.00    +0.000 A 
ATOM     20  C   UNL     1       2.646   6.561  18.533  0.00  0.00    +0.000 A 
ATOM     21  C   UNL     1       2.307   6.091  19.800  0.00  0.00    +0.000 A 
ATOM     22  N   UNL     1       2.563   4.721  20.127  0.00  0.00    +0.000 N 
ATOM     23  C   UNL     1       2.224   4.078  21.302  0.00  0.00    +0.000 A 
ATOM     24  C   UNL     1       2.631   2.774  21.187  0.00  0.00    +0.000 A 
ATOM     25  C   UNL     1       3.214   2.701  19.912  0.00  0.00    +0.000 A 
ATOM     26  N   UNL     1       3.180   3.865  19.261  0.00  0.00    +0.000 NA
ATOM     27  N   UNL     1       1.708   6.886  20.732  0.00  0.00    +0.000 NA
ATOM     28  C   UNL     1       1.418   8.160  20.367  0.00  0.00    +0.000 A 
ENDBRANCH  17  18
ENDBRANCH   3  17
TORSDOF 3
ENDMDL
MODEL 8
REMARK VINA RESULT:      -8.0      5.835     10.995
REMARK  Name = 
REMARK  4 active torsions:
REMARK  status: ('A' for Active; 'I' for Inactive)
REMARK    1  A    between atoms: C_1  and  C_2
REMARK    2  A    between atoms: C_12  and  C_13
REMARK    3  A    between atoms: N_15  and  C_16
REMARK    4  A    between atoms: C_16  and  C_17
REMARK                            x       y       z     vdW  Elec       q    Type
REMARK                         _______ _______ _______ _____ _____    ______ ____
ROOT
ATOM      1  C   UNL     1      -0.484  11.722  18.443  0.00  0.00    +0.000 C 
ATOM      2  O   UNL     1       0.185  12.741  18.339  0.00  0.00    +0.000 OA
ATOM      3  N   UNL     1       0.055  10.448  18.407  0.00  0.00    +0.000 N 
ATOM      4  H   UNL     1      -0.561   9.652  18.313  0.00  0.00    +0.000 HD
ENDROOT
BRANCH   1  16
ATOM      5  C   UNL     1      -2.509  10.997  16.273  0.00  0.00    +0.000 C 
ATOM      6  C   UNL     1      -2.890  11.445  17.653  0.00  0.00    +0.000 A 
ATOM      7  N   UNL     1      -4.238  11.509  17.865  0.00  0.00    +0.000 NA
ATOM      8  C   UNL     1      -4.707  11.960  19.038  0.00  0.00    +0.000 A 
ATOM      9  C   UNL     1      -6.075  12.042  19.242  0.00  0.00    +0.000 A 
ATOM     10  C   UNL     1      -6.587  12.540  20.434  0.00  0.00    +0.000 A 
ATOM     11  F   UNL     1      -7.913  12.623  20.599  0.00  0.00    +0.000 F 
ATOM     12  C   UNL     1      -5.747  12.963  21.454  0.00  0.00    +0.000 A 
ATOM     13  C   UNL     1      -4.370  12.875  21.278  0.00  0.00    +0.000 A 
ATOM     14  C   UNL     1      -3.846  12.373  20.074  0.00  0.00    +0.000 A 
ATOM     15  C   UNL     1      -2.466  12.278  19.855  0.00  0.00    +0.000 A 
ATOM     16  C   UNL     1      -1.965  11.794  18.638  0.00  0.00    +0.000 A 
ENDBRANCH   1  16
BRANCH   3  17
ATOM     17  C   UNL     1       1.475  10.190  18.263  0.00  0.00    +0.000 C 
BRANCH  17  18
ATOM     18  C   UNL     1       1.867   8.818  18.750  0.00  0.00    +0.000 A 
ATOM     19  C   UNL     1       2.509   7.900  17.915  0.00  0.00    +0.000 A 
ATOM     20  C   UNL     1       2.756   6.598  18.359  0.00  0.00    +0.000 A 
ATOM     21  C   UNL     1       2.346   6.232  19.639  0.00  0.00    +0.000 A 
ATOM     22  N   UNL     1       2.529   4.879  20.071  0.00  0.00    +0.000 N 
ATOM     23  C   UNL     1       2.115   4.335  21.271  0.00  0.00    +0.000 A 
ATOM     24  C   UNL     1       2.471   3.011  21.265  0.00  0.00    +0.000 A 
ATOM     25  C   UNL     1       3.101   2.825  20.024  0.00  0.00    +0.000 A 
ATOM     26  N   UNL     1       3.143   3.940  19.293  0.00  0.00    +0.000 NA
ATOM     27  N   UNL     1       1.744   7.114  20.487  0.00  0.00    +0.000 NA
ATOM     28  C   UNL     1       1.524   8.369  20.024  0.00  0.00    +0.000 A 
ENDBRANCH  17  18
ENDBRANCH   3  17
TORSDOF 3
ENDMDL
MODEL 9
REMARK VINA RESULT:      -8.0      5.443     10.322
REMARK  Name = 
REMARK  4 active torsions:
REMARK  status: ('A' for Active; 'I' for Inactive)
REMARK    1  A    between atoms: C_1  and  C_2
REMARK    2  A    between atoms: C_12  and  C_13
REMARK    3  A    between atoms: N_15  and  C_16
REMARK    4  A    between atoms: C_16  and  C_17
REMARK                            x       y       z     vdW  Elec       q    Type
REMARK                         _______ _______ _______ _____ _____    ______ ____
ROOT
ATOM      1  C   UNL     1       0.404  11.345  18.824  0.00  0.00    +0.000 C 
ATOM      2  O   UNL     1       1.277  12.085  19.257  0.00  0.00    +0.000 OA
ATOM      3  N   UNL     1       0.669  10.185  18.116  0.00  0.00    +0.000 N 
ATOM      4  H   UNL     1      -0.084   9.719  17.631  0.00  0.00    +0.000 HD
ENDROOT
BRANCH   1  16
ATOM      5  C   UNL     1      -0.721  12.268  21.510  0.00  0.00    +0.000 C 
ATOM      6  C   UNL     1      -1.553  12.087  20.275  0.00  0.00    +0.000 A 
ATOM      7  N   UNL     1      -2.879  12.368  20.451  0.00  0.00    +0.000 NA
ATOM      8  C   UNL     1      -3.739  12.180  19.439  0.00  0.00    +0.000 A 
ATOM      9  C   UNL     1      -5.085  12.447  19.627  0.00  0.00    +0.000 A 
ATOM     10  C   UNL     1      -6.002  12.226  18.607  0.00  0.00    +0.000 A 
ATOM     11  F   UNL     1      -7.300  12.479  18.821  0.00  0.00    +0.000 F 
ATOM     12  C   UNL     1      -5.598  11.740  17.372  0.00  0.00    +0.000 A 
ATOM     13  C   UNL     1      -4.249  11.479  17.155  0.00  0.00    +0.000 A 
ATOM     14  C   UNL     1      -3.317  11.699  18.184  0.00  0.00    +0.000 A 
ATOM     15  C   UNL     1      -1.951  11.440  18.007  0.00  0.00    +0.000 A 
ATOM     16  C   UNL     1      -1.042  11.648  19.053  0.00  0.00    +0.000 A 
ENDBRANCH   1  16
BRANCH   3  17
ATOM     17  C   UNL     1       2.013   9.716  17.834  0.00  0.00    +0.000 C 
BRANCH  17  18
ATOM     18  C   UNL     1       2.308   8.384  18.476  0.00  0.00    +0.000 A 
ATOM     19  C   UNL     1       3.044   7.398  17.812  0.00  0.00    +0.000 A 
ATOM     20  C   UNL     1       3.202   6.134  18.385  0.00  0.00    +0.000 A 
ATOM     21  C   UNL     1       2.611   5.873  19.620  0.00  0.00    +0.000 A 
ATOM     22  N   UNL     1       2.708   4.557  20.176  0.00  0.00    +0.000 N 
ATOM     23  C   UNL     1       2.121   4.113  21.344  0.00  0.00    +0.000 A 
ATOM     24  C   UNL     1       2.450   2.789  21.490  0.00  0.00    +0.000 A 
ATOM     25  C   UNL     1       3.244   2.501  20.368  0.00  0.00    +0.000 A 
ATOM     26  N   UNL     1       3.407   3.555  19.567  0.00  0.00    +0.000 NA
ATOM     27  N   UNL     1       1.914   6.824  20.304  0.00  0.00    +0.000 NA
ATOM     28  C   UNL     1       1.783   8.040  19.719  0.00  0.00    +0.000 A 
ENDBRANCH  17  18
ENDBRANCH   3  17
TORSDOF 3
ENDMDL
