MODEL 1
REMARK VINA RESULT:      -8.7      0.000      0.000
REMARK  Name = 
REMARK  5 active torsions:
REMARK  status: ('A' for Active; 'I' for Inactive)
REMARK    1  A    between atoms: N_6  and  C_7
REMARK    2  A    between atoms: C_11  and  C_12
REMARK    3  A    between atoms: C_12  and  N_13
REMARK    4  A    between atoms: N_13  and  C_14
REMARK    5  A    between atoms: C_16  and  C_17
REMARK                            x       y       z     vdW  Elec       q    Type
REMARK                         _______ _______ _______ _____ _____    ______ ____
ROOT
ATOM      1  N   UNL     1       4.543   2.909  17.387  0.00  0.00    +0.000 N 
ATOM      2  H   UNL     1       4.923   2.787  18.321  0.00  0.00    +0.000 HD
ENDROOT
BRANCH   1   3
ATOM      3  C   UNL     1       5.407   3.740  16.644  0.00  0.00    +0.000 A 
ATOM      4  N   UNL     1       5.530   3.640  15.301  0.00  0.00    +0.000 NA
ATOM      5  C   UNL     1       6.397   4.510  14.691  0.00  0.00    +0.000 A 
ATOM      6  N   UNL     1       7.144   5.422  15.343  0.00  0.00    +0.000 NA
ATOM      7  C   UNL     1       7.040   5.486  16.665  0.00  0.00    +0.000 A 
ATOM      8  C   UNL     1       7.846   6.396  17.339  0.00  0.00    +0.000 A 
ATOM      9  C   UNL     1       7.804   6.519  18.727  0.00  0.00    +0.000 A 
ATOM     10  C   UNL     1       6.926   5.734  19.459  0.00  0.00    +0.000 A 
ATOM     11  C   UNL     1       6.113   4.818  18.798  0.00  0.00    +0.000 A 
ATOM     12  C   UNL     1       6.163   4.674  17.387  0.00  0.00    +0.000 A 
BRANCH   5  13
ATOM     13  C   UNL     1       6.603   4.510  13.180  0.00  0.00    +0.000 C 
ATOM     14  F   UNL     1       7.758   5.129  12.790  0.00  0.00    +0.000 F 
ATOM     15  F   UNL     1       6.613   3.282  12.588  0.00  0.00    +0.000 F 
ENDBRANCH   5  13
ENDBRANCH   1   3
BRANCH   1  16
ATOM     16  C   UNL     1       3.100   3.039  17.427  0.00  0.00    +0.000 C 
BRANCH  16  21
ATOM     17  C   UNL     1       2.172   6.271  19.389  0.00  0.00    +0.000 A 
ATOM     18  C   UNL     1       2.018   5.740  20.674  0.00  0.00    +0.000 A 
ATOM     19  C   UNL     1       2.199   4.375  20.913  0.00  0.00    +0.000 A 
ATOM     20  C   UNL     1       2.552   3.508  19.876  0.00  0.00    +0.000 A 
ATOM     21  C   UNL     1       2.751   3.996  18.577  0.00  0.00    +0.000 A 
ATOM     22  C   UNL     1       2.550   5.379  18.355  0.00  0.00    +0.000 A 
BRANCH  17  28
ATOM     23  O   UNL     1       1.125   8.474  21.215  0.00  0.00    +0.000 OA
ATOM     24  C   UNL     1       1.410   8.599  20.034  0.00  0.00    +0.000 C 
ATOM     25  C   UNL     1       1.133   9.874  19.266  0.00  0.00    +0.000 C 
ATOM     26  C   UNL     1       1.976   9.723  18.017  0.00  0.00    +0.000 C 
ATOM     27  C   UNL     1       2.032   8.227  17.807  0.00  0.00    +0.000 C 
ATOM     28  N   UNL     1       1.938   7.656  19.130  0.00  0.00    +0.000 N 
ENDBRANCH  17  28
ENDBRANCH  16  21
ENDBRANCH   1  16
TORSDOF 5
ENDMDL
MODEL 2
REMARK VINA RESULT:      -8.7      4.225      7.750
REMARK  Name = 
REMARK  5 active torsions:
REMARK  status: ('A' for Active; 'I' for Inactive)
REMARK    1  A    between atoms: N_6  and  C_7
REMARK    2  A    between atoms: C_11  and  C_12
REMARK    3  A    between atoms: C_12  and  N_13
REMARK    4  A    between atoms: N_13  and  C_14
REMARK    5  A    between atoms: C_16  and  C_17
REMARK                            x       y       z     vdW  Elec       q    Type
REMARK                         _______ _______ _______ _____ _____    ______ ____
ROOT
ATOM      1  N   UNL     1       3.245   6.990  17.574  0.00  0.00    +0.000 N 
ATOM      2  H   UNL     1       2.612   7.394  16.890  0.00  0.00    +0.000 HD
ENDROOT
BRANCH   1   3
ATOM      3  C   UNL     1       2.553   6.803  18.788  0.00  0.00    +0.000 A 
ATOM      4  N   UNL     1       2.171   7.838  19.569  0.00  0.00    +0.000 NA
ATOM      5  C   UNL     1       1.496   7.529  20.723  0.00  0.00    +0.000 A 
ATOM      6  N   UNL     1       1.226   6.275  21.133  0.00  0.00    +0.000 NA
ATOM      7  C   UNL     1       1.637   5.266  20.374  0.00  0.00    +0.000 A 
ATOM      8  C   UNL     1       1.397   3.973  20.823  0.00  0.00    +0.000 A 
ATOM      9  C   UNL     1       1.805   2.860  20.090  0.00  0.00    +0.000 A 
ATOM     10  C   UNL     1       2.449   3.036  18.875  0.00  0.00    +0.000 A 
ATOM     11  C   UNL     1       2.697   4.325  18.413  0.00  0.00    +0.000 A 
ATOM     12  C   UNL     1       2.301   5.464  19.161  0.00  0.00    +0.000 A 
BRANCH   5  13
ATOM     13  C   UNL     1       0.993   8.611  21.672  0.00  0.00    +0.000 C 
ATOM     14  F   UNL     1       1.142   9.878  21.180  0.00  0.00    +0.000 F 
ATOM     15  F   UNL     1      -0.313   8.502  22.048  0.00  0.00    +0.000 F 
ENDBRANCH   5  13
ENDBRANCH   1   3
BRANCH   1  16
ATOM     16  C   UNL     1       4.570   7.565  17.456  0.00  0.00    +0.000 C 
BRANCH  16  21
ATOM     17  C   UNL     1       6.618   4.967  15.403  0.00  0.00    +0.000 A 
ATOM     18  C   UNL     1       7.392   4.406  16.424  0.00  0.00    +0.000 A 
ATOM     19  C   UNL     1       7.272   4.852  17.744  0.00  0.00    +0.000 A 
ATOM     20  C   UNL     1       6.364   5.859  18.078  0.00  0.00    +0.000 A 
ATOM     21  C   UNL     1       5.541   6.430  17.098  0.00  0.00    +0.000 A 
ATOM     22  C   UNL     1       5.688   5.973  15.767  0.00  0.00    +0.000 A 
BRANCH  17  28
ATOM     23  O   UNL     1       8.602   5.872  13.275  0.00  0.00    +0.000 OA
ATOM     24  C   UNL     1       7.703   5.060  13.116  0.00  0.00    +0.000 C 
ATOM     25  C   UNL     1       7.361   4.488  11.757  0.00  0.00    +0.000 C 
ATOM     26  C   UNL     1       6.501   3.286  12.087  0.00  0.00    +0.000 C 
ATOM     27  C   UNL     1       5.835   3.674  13.388  0.00  0.00    +0.000 C 
ATOM     28  N   UNL     1       6.774   4.551  14.046  0.00  0.00    +0.000 N 
ENDBRANCH  17  28
ENDBRANCH  16  21
ENDBRANCH   1  16
TORSDOF 5
ENDMDL
MODEL 3
REMARK VINA RESULT:      -8.6      0.919      1.187
REMARK  Name = 
REMARK  5 active torsions:
REMARK  status: ('A' for Active; 'I' for Inactive)
REMARK    1  A    between atoms: N_6  and  C_7
REMARK    2  A    between atoms: C_11  and  C_12
REMARK    3  A    between atoms: C_12  and  N_13
REMARK    4  A    between atoms: N_13  and  C_14
REMARK    5  A    between atoms: C_16  and  C_17
REMARK                            x       y       z     vdW  Elec       q    Type
REMARK                         _______ _______ _______ _____ _____    ______ ____
ROOT
ATOM      1  N   UNL     1       4.461   2.990  17.348  0.00  0.00    +0.000 N 
ATOM      2  H   UNL     1       4.828   2.824  18.281  0.00  0.00    +0.000 HD
ENDROOT
BRANCH   1   3
ATOM      3  C   UNL     1       5.362   3.811  16.639  0.00  0.00    +0.000 A 
ATOM      4  N   UNL     1       5.507   3.734  15.297  0.00  0.00    +0.000 NA
ATOM      5  C   UNL     1       6.410   4.591  14.720  0.00  0.00    +0.000 A 
ATOM      6  N   UNL     1       7.171   5.467  15.405  0.00  0.00    +0.000 NA
ATOM      7  C   UNL     1       7.044   5.508  16.726  0.00  0.00    +0.000 A 
ATOM      8  C   UNL     1       7.863   6.379  17.433  0.00  0.00    +0.000 A 
ATOM      9  C   UNL     1       7.798   6.476  18.822  0.00  0.00    +0.000 A 
ATOM     10  C   UNL     1       6.885   5.702  19.521  0.00  0.00    +0.000 A 
ATOM     11  C   UNL     1       6.058   4.824  18.827  0.00  0.00    +0.000 A 
ATOM     12  C   UNL     1       6.130   4.707  17.415  0.00  0.00    +0.000 A 
BRANCH   5  13
ATOM     13  C   UNL     1       6.644   4.616  13.214  0.00  0.00    +0.000 C 
ATOM     14  F   UNL     1       7.830   5.195  12.858  0.00  0.00    +0.000 F 
ATOM     15  F   UNL     1       6.615   3.401  12.595  0.00  0.00    +0.000 F 
ENDBRANCH   5  13
ENDBRANCH   1   3
BRANCH   1  16
ATOM     16  C   UNL     1       3.024   3.174  17.383  0.00  0.00    +0.000 C 
BRANCH  16  21
ATOM     17  C   UNL     1       2.144   6.446  19.300  0.00  0.00    +0.000 A 
ATOM     18  C   UNL     1       2.033   5.944  20.601  0.00  0.00    +0.000 A 
ATOM     19  C   UNL     1       2.227   4.585  20.865  0.00  0.00    +0.000 A 
ATOM     20  C   UNL     1       2.551   3.696  19.836  0.00  0.00    +0.000 A 
ATOM     21  C   UNL     1       2.707   4.155  18.522  0.00  0.00    +0.000 A 
ATOM     22  C   UNL     1       2.493   5.532  18.275  0.00  0.00    +0.000 A 
BRANCH  17  28
ATOM     23  O   UNL     1       2.944   8.146  16.902  0.00  0.00    +0.000 OA
ATOM     24  C   UNL     1       2.343   8.541  17.890  0.00  0.00    +0.000 C 
ATOM     25  C   UNL     1       2.037  10.006  18.119  0.00  0.00    +0.000 C 
ATOM     26  C   UNL     1       0.984   9.979  19.207  0.00  0.00    +0.000 C 
ATOM     27  C   UNL     1       1.308   8.722  19.983  0.00  0.00    +0.000 C 
ATOM     28  N   UNL     1       1.896   7.824  19.018  0.00  0.00    +0.000 N 
ENDBRANCH  17  28
ENDBRANCH  16  21
ENDBRANCH   1  16
TORSDOF 5
ENDMDL
MODEL 4
REMARK VINA RESULT:      -8.5      2.032      3.251
REMARK  Name = 
REMARK  5 active torsions:
REMARK  status: ('A' for Active; 'I' for Inactive)
REMARK    1  A    between atoms: N_6  and  C_7
REMARK    2  A    between atoms: C_11  and  C_12
REMARK    3  A    between atoms: C_12  and  N_13
REMARK    4  A    between atoms: N_13  and  C_14
REMARK    5  A    between atoms: C_16  and  C_17
REMARK                            x       y       z     vdW  Elec       q    Type
REMARK                         _______ _______ _______ _____ _____    ______ ____
ROOT
ATOM      1  N   UNL     1       4.092   3.922  16.519  0.00  0.00    +0.000 N 
ATOM      2  H   UNL     1       3.774   3.442  15.682  0.00  0.00    +0.000 HD
ENDROOT
BRANCH   1   3
ATOM      3  C   UNL     1       5.292   4.605  16.230  0.00  0.00    +0.000 A 
ATOM      4  N   UNL     1       5.884   5.435  17.118  0.00  0.00    +0.000 NA
ATOM      5  C   UNL     1       7.052   6.035  16.723  0.00  0.00    +0.000 A 
ATOM      6  N   UNL     1       7.617   5.874  15.510  0.00  0.00    +0.000 NA
ATOM      7  C   UNL     1       7.007   5.084  14.635  0.00  0.00    +0.000 A 
ATOM      8  C   UNL     1       7.568   4.957  13.369  0.00  0.00    +0.000 A 
ATOM      9  C   UNL     1       6.984   4.155  12.391  0.00  0.00    +0.000 A 
ATOM     10  C   UNL     1       5.828   3.448  12.683  0.00  0.00    +0.000 A 
ATOM     11  C   UNL     1       5.255   3.565  13.945  0.00  0.00    +0.000 A 
ATOM     12  C   UNL     1       5.832   4.394  14.941  0.00  0.00    +0.000 A 
BRANCH   5  13
ATOM     13  C   UNL     1       7.825   6.972  17.644  0.00  0.00    +0.000 C 
ATOM     14  F   UNL     1       7.280   8.223  17.727  0.00  0.00    +0.000 F 
ATOM     15  F   UNL     1       7.977   6.540  18.928  0.00  0.00    +0.000 F 
ENDBRANCH   5  13
ENDBRANCH   1   3
BRANCH   1  16
ATOM     16  C   UNL     1       3.864   3.112  17.699  0.00  0.00    +0.000 C 
BRANCH  16  21
ATOM     17  C   UNL     1       2.264   6.202  19.444  0.00  0.00    +0.000 A 
ATOM     18  C   UNL     1       1.844   5.615  20.641  0.00  0.00    +0.000 A 
ATOM     19  C   UNL     1       2.058   4.256  20.889  0.00  0.00    +0.000 A 
ATOM     20  C   UNL     1       2.711   3.453  19.950  0.00  0.00    +0.000 A 
ATOM     21  C   UNL     1       3.182   4.000  18.749  0.00  0.00    +0.000 A 
ATOM     22  C   UNL     1       2.943   5.375  18.514  0.00  0.00    +0.000 A 
BRANCH  17  28
ATOM     23  O   UNL     1       1.145   8.403  21.230  0.00  0.00    +0.000 OA
ATOM     24  C   UNL     1       1.442   8.520  20.050  0.00  0.00    +0.000 C 
ATOM     25  C   UNL     1       1.145   9.779  19.263  0.00  0.00    +0.000 C 
ATOM     26  C   UNL     1       2.006   9.632  18.027  0.00  0.00    +0.000 C 
ATOM     27  C   UNL     1       2.099   8.135  17.836  0.00  0.00    +0.000 C 
ATOM     28  N   UNL     1       2.002   7.578  19.165  0.00  0.00    +0.000 N 
ENDBRANCH  17  28
ENDBRANCH  16  21
ENDBRANCH   1  16
TORSDOF 5
ENDMDL
MODEL 5
REMARK VINA RESULT:      -8.4      2.124      3.388
REMARK  Name = 
REMARK  5 active torsions:
REMARK  status: ('A' for Active; 'I' for Inactive)
REMARK    1  A    between atoms: N_6  and  C_7
REMARK    2  A    between atoms: C_11  and  C_12
REMARK    3  A    between atoms: C_12  and  N_13
REMARK    4  A    between atoms: N_13  and  C_14
REMARK    5  A    between atoms: C_16  and  C_17
REMARK                            x       y       z     vdW  Elec       q    Type
REMARK                         _______ _______ _______ _____ _____    ______ ____
ROOT
ATOM      1  N   UNL     1       4.511   3.328  17.011  0.00  0.00    +0.000 N 
ATOM      2  H   UNL     1       4.784   2.821  17.848  0.00  0.00    +0.000 HD
ENDROOT
BRANCH   1   3
ATOM      3  C   UNL     1       5.517   4.263  16.691  0.00  0.00    +0.000 A 
ATOM      4  N   UNL     1       5.999   5.146  17.594  0.00  0.00    +0.000 NA
ATOM      5  C   UNL     1       6.983   5.999  17.165  0.00  0.00    +0.000 A 
ATOM      6  N   UNL     1       7.466   6.031  15.907  0.00  0.00    +0.000 NA
ATOM      7  C   UNL     1       6.959   5.183  15.020  0.00  0.00    +0.000 A 
ATOM      8  C   UNL     1       7.427   5.250  13.713  0.00  0.00    +0.000 A 
ATOM      9  C   UNL     1       6.940   4.401  12.721  0.00  0.00    +0.000 A 
ATOM     10  C   UNL     1       5.982   3.451  13.039  0.00  0.00    +0.000 A 
ATOM     11  C   UNL     1       5.503   3.373  14.344  0.00  0.00    +0.000 A 
ATOM     12  C   UNL     1       5.980   4.245  15.356  0.00  0.00    +0.000 A 
BRANCH   5  13
ATOM     13  C   UNL     1       7.621   7.022  18.097  0.00  0.00    +0.000 C 
ATOM     14  F   UNL     1       8.549   6.481  18.944  0.00  0.00    +0.000 F 
ATOM     15  F   UNL     1       8.237   8.073  17.484  0.00  0.00    +0.000 F 
ENDBRANCH   5  13
ENDBRANCH   1   3
BRANCH   1  16
ATOM     16  C   UNL     1       3.090   3.611  17.019  0.00  0.00    +0.000 C 
BRANCH  16  21
ATOM     17  C   UNL     1       2.131   6.598  19.325  0.00  0.00    +0.000 A 
ATOM     18  C   UNL     1       2.140   5.958  20.568  0.00  0.00    +0.000 A 
ATOM     19  C   UNL     1       2.438   4.596  20.673  0.00  0.00    +0.000 A 
ATOM     20  C   UNL     1       2.749   3.844  19.538  0.00  0.00    +0.000 A 
ATOM     21  C   UNL     1       2.787   4.445  18.273  0.00  0.00    +0.000 A 
ATOM     22  C   UNL     1       2.469   5.821  18.188  0.00  0.00    +0.000 A 
BRANCH  17  28
ATOM     23  O   UNL     1       2.654   8.587  17.076  0.00  0.00    +0.000 OA
ATOM     24  C   UNL     1       2.099   8.835  18.137  0.00  0.00    +0.000 C 
ATOM     25  C   UNL     1       1.716  10.243  18.539  0.00  0.00    +0.000 C 
ATOM     26  C   UNL     1       0.744  10.031  19.680  0.00  0.00    +0.000 C 
ATOM     27  C   UNL     1       1.200   8.728  20.297  0.00  0.00    +0.000 C 
ATOM     28  N   UNL     1       1.777   7.976  19.206  0.00  0.00    +0.000 N 
ENDBRANCH  17  28
ENDBRANCH  16  21
ENDBRANCH   1  16
TORSDOF 5
ENDMDL
MODEL 6
REMARK VINA RESULT:      -8.4      2.775      4.757
REMARK  Name = 
REMARK  5 active torsions:
REMARK  status: ('A' for Active; 'I' for Inactive)
REMARK    1  A    between atoms: N_6  and  C_7
REMARK    2  A    between atoms: C_11  and  C_12
REMARK    3  A    between atoms: C_12  and  N_13
REMARK    4  A    between atoms: N_13  and  C_14
REMARK    5  A    between atoms: C_16  and  C_17
REMARK                            x       y       z     vdW  Elec       q    Type
REMARK                         _______ _______ _______ _____ _____    ______ ____
ROOT
ATOM      1  N   UNL     1       3.240   7.120  18.414  0.00  0.00    +0.000 N 
ATOM      2  H   UNL     1       3.880   7.388  19.156  0.00  0.00    +0.000 HD
ENDROOT
BRANCH   1   3
ATOM      3  C   UNL     1       3.698   5.925  17.822  0.00  0.00    +0.000 A 
ATOM      4  N   UNL     1       4.762   5.892  16.988  0.00  0.00    +0.000 NA
ATOM      5  C   UNL     1       5.116   4.668  16.481  0.00  0.00    +0.000 A 
ATOM      6  N   UNL     1       4.457   3.520  16.735  0.00  0.00    +0.000 NA
ATOM      7  C   UNL     1       3.394   3.572  17.528  0.00  0.00    +0.000 A 
ATOM      8  C   UNL     1       2.689   2.395  17.752  0.00  0.00    +0.000 A 
ATOM      9  C   UNL     1       1.557   2.366  18.563  0.00  0.00    +0.000 A 
ATOM     10  C   UNL     1       1.126   3.529  19.182  0.00  0.00    +0.000 A 
ATOM     11  C   UNL     1       1.821   4.716  18.968  0.00  0.00    +0.000 A 
ATOM     12  C   UNL     1       2.964   4.758  18.129  0.00  0.00    +0.000 A 
BRANCH   5  13
ATOM     13  C   UNL     1       6.311   4.500  15.550  0.00  0.00    +0.000 C 
ATOM     14  F   UNL     1       7.508   4.436  16.208  0.00  0.00    +0.000 F 
ATOM     15  F   UNL     1       6.271   3.410  14.733  0.00  0.00    +0.000 F 
ENDBRANCH   5  13
ENDBRANCH   1   3
BRANCH   1  16
ATOM     16  C   UNL     1       2.779   8.283  17.683  0.00  0.00    +0.000 C 
BRANCH  16  21
ATOM     17  C   UNL     1      -0.628   9.980  18.503  0.00  0.00    +0.000 A 
ATOM     18  C   UNL     1      -0.597   9.923  19.900  0.00  0.00    +0.000 A 
ATOM     19  C   UNL     1       0.485   9.347  20.572  0.00  0.00    +0.000 A 
ATOM     20  C   UNL     1       1.571   8.827  19.864  0.00  0.00    +0.000 A 
ATOM     21  C   UNL     1       1.605   8.890  18.465  0.00  0.00    +0.000 A 
ATOM     22  C   UNL     1       0.493   9.465  17.804  0.00  0.00    +0.000 A 
BRANCH  17  28
ATOM     23  O   UNL     1      -2.531  12.230  19.276  0.00  0.00    +0.000 OA
ATOM     24  C   UNL     1      -2.606  11.543  18.268  0.00  0.00    +0.000 C 
ATOM     25  C   UNL     1      -3.779  11.633  17.315  0.00  0.00    +0.000 C 
ATOM     26  C   UNL     1      -3.275  10.933  16.070  0.00  0.00    +0.000 C 
ATOM     27  C   UNL     1      -2.286   9.923  16.607  0.00  0.00    +0.000 C 
ATOM     28  N   UNL     1      -1.754  10.519  17.810  0.00  0.00    +0.000 N 
ENDBRANCH  17  28
ENDBRANCH  16  21
ENDBRANCH   1  16
TORSDOF 5
ENDMDL
MODEL 7
REMARK VINA RESULT:      -8.4      2.110      3.231
REMARK  Name = 
REMARK  5 active torsions:
REMARK  status: ('A' for Active; 'I' for Inactive)
REMARK    1  A    between atoms: N_6  and  C_7
REMARK    2  A    between atoms: C_11  and  C_12
REMARK    3  A    between atoms: C_12  and  N_13
REMARK    4  A    between atoms: N_13  and  C_14
REMARK    5  A    between atoms: C_16  and  C_17
REMARK                            x       y       z     vdW  Elec       q    Type
REMARK                         _______ _______ _______ _____ _____    ______ ____
ROOT
ATOM      1  N   UNL     1       4.295   3.038  17.389  0.00  0.00    +0.000 N 
ATOM      2  H   UNL     1       4.386   2.480  18.233  0.00  0.00    +0.000 HD
ENDROOT
BRANCH   1   3
ATOM      3  C   UNL     1       5.455   3.824  17.230  0.00  0.00    +0.000 A 
ATOM      4  N   UNL     1       6.113   4.363  18.281  0.00  0.00    +0.000 NA
ATOM      5  C   UNL     1       7.233   5.102  18.000  0.00  0.00    +0.000 A 
ATOM      6  N   UNL     1       7.690   5.347  16.756  0.00  0.00    +0.000 NA
ATOM      7  C   UNL     1       7.014   4.841  15.731  0.00  0.00    +0.000 A 
ATOM      8  C   UNL     1       7.462   5.134  14.447  0.00  0.00    +0.000 A 
ATOM      9  C   UNL     1       6.803   4.650  13.318  0.00  0.00    +0.000 A 
ATOM     10  C   UNL     1       5.688   3.841  13.468  0.00  0.00    +0.000 A 
ATOM     11  C   UNL     1       5.228   3.540  14.747  0.00  0.00    +0.000 A 
ATOM     12  C   UNL     1       5.881   4.043  15.901  0.00  0.00    +0.000 A 
BRANCH   5  13
ATOM     13  C   UNL     1       8.073   5.739  19.101  0.00  0.00    +0.000 C 
ATOM     14  F   UNL     1       8.420   7.035  18.839  0.00  0.00    +0.000 F 
ATOM     15  F   UNL     1       7.509   5.742  20.342  0.00  0.00    +0.000 F 
ENDBRANCH   5  13
ENDBRANCH   1   3
BRANCH   1  16
ATOM     16  C   UNL     1       2.938   3.522  17.232  0.00  0.00    +0.000 C 
BRANCH  16  21
ATOM     17  C   UNL     1       2.119   6.735  19.271  0.00  0.00    +0.000 A 
ATOM     18  C   UNL     1       2.003   6.187  20.552  0.00  0.00    +0.000 A 
ATOM     19  C   UNL     1       2.174   4.817  20.765  0.00  0.00    +0.000 A 
ATOM     20  C   UNL     1       2.480   3.961  19.704  0.00  0.00    +0.000 A 
ATOM     21  C   UNL     1       2.641   4.465  18.407  0.00  0.00    +0.000 A 
ATOM     22  C   UNL     1       2.450   5.854  18.211  0.00  0.00    +0.000 A 
BRANCH  17  28
ATOM     23  O   UNL     1       0.763   8.834  21.014  0.00  0.00    +0.000 OA
ATOM     24  C   UNL     1       1.216   9.019  19.894  0.00  0.00    +0.000 C 
ATOM     25  C   UNL     1       1.027  10.323  19.149  0.00  0.00    +0.000 C 
ATOM     26  C   UNL     1       2.048  10.243  18.034  0.00  0.00    +0.000 C 
ATOM     27  C   UNL     1       2.169   8.759  17.771  0.00  0.00    +0.000 C 
ATOM     28  N   UNL     1       1.894   8.127  19.039  0.00  0.00    +0.000 N 
ENDBRANCH  17  28
ENDBRANCH  16  21
ENDBRANCH   1  16
TORSDOF 5
ENDMDL
MODEL 8
REMARK VINA RESULT:      -8.3      4.695      8.529
REMARK  Name = 
REMARK  5 active torsions:
REMARK  status: ('A' for Active; 'I' for Inactive)
REMARK    1  A    between atoms: N_6  and  C_7
REMARK    2  A    between atoms: C_11  and  C_12
REMARK    3  A    between atoms: C_12  and  N_13
REMARK    4  A    between atoms: N_13  and  C_14
REMARK    5  A    between atoms: C_16  and  C_17
REMARK                            x       y       z     vdW  Elec       q    Type
REMARK                         _______ _______ _______ _____ _____    ______ ____
ROOT
ATOM      1  N   UNL     1       1.080   9.351  18.672  0.00  0.00    +0.000 N 
ATOM      2  H   UNL     1       0.303   8.816  18.297  0.00  0.00    +0.000 HD
ENDROOT
BRANCH   1   3
ATOM      3  C   UNL     1       0.578  10.508  19.304  0.00  0.00    +0.000 A 
ATOM      4  N   UNL     1       0.596  11.722  18.709  0.00  0.00    +0.000 NA
ATOM      5  C   UNL     1       0.072  12.770  19.422  0.00  0.00    +0.000 A 
ATOM      6  N   UNL     1      -0.421  12.669  20.672  0.00  0.00    +0.000 NA
ATOM      7  C   UNL     1      -0.400  11.478  21.258  0.00  0.00    +0.000 A 
ATOM      8  C   UNL     1      -0.867  11.385  22.564  0.00  0.00    +0.000 A 
ATOM      9  C   UNL     1      -0.871  10.174  23.253  0.00  0.00    +0.000 A 
ATOM     10  C   UNL     1      -0.419   9.025  22.623  0.00  0.00    +0.000 A 
ATOM     11  C   UNL     1       0.052   9.101  21.315  0.00  0.00    +0.000 A 
ATOM     12  C   UNL     1       0.076  10.334  20.613  0.00  0.00    +0.000 A 
BRANCH   5  13
ATOM     13  C   UNL     1       0.014  14.181  18.848  0.00  0.00    +0.000 C 
ATOM     14  F   UNL     1      -0.376  15.123  19.760  0.00  0.00    +0.000 F 
ATOM     15  F   UNL     1       1.175  14.642  18.302  0.00  0.00    +0.000 F 
ENDBRANCH   5  13
ENDBRANCH   1   3
BRANCH   1  16
ATOM     16  C   UNL     1       2.211   9.325  17.768  0.00  0.00    +0.000 C 
BRANCH  16  21
ATOM     17  C   UNL     1       2.859   5.616  18.757  0.00  0.00    +0.000 A 
ATOM     18  C   UNL     1       4.017   5.365  18.014  0.00  0.00    +0.000 A 
ATOM     19  C   UNL     1       4.580   6.356  17.204  0.00  0.00    +0.000 A 
ATOM     20  C   UNL     1       4.007   7.628  17.128  0.00  0.00    +0.000 A 
ATOM     21  C   UNL     1       2.866   7.941  17.879  0.00  0.00    +0.000 A 
ATOM     22  C   UNL     1       2.305   6.919  18.682  0.00  0.00    +0.000 A 
BRANCH  17  28
ATOM     23  O   UNL     1       1.103   3.267  17.931  0.00  0.00    +0.000 OA
ATOM     24  C   UNL     1       1.415   3.560  19.076  0.00  0.00    +0.000 C 
ATOM     25  C   UNL     1       0.831   2.851  20.280  0.00  0.00    +0.000 C 
ATOM     26  C   UNL     1       1.760   3.248  21.407  0.00  0.00    +0.000 C 
ATOM     27  C   UNL     1       2.261   4.613  20.989  0.00  0.00    +0.000 C 
ATOM     28  N   UNL     1       2.252   4.592  19.545  0.00  0.00    +0.000 N 
ENDBRANCH  17  28
ENDBRANCH  16  21
ENDBRANCH   1  16
TORSDOF 5
ENDMDL
MODEL 9
REMARK VINA RESULT:      -8.3      2.491      4.611
REMARK  Name = 
REMARK  5 active torsions:
REMARK  status: ('A' for Active; 'I' for Inactive)
REMARK    1  A    between atoms: N_6  and  C_7
REMARK    2  A    between atoms: C_11  and  C_12
REMARK    3  A    between atoms: C_12  and  N_13
REMARK    4  A    between atoms: N_13  and  C_14
REMARK    5  A    between atoms: C_16  and  C_17
REMARK                            x       y       z     vdW  Elec       q    Type
REMARK                         _______ _______ _______ _____ _____    ______ ____
ROOT
ATOM      1  N   UNL     1       3.458   6.894  18.547  0.00  0.00    +0.000 N 
ATOM      2  H   UNL     1       4.316   7.241  18.965  0.00  0.00    +0.000 HD
ENDROOT
BRANCH   1   3
ATOM      3  C   UNL     1       3.721   5.664  17.909  0.00  0.00    +0.000 A 
ATOM      4  N   UNL     1       4.691   5.525  16.978  0.00  0.00    +0.000 NA
ATOM      5  C   UNL     1       4.856   4.276  16.435  0.00  0.00    +0.000 A 
ATOM      6  N   UNL     1       4.100   3.206  16.746  0.00  0.00    +0.000 NA
ATOM      7  C   UNL     1       3.127   3.364  17.637  0.00  0.00    +0.000 A 
ATOM      8  C   UNL     1       2.319   2.270  17.921  0.00  0.00    +0.000 A 
ATOM      9  C   UNL     1       1.272   2.356  18.837  0.00  0.00    +0.000 A 
ATOM     10  C   UNL     1       1.035   3.551  19.498  0.00  0.00    +0.000 A 
ATOM     11  C   UNL     1       1.835   4.655  19.224  0.00  0.00    +0.000 A 
ATOM     12  C   UNL     1       2.892   4.582  18.280  0.00  0.00    +0.000 A 
BRANCH   5  13
ATOM     13  C   UNL     1       5.932   3.989  15.394  0.00  0.00    +0.000 C 
ATOM     14  F   UNL     1       5.701   4.599  14.192  0.00  0.00    +0.000 F 
ATOM     15  F   UNL     1       7.203   4.330  15.752  0.00  0.00    +0.000 F 
ENDBRANCH   5  13
ENDBRANCH   1   3
BRANCH   1  16
ATOM     16  C   UNL     1       2.688   7.978  17.971  0.00  0.00    +0.000 C 
BRANCH  16  21
ATOM     17  C   UNL     1      -0.257   9.836  19.711  0.00  0.00    +0.000 A 
ATOM     18  C   UNL     1      -0.099   9.369  21.020  0.00  0.00    +0.000 A 
ATOM     19  C   UNL     1       0.922   8.472  21.345  0.00  0.00    +0.000 A 
ATOM     20  C   UNL     1       1.821   8.030  20.370  0.00  0.00    +0.000 A 
ATOM     21  C   UNL     1       1.727   8.493  19.052  0.00  0.00    +0.000 A 
ATOM     22  C   UNL     1       0.677   9.391  18.742  0.00  0.00    +0.000 A 
BRANCH  17  28
ATOM     23  O   UNL     1      -2.320   9.646  17.477  0.00  0.00    +0.000 OA
ATOM     24  C   UNL     1      -2.216  10.562  18.279  0.00  0.00    +0.000 C 
ATOM     25  C   UNL     1      -3.038  11.829  18.171  0.00  0.00    +0.000 C 
ATOM     26  C   UNL     1      -2.879  12.469  19.534  0.00  0.00    +0.000 C 
ATOM     27  C   UNL     1      -1.513  12.002  19.987  0.00  0.00    +0.000 C 
ATOM     28  N   UNL     1      -1.330  10.712  19.364  0.00  0.00    +0.000 N 
ENDBRANCH  17  28
ENDBRANCH  16  21
ENDBRANCH   1  16
TORSDOF 5
ENDMDL
