MODEL 1
REMARK VINA RESULT:      -9.5      0.000      0.000
REMARK  Name = 
REMARK  6 active torsions:
REMARK  status: ('A' for Active; 'I' for Inactive)
REMARK    1  A    between atoms: C_1  and  N_2
REMARK    2  A    between atoms: N_7  and  N_8
REMARK    3  A    between atoms: N_8  and  C_9
REMARK    4  A    between atoms: C_13  and  N_14
REMARK    5  A    between atoms: C_19  and  C_20
REMARK    6  A    between atoms: C_23  and  C_24
REMARK                            x       y       z     vdW  Elec       q    Type
REMARK                         _______ _______ _______ _____ _____    ______ ____
ROOT
ATOM      1  C   UNL     1       2.232   7.402  19.731  0.00  0.00    +0.000 A 
ATOM      2  C   UNL     1       2.579   8.108  18.570  0.00  0.00    +0.000 A 
ATOM      3  C   UNL     1       3.101   7.447  17.465  0.00  0.00    +0.000 A 
ATOM      4  C   UNL     1       3.371   6.089  17.545  0.00  0.00    +0.000 A 
ATOM      5  C   UNL     1       3.278   5.432  18.785  0.00  0.00    +0.000 A 
ATOM      6  C   UNL     1       2.604   6.060  19.840  0.00  0.00    +0.000 A 
ENDROOT
BRANCH   5   7
ATOM      7  N   UNL     1       4.214   4.358  19.097  0.00  0.00    +0.000 N 
ATOM      8  C   UNL     1       5.568   4.920  19.321  0.00  0.00    +0.000 C 
ATOM      9  C   UNL     1       6.149   4.870  17.941  0.00  0.00    +0.000 A 
ATOM     10  C   UNL     1       5.537   3.817  17.262  0.00  0.00    +0.000 A 
ATOM     11  C   UNL     1       5.697   3.603  15.903  0.00  0.00    +0.000 A 
ATOM     12  C   UNL     1       6.487   4.517  15.192  0.00  0.00    +0.000 A 
ATOM     13  C   UNL     1       7.095   5.598  15.876  0.00  0.00    +0.000 A 
ATOM     14  C   UNL     1       6.936   5.792  17.262  0.00  0.00    +0.000 A 
ATOM     15  C   UNL     1       4.381   3.377  18.081  0.00  0.00    +0.000 C 
ATOM     16  O   UNL     1       3.620   2.481  17.760  0.00  0.00    +0.000 OA
BRANCH  14  17
ATOM     17  C   UNL     1       7.442   7.044  17.926  0.00  0.00    +0.000 C 
ATOM     18  F   UNL     1       8.369   6.789  18.889  0.00  0.00    +0.000 F 
ATOM     19  F   UNL     1       8.036   7.908  17.057  0.00  0.00    +0.000 F 
ENDBRANCH  14  17
BRANCH  12  20
ATOM     20  C   UNL     1       6.596   4.403  13.693  0.00  0.00    +0.000 C 
ATOM     21  F   UNL     1       5.685   3.547  13.150  0.00  0.00    +0.000 F 
ENDBRANCH  12  20
ENDBRANCH   5   7
BRANCH   1  22
ATOM     22  N   UNL     1       1.591   8.046  20.817  0.00  0.00    +0.000 N 
ATOM     23  H   UNL     1       2.263   8.213  21.577  0.00  0.00    +0.000 HD
BRANCH  22  30
ATOM     24  C   UNL     1      -0.971  11.454  20.027  0.00  0.00    +0.000 C 
ATOM     25  N   UNL     1      -0.631  10.882  21.308  0.00  0.00    +0.000 N 
ATOM     26  C   UNL     1      -1.038  11.340  22.521  0.00  0.00    +0.000 A 
ATOM     27  N   UNL     1      -0.453  10.647  23.469  0.00  0.00    +0.000 NA
ATOM     28  N   UNL     1       0.351   9.709  22.860  0.00  0.00    +0.000 NA
ATOM     29  C   UNL     1       0.217   9.838  21.559  0.00  0.00    +0.000 A 
ATOM     30  N   UNL     1       0.803   9.142  20.558  0.00  0.00    +0.000 N 
ATOM     31  H   UNL     1       0.372   9.128  19.636  0.00  0.00    +0.000 HD
ENDBRANCH  22  30
ENDBRANCH   1  22
TORSDOF 5
ENDMDL
MODEL 2
REMARK VINA RESULT:      -8.6      4.857      6.689
REMARK  Name = 
REMARK  6 active torsions:
REMARK  status: ('A' for Active; 'I' for Inactive)
REMARK    1  A    between atoms: C_1  and  N_2
REMARK    2  A    between atoms: N_7  and  N_8
REMARK    3  A    between atoms: N_8  and  C_9
REMARK    4  A    between atoms: C_13  and  N_14
REMARK    5  A    between atoms: C_19  and  C_20
REMARK    6  A    between atoms: C_23  and  C_24
REMARK                            x       y       z     vdW  Elec       q    Type
REMARK                         _______ _______ _______ _____ _____    ______ ____
ROOT
ATOM      1  C   UNL     1       8.222   7.350  18.577  0.00  0.00    +0.000 A 
ATOM      2  C   UNL     1       8.157   6.226  19.412  0.00  0.00    +0.000 A 
ATOM      3  C   UNL     1       7.734   4.997  18.918  0.00  0.00    +0.000 A 
ATOM      4  C   UNL     1       7.282   4.905  17.610  0.00  0.00    +0.000 A 
ATOM      5  C   UNL     1       7.093   6.074  16.854  0.00  0.00    +0.000 A 
ATOM      6  C   UNL     1       7.668   7.273  17.297  0.00  0.00    +0.000 A 
ENDROOT
BRANCH   5   7
ATOM      7  N   UNL     1       5.989   6.142  15.904  0.00  0.00    +0.000 N 
ATOM      8  C   UNL     1       4.830   6.825  16.527  0.00  0.00    +0.000 C 
ATOM      9  C   UNL     1       4.088   5.673  17.132  0.00  0.00    +0.000 A 
ATOM     10  C   UNL     1       4.365   4.541  16.366  0.00  0.00    +0.000 A 
ATOM     11  C   UNL     1       3.997   3.263  16.752  0.00  0.00    +0.000 A 
ATOM     12  C   UNL     1       3.347   3.120  17.985  0.00  0.00    +0.000 A 
ATOM     13  C   UNL     1       3.080   4.266  18.774  0.00  0.00    +0.000 A 
ATOM     14  C   UNL     1       3.446   5.562  18.360  0.00  0.00    +0.000 A 
ATOM     15  C   UNL     1       5.487   4.887  15.459  0.00  0.00    +0.000 C 
ATOM     16  O   UNL     1       5.987   4.109  14.666  0.00  0.00    +0.000 OA
BRANCH  14  17
ATOM     17  C   UNL     1       3.314   6.733  19.295  0.00  0.00    +0.000 C 
ATOM     18  F   UNL     1       2.772   7.828  18.691  0.00  0.00    +0.000 F 
ATOM     19  F   UNL     1       2.522   6.473  20.371  0.00  0.00    +0.000 F 
ENDBRANCH  14  17
BRANCH  12  20
ATOM     20  C   UNL     1       3.033   1.743  18.509  0.00  0.00    +0.000 C 
ATOM     21  F   UNL     1       1.780   1.638  19.035  0.00  0.00    +0.000 F 
ENDBRANCH  12  20
ENDBRANCH   5   7
BRANCH   1  22
ATOM     22  N   UNL     1       8.762   8.575  19.039  0.00  0.00    +0.000 N 
ATOM     23  H   UNL     1       9.777   8.487  19.175  0.00  0.00    +0.000 HD
BRANCH  22  30
ATOM     24  C   UNL     1       7.652  12.270  17.060  0.00  0.00    +0.000 C 
ATOM     25  N   UNL     1       8.836  12.008  17.842  0.00  0.00    +0.000 N 
ATOM     26  C   UNL     1       9.850  12.883  18.075  0.00  0.00    +0.000 A 
ATOM     27  N   UNL     1      10.810  12.275  18.732  0.00  0.00    +0.000 NA
ATOM     28  N   UNL     1      10.410  10.973  18.938  0.00  0.00    +0.000 NA
ATOM     29  C   UNL     1       9.210  10.827  18.424  0.00  0.00    +0.000 A 
ATOM     30  N   UNL     1       8.415   9.733  18.386  0.00  0.00    +0.000 N 
ATOM     31  H   UNL     1       7.411   9.845  18.255  0.00  0.00    +0.000 HD
ENDBRANCH  22  30
ENDBRANCH   1  22
TORSDOF 5
ENDMDL
MODEL 3
REMARK VINA RESULT:      -8.6      1.172      1.572
REMARK  Name = 
REMARK  6 active torsions:
REMARK  status: ('A' for Active; 'I' for Inactive)
REMARK    1  A    between atoms: C_1  and  N_2
REMARK    2  A    between atoms: N_7  and  N_8
REMARK    3  A    between atoms: N_8  and  C_9
REMARK    4  A    between atoms: C_13  and  N_14
REMARK    5  A    between atoms: C_19  and  C_20
REMARK    6  A    between atoms: C_23  and  C_24
REMARK                            x       y       z     vdW  Elec       q    Type
REMARK                         _______ _______ _______ _____ _____    ______ ____
ROOT
ATOM      1  C   UNL     1       2.032   7.745  19.582  0.00  0.00    +0.000 A 
ATOM      2  C   UNL     1       2.491   8.476  18.477  0.00  0.00    +0.000 A 
ATOM      3  C   UNL     1       3.179   7.849  17.446  0.00  0.00    +0.000 A 
ATOM      4  C   UNL     1       3.500   6.504  17.556  0.00  0.00    +0.000 A 
ATOM      5  C   UNL     1       3.281   5.833  18.771  0.00  0.00    +0.000 A 
ATOM      6  C   UNL     1       2.449   6.420  19.734  0.00  0.00    +0.000 A 
ENDROOT
BRANCH   5   7
ATOM      7  N   UNL     1       4.218   4.801  19.198  0.00  0.00    +0.000 N 
ATOM      8  C   UNL     1       5.593   5.355  19.239  0.00  0.00    +0.000 C 
ATOM      9  C   UNL     1       6.078   5.063  17.852  0.00  0.00    +0.000 A 
ATOM     10  C   UNL     1       5.405   3.929  17.397  0.00  0.00    +0.000 A 
ATOM     11  C   UNL     1       5.470   3.490  16.085  0.00  0.00    +0.000 A 
ATOM     12  C   UNL     1       6.226   4.253  15.184  0.00  0.00    +0.000 A 
ATOM     13  C   UNL     1       6.896   5.415  15.639  0.00  0.00    +0.000 A 
ATOM     14  C   UNL     1       6.834   5.838  16.981  0.00  0.00    +0.000 A 
ATOM     15  C   UNL     1       4.301   3.661  18.350  0.00  0.00    +0.000 C 
ATOM     16  O   UNL     1       3.505   2.746  18.231  0.00  0.00    +0.000 OA
BRANCH  14  17
ATOM     17  C   UNL     1       7.403   7.169  17.394  0.00  0.00    +0.000 C 
ATOM     18  F   UNL     1       6.437   8.091  17.663  0.00  0.00    +0.000 F 
ATOM     19  F   UNL     1       8.170   7.098  18.516  0.00  0.00    +0.000 F 
ENDBRANCH  14  17
BRANCH  12  20
ATOM     20  C   UNL     1       6.233   3.891  13.722  0.00  0.00    +0.000 C 
ATOM     21  F   UNL     1       4.993   3.910  13.155  0.00  0.00    +0.000 F 
ENDBRANCH  12  20
ENDBRANCH   5   7
BRANCH   1  22
ATOM     22  N   UNL     1       1.229   8.350  20.579  0.00  0.00    +0.000 N 
ATOM     23  H   UNL     1       1.398   7.905  21.489  0.00  0.00    +0.000 HD
BRANCH  22  30
ATOM     24  C   UNL     1       1.168  12.683  20.739  0.00  0.00    +0.000 C 
ATOM     25  N   UNL     1       0.232  11.810  20.073  0.00  0.00    +0.000 N 
ATOM     26  C   UNL     1      -0.877  12.200  19.390  0.00  0.00    +0.000 A 
ATOM     27  N   UNL     1      -1.551  11.140  19.010  0.00  0.00    +0.000 NA
ATOM     28  N   UNL     1      -0.863  10.031  19.450  0.00  0.00    +0.000 NA
ATOM     29  C   UNL     1       0.224  10.442  20.064  0.00  0.00    +0.000 A 
ATOM     30  N   UNL     1       1.203   9.722  20.658  0.00  0.00    +0.000 N 
ATOM     31  H   UNL     1       2.120  10.142  20.801  0.00  0.00    +0.000 HD
ENDBRANCH  22  30
ENDBRANCH   1  22
TORSDOF 5
ENDMDL
MODEL 4
REMARK VINA RESULT:      -8.5      4.813      6.891
REMARK  Name = 
REMARK  6 active torsions:
REMARK  status: ('A' for Active; 'I' for Inactive)
REMARK    1  A    between atoms: C_1  and  N_2
REMARK    2  A    between atoms: N_7  and  N_8
REMARK    3  A    between atoms: N_8  and  C_9
REMARK    4  A    between atoms: C_13  and  N_14
REMARK    5  A    between atoms: C_19  and  C_20
REMARK    6  A    between atoms: C_23  and  C_24
REMARK                            x       y       z     vdW  Elec       q    Type
REMARK                         _______ _______ _______ _____ _____    ______ ____
ROOT
ATOM      1  C   UNL     1       7.956   7.791  17.729  0.00  0.00    +0.000 A 
ATOM      2  C   UNL     1       8.027   7.073  18.931  0.00  0.00    +0.000 A 
ATOM      3  C   UNL     1       7.767   5.708  18.960  0.00  0.00    +0.000 A 
ATOM      4  C   UNL     1       7.341   5.068  17.806  0.00  0.00    +0.000 A 
ATOM      5  C   UNL     1       7.011   5.827  16.670  0.00  0.00    +0.000 A 
ATOM      6  C   UNL     1       7.427   7.164  16.599  0.00  0.00    +0.000 A 
ENDROOT
BRANCH   5   7
ATOM      7  N   UNL     1       5.915   5.392  15.812  0.00  0.00    +0.000 N 
ATOM      8  C   UNL     1       4.726   6.247  16.042  0.00  0.00    +0.000 C 
ATOM      9  C   UNL     1       4.020   5.497  17.130  0.00  0.00    +0.000 A 
ATOM     10  C   UNL     1       4.347   4.148  16.995  0.00  0.00    +0.000 A 
ATOM     11  C   UNL     1       4.021   3.196  17.947  0.00  0.00    +0.000 A 
ATOM     12  C   UNL     1       3.363   3.635  19.104  0.00  0.00    +0.000 A 
ATOM     13  C   UNL     1       3.047   5.007  19.252  0.00  0.00    +0.000 A 
ATOM     14  C   UNL     1       3.370   5.961  18.267  0.00  0.00    +0.000 A 
ATOM     15  C   UNL     1       5.464   4.060  16.023  0.00  0.00    +0.000 C 
ATOM     16  O   UNL     1       6.000   3.017  15.694  0.00  0.00    +0.000 OA
BRANCH  14  17
ATOM     17  C   UNL     1       3.186   7.431  18.532  0.00  0.00    +0.000 C 
ATOM     18  F   UNL     1       2.491   8.058  17.542  0.00  0.00    +0.000 F 
ATOM     19  F   UNL     1       2.507   7.687  19.683  0.00  0.00    +0.000 F 
ENDBRANCH  14  17
BRANCH  12  20
ATOM     20  C   UNL     1       3.094   2.663  20.224  0.00  0.00    +0.000 C 
ATOM     21  F   UNL     1       4.228   2.127  20.757  0.00  0.00    +0.000 F 
ENDBRANCH  12  20
ENDBRANCH   5   7
BRANCH   1  22
ATOM     22  N   UNL     1       8.333   9.155  17.667  0.00  0.00    +0.000 N 
ATOM     23  H   UNL     1       7.680   9.676  17.068  0.00  0.00    +0.000 HD
BRANCH  22  30
ATOM     24  C   UNL     1       9.304  11.188  21.371  0.00  0.00    +0.000 C 
ATOM     25  N   UNL     1       9.893  11.394  20.069  0.00  0.00    +0.000 N 
ATOM     26  C   UNL     1      10.854  12.304  19.762  0.00  0.00    +0.000 A 
ATOM     27  N   UNL     1      11.074  12.289  18.469  0.00  0.00    +0.000 NA
ATOM     28  N   UNL     1      10.239  11.341  17.918  0.00  0.00    +0.000 NA
ATOM     29  C   UNL     1       9.551  10.787  18.892  0.00  0.00    +0.000 A 
ATOM     30  N   UNL     1       8.614   9.812  18.840  0.00  0.00    +0.000 N 
ATOM     31  H   UNL     1       8.410   9.268  19.675  0.00  0.00    +0.000 HD
ENDBRANCH  22  30
ENDBRANCH   1  22
TORSDOF 5
ENDMDL
MODEL 5
REMARK VINA RESULT:      -8.3      1.002      1.196
REMARK  Name = 
REMARK  6 active torsions:
REMARK  status: ('A' for Active; 'I' for Inactive)
REMARK    1  A    between atoms: C_1  and  N_2
REMARK    2  A    between atoms: N_7  and  N_8
REMARK    3  A    between atoms: N_8  and  C_9
REMARK    4  A    between atoms: C_13  and  N_14
REMARK    5  A    between atoms: C_19  and  C_20
REMARK    6  A    between atoms: C_23  and  C_24
REMARK                            x       y       z     vdW  Elec       q    Type
REMARK                         _______ _______ _______ _____ _____    ______ ____
ROOT
ATOM      1  C   UNL     1       2.150   7.234  19.954  0.00  0.00    +0.000 A 
ATOM      2  C   UNL     1       2.713   7.920  18.869  0.00  0.00    +0.000 A 
ATOM      3  C   UNL     1       2.999   7.260  17.681  0.00  0.00    +0.000 A 
ATOM      4  C   UNL     1       2.814   5.888  17.599  0.00  0.00    +0.000 A 
ATOM      5  C   UNL     1       2.508   5.156  18.759  0.00  0.00    +0.000 A 
ATOM      6  C   UNL     1       2.067   5.840  19.901  0.00  0.00    +0.000 A 
ENDROOT
BRANCH   5   7
ATOM      7  N   UNL     1       3.044   3.809  18.919  0.00  0.00    +0.000 N 
ATOM      8  C   UNL     1       4.418   3.877  19.472  0.00  0.00    +0.000 C 
ATOM      9  C   UNL     1       5.245   3.936  18.224  0.00  0.00    +0.000 A 
ATOM     10  C   UNL     1       4.538   3.278  17.217  0.00  0.00    +0.000 A 
ATOM     11  C   UNL     1       4.922   3.308  15.887  0.00  0.00    +0.000 A 
ATOM     12  C   UNL     1       6.055   4.064  15.556  0.00  0.00    +0.000 A 
ATOM     13  C   UNL     1       6.764   4.747  16.574  0.00  0.00    +0.000 A 
ATOM     14  C   UNL     1       6.370   4.694  17.925  0.00  0.00    +0.000 A 
ATOM     15  C   UNL     1       3.162   3.051  17.721  0.00  0.00    +0.000 C 
ATOM     16  O   UNL     1       2.280   2.513  17.075  0.00  0.00    +0.000 OA
BRANCH  14  17
ATOM     17  C   UNL     1       7.031   5.572  18.953  0.00  0.00    +0.000 C 
ATOM     18  F   UNL     1       7.780   6.562  18.393  0.00  0.00    +0.000 F 
ATOM     19  F   UNL     1       6.143   6.198  19.774  0.00  0.00    +0.000 F 
ENDBRANCH  14  17
BRANCH  12  20
ATOM     20  C   UNL     1       6.446   4.229  14.110  0.00  0.00    +0.000 C 
ATOM     21  F   UNL     1       5.852   3.323  13.283  0.00  0.00    +0.000 F 
ENDBRANCH  12  20
ENDBRANCH   5   7
BRANCH   1  22
ATOM     22  N   UNL     1       1.747   7.919  21.126  0.00  0.00    +0.000 N 
ATOM     23  H   UNL     1       2.412   7.740  21.888  0.00  0.00    +0.000 HD
BRANCH  22  30
ATOM     24  C   UNL     1       0.575  12.079  20.778  0.00  0.00    +0.000 C 
ATOM     25  N   UNL     1       0.094  11.101  21.725  0.00  0.00    +0.000 N 
ATOM     26  C   UNL     1      -0.807  11.326  22.717  0.00  0.00    +0.000 A 
ATOM     27  N   UNL     1      -0.929  10.245  23.451  0.00  0.00    +0.000 NA
ATOM     28  N   UNL     1      -0.091   9.289  22.921  0.00  0.00    +0.000 NA
ATOM     29  C   UNL     1       0.501   9.803  21.866  0.00  0.00    +0.000 A 
ATOM     30  N   UNL     1       1.402   9.245  21.025  0.00  0.00    +0.000 N 
ATOM     31  H   UNL     1       1.523   9.631  20.091  0.00  0.00    +0.000 HD
ENDBRANCH  22  30
ENDBRANCH   1  22
TORSDOF 5
ENDMDL
MODEL 6
REMARK VINA RESULT:      -8.2      4.732      6.880
REMARK  Name = 
REMARK  6 active torsions:
REMARK  status: ('A' for Active; 'I' for Inactive)
REMARK    1  A    between atoms: C_1  and  N_2
REMARK    2  A    between atoms: N_7  and  N_8
REMARK    3  A    between atoms: N_8  and  C_9
REMARK    4  A    between atoms: C_13  and  N_14
REMARK    5  A    between atoms: C_19  and  C_20
REMARK    6  A    between atoms: C_23  and  C_24
REMARK                            x       y       z     vdW  Elec       q    Type
REMARK                         _______ _______ _______ _____ _____    ______ ____
ROOT
ATOM      1  C   UNL     1       7.775   7.962  18.012  0.00  0.00    +0.000 A 
ATOM      2  C   UNL     1       8.035   7.062  19.054  0.00  0.00    +0.000 A 
ATOM      3  C   UNL     1       8.020   5.690  18.829  0.00  0.00    +0.000 A 
ATOM      4  C   UNL     1       7.649   5.206  17.583  0.00  0.00    +0.000 A 
ATOM      5  C   UNL     1       7.131   6.088  16.619  0.00  0.00    +0.000 A 
ATOM      6  C   UNL     1       7.302   7.467  16.794  0.00  0.00    +0.000 A 
ENDROOT
BRANCH   5   7
ATOM      7  N   UNL     1       6.083   5.625  15.717  0.00  0.00    +0.000 N 
ATOM      8  C   UNL     1       4.851   6.423  15.926  0.00  0.00    +0.000 C 
ATOM      9  C   UNL     1       4.144   5.620  16.975  0.00  0.00    +0.000 A 
ATOM     10  C   UNL     1       4.532   4.289  16.822  0.00  0.00    +0.000 A 
ATOM     11  C   UNL     1       4.218   3.303  17.743  0.00  0.00    +0.000 A 
ATOM     12  C   UNL     1       3.506   3.689  18.887  0.00  0.00    +0.000 A 
ATOM     13  C   UNL     1       3.126   5.043  19.053  0.00  0.00    +0.000 A 
ATOM     14  C   UNL     1       3.439   6.031  18.099  0.00  0.00    +0.000 A 
ATOM     15  C   UNL     1       5.682   4.271  15.886  0.00  0.00    +0.000 C 
ATOM     16  O   UNL     1       6.273   3.259  15.553  0.00  0.00    +0.000 OA
BRANCH  14  17
ATOM     17  C   UNL     1       3.183   7.486  18.388  0.00  0.00    +0.000 C 
ATOM     18  F   UNL     1       2.409   8.080  17.437  0.00  0.00    +0.000 F 
ATOM     19  F   UNL     1       2.542   7.692  19.571  0.00  0.00    +0.000 F 
ENDBRANCH  14  17
BRANCH  12  20
ATOM     20  C   UNL     1       3.244   2.682  19.977  0.00  0.00    +0.000 C 
ATOM     21  F   UNL     1       1.921   2.400  20.145  0.00  0.00    +0.000 F 
ENDBRANCH  12  20
ENDBRANCH   5   7
BRANCH   1  22
ATOM     22  N   UNL     1       7.904   9.360  18.202  0.00  0.00    +0.000 N 
ATOM     23  H   UNL     1       7.345   9.661  19.010  0.00  0.00    +0.000 HD
BRANCH  22  30
ATOM     24  C   UNL     1      11.838  11.182  18.167  0.00  0.00    +0.000 C 
ATOM     25  N   UNL     1      10.830  11.275  19.195  0.00  0.00    +0.000 N 
ATOM     26  C   UNL     1      10.951  11.940  20.375  0.00  0.00    +0.000 A 
ATOM     27  N   UNL     1       9.886  11.723  21.111  0.00  0.00    +0.000 NA
ATOM     28  N   UNL     1       9.046  10.902  20.391  0.00  0.00    +0.000 NA
ATOM     29  C   UNL     1       9.608  10.660  19.228  0.00  0.00    +0.000 A 
ATOM     30  N   UNL     1       9.162   9.911  18.194  0.00  0.00    +0.000 N 
ATOM     31  H   UNL     1       9.533  10.072  17.260  0.00  0.00    +0.000 HD
ENDBRANCH  22  30
ENDBRANCH   1  22
TORSDOF 5
ENDMDL
MODEL 7
REMARK VINA RESULT:      -8.1      7.470     10.094
REMARK  Name = 
REMARK  6 active torsions:
REMARK  status: ('A' for Active; 'I' for Inactive)
REMARK    1  A    between atoms: C_1  and  N_2
REMARK    2  A    between atoms: N_7  and  N_8
REMARK    3  A    between atoms: N_8  and  C_9
REMARK    4  A    between atoms: C_13  and  N_14
REMARK    5  A    between atoms: C_19  and  C_20
REMARK    6  A    between atoms: C_23  and  C_24
REMARK                            x       y       z     vdW  Elec       q    Type
REMARK                         _______ _______ _______ _____ _____    ______ ____
ROOT
ATOM      1  C   UNL     1      -3.129  11.377  17.356  0.00  0.00    +0.000 A 
ATOM      2  C   UNL     1      -2.550  10.377  16.563  0.00  0.00    +0.000 A 
ATOM      3  C   UNL     1      -1.400   9.717  16.980  0.00  0.00    +0.000 A 
ATOM      4  C   UNL     1      -0.766  10.117  18.146  0.00  0.00    +0.000 A 
ATOM      5  C   UNL     1      -1.187  11.288  18.801  0.00  0.00    +0.000 A 
ATOM      6  C   UNL     1      -2.430  11.845  18.471  0.00  0.00    +0.000 A 
ENDROOT
BRANCH   5   7
ATOM      7  N   UNL     1      -0.199  12.133  19.462  0.00  0.00    +0.000 N 
ATOM      8  C   UNL     1       0.454  11.379  20.560  0.00  0.00    +0.000 C 
ATOM      9  C   UNL     1      -0.435  11.705  21.721  0.00  0.00    +0.000 A 
ATOM     10  C   UNL     1      -0.999  12.959  21.484  0.00  0.00    +0.000 A 
ATOM     11  C   UNL     1      -2.016  13.486  22.262  0.00  0.00    +0.000 A 
ATOM     12  C   UNL     1      -2.508  12.693  23.309  0.00  0.00    +0.000 A 
ATOM     13  C   UNL     1      -1.949  11.412  23.540  0.00  0.00    +0.000 A 
ATOM     14  C   UNL     1      -0.903  10.898  22.750  0.00  0.00    +0.000 A 
ATOM     15  C   UNL     1      -0.711  13.311  20.072  0.00  0.00    +0.000 C 
ATOM     16  O   UNL     1      -1.084  14.341  19.538  0.00  0.00    +0.000 OA
BRANCH  14  17
ATOM     17  C   UNL     1      -0.456   9.469  22.903  0.00  0.00    +0.000 C 
ATOM     18  F   UNL     1      -0.717   8.717  21.798  0.00  0.00    +0.000 F 
ATOM     19  F   UNL     1       0.881   9.347  23.128  0.00  0.00    +0.000 F 
ENDBRANCH  14  17
BRANCH  12  20
ATOM     20  C   UNL     1      -3.694  13.166  24.109  0.00  0.00    +0.000 C 
ATOM     21  F   UNL     1      -4.215  12.204  24.922  0.00  0.00    +0.000 F 
ENDBRANCH  12  20
ENDBRANCH   5   7
BRANCH   1  22
ATOM     22  N   UNL     1      -4.363  11.973  16.998  0.00  0.00    +0.000 N 
ATOM     23  H   UNL     1      -4.890  11.349  16.374  0.00  0.00    +0.000 HD
BRANCH  22  30
ATOM     24  C   UNL     1      -6.905  13.657  20.080  0.00  0.00    +0.000 C 
ATOM     25  N   UNL     1      -6.822  12.279  19.658  0.00  0.00    +0.000 N 
ATOM     26  C   UNL     1      -7.519  11.238  20.187  0.00  0.00    +0.000 A 
ATOM     27  N   UNL     1      -7.115  10.117  19.636  0.00  0.00    +0.000 NA
ATOM     28  N   UNL     1      -6.135  10.435  18.721  0.00  0.00    +0.000 NA
ATOM     29  C   UNL     1      -5.985  11.740  18.720  0.00  0.00    +0.000 A 
ATOM     30  N   UNL     1      -5.145  12.511  17.991  0.00  0.00    +0.000 N 
ATOM     31  H   UNL     1      -5.358  13.498  17.856  0.00  0.00    +0.000 HD
ENDBRANCH  22  30
ENDBRANCH   1  22
TORSDOF 5
ENDMDL
MODEL 8
REMARK VINA RESULT:      -8.0      7.155      9.619
REMARK  Name = 
REMARK  6 active torsions:
REMARK  status: ('A' for Active; 'I' for Inactive)
REMARK    1  A    between atoms: C_1  and  N_2
REMARK    2  A    between atoms: N_7  and  N_8
REMARK    3  A    between atoms: N_8  and  C_9
REMARK    4  A    between atoms: C_13  and  N_14
REMARK    5  A    between atoms: C_19  and  C_20
REMARK    6  A    between atoms: C_23  and  C_24
REMARK                            x       y       z     vdW  Elec       q    Type
REMARK                         _______ _______ _______ _____ _____    ______ ____
ROOT
ATOM      1  C   UNL     1      -3.676  11.509  17.734  0.00  0.00    +0.000 A 
ATOM      2  C   UNL     1      -3.630  10.647  16.630  0.00  0.00    +0.000 A 
ATOM      3  C   UNL     1      -2.560   9.779  16.449  0.00  0.00    +0.000 A 
ATOM      4  C   UNL     1      -1.481   9.833  17.318  0.00  0.00    +0.000 A 
ATOM      5  C   UNL     1      -1.399  10.871  18.262  0.00  0.00    +0.000 A 
ATOM      6  C   UNL     1      -2.542  11.632  18.541  0.00  0.00    +0.000 A 
ENDROOT
BRANCH   5   7
ATOM      7  N   UNL     1      -0.094  11.425  18.605  0.00  0.00    +0.000 N 
ATOM      8  C   UNL     1       0.561  10.574  19.627  0.00  0.00    +0.000 C 
ATOM      9  C   UNL     1       0.086  11.208  20.898  0.00  0.00    +0.000 A 
ATOM     10  C   UNL     1      -0.153  12.557  20.636  0.00  0.00    +0.000 A 
ATOM     11  C   UNL     1      -0.783  13.398  21.538  0.00  0.00    +0.000 A 
ATOM     12  C   UNL     1      -1.219  12.842  22.748  0.00  0.00    +0.000 A 
ATOM     13  C   UNL     1      -0.994  11.468  23.009  0.00  0.00    +0.000 A 
ATOM     14  C   UNL     1      -0.337  10.629  22.089  0.00  0.00    +0.000 A 
ATOM     15  C   UNL     1      -0.112  12.733  19.164  0.00  0.00    +0.000 C 
ATOM     16  O   UNL     1      -0.301  13.796  18.600  0.00  0.00    +0.000 OA
BRANCH  14  17
ATOM     17  C   UNL     1      -0.275   9.142  22.314  0.00  0.00    +0.000 C 
ATOM     18  F   UNL     1      -0.925   8.437  21.346  0.00  0.00    +0.000 F 
ATOM     19  F   UNL     1       0.997   8.657  22.335  0.00  0.00    +0.000 F 
ENDBRANCH  14  17
BRANCH  12  20
ATOM     20  C   UNL     1      -2.016  13.682  23.712  0.00  0.00    +0.000 C 
ATOM     21  F   UNL     1      -1.240  14.416  24.558  0.00  0.00    +0.000 F 
ENDBRANCH  12  20
ENDBRANCH   5   7
BRANCH   1  22
ATOM     22  N   UNL     1      -4.813  12.312  17.991  0.00  0.00    +0.000 N 
ATOM     23  H   UNL     1      -5.656  11.866  17.607  0.00  0.00    +0.000 HD
BRANCH  22  30
ATOM     24  C   UNL     1      -5.492  13.872  21.979  0.00  0.00    +0.000 C 
ATOM     25  N   UNL     1      -6.224  12.829  21.301  0.00  0.00    +0.000 N 
ATOM     26  C   UNL     1      -7.258  12.114  21.818  0.00  0.00    +0.000 A 
ATOM     27  N   UNL     1      -7.612  11.179  20.968  0.00  0.00    +0.000 NA
ATOM     28  N   UNL     1      -6.792  11.290  19.866  0.00  0.00    +0.000 NA
ATOM     29  C   UNL     1      -5.978  12.303  20.063  0.00  0.00    +0.000 A 
ATOM     30  N   UNL     1      -5.003  12.794  19.263  0.00  0.00    +0.000 N 
ATOM     31  H   UNL     1      -4.684  13.752  19.391  0.00  0.00    +0.000 HD
ENDBRANCH  22  30
ENDBRANCH   1  22
TORSDOF 5
ENDMDL
MODEL 9
REMARK VINA RESULT:      -7.8      5.556     10.041
REMARK  Name = 
REMARK  6 active torsions:
REMARK  status: ('A' for Active; 'I' for Inactive)
REMARK    1  A    between atoms: C_1  and  N_2
REMARK    2  A    between atoms: N_7  and  N_8
REMARK    3  A    between atoms: N_8  and  C_9
REMARK    4  A    between atoms: C_13  and  N_14
REMARK    5  A    between atoms: C_19  and  C_20
REMARK    6  A    between atoms: C_23  and  C_24
REMARK                            x       y       z     vdW  Elec       q    Type
REMARK                         _______ _______ _______ _____ _____    ______ ____
ROOT
ATOM      1  C   UNL     1       0.768   8.821  21.653  0.00  0.00    +0.000 A 
ATOM      2  C   UNL     1       0.432   9.395  22.887  0.00  0.00    +0.000 A 
ATOM      3  C   UNL     1      -0.545  10.379  22.971  0.00  0.00    +0.000 A 
ATOM      4  C   UNL     1      -1.126  10.867  21.810  0.00  0.00    +0.000 A 
ATOM      5  C   UNL     1      -0.606  10.491  20.560  0.00  0.00    +0.000 A 
ATOM      6  C   UNL     1       0.257   9.390  20.483  0.00  0.00    +0.000 A 
ENDROOT
BRANCH   5   7
ATOM      7  N   UNL     1      -0.600  11.458  19.467  0.00  0.00    +0.000 N 
ATOM      8  C   UNL     1      -1.183  12.741  19.927  0.00  0.00    +0.000 C 
ATOM      9  C   UNL     1      -2.632  12.551  19.599  0.00  0.00    +0.000 A 
ATOM     10  C   UNL     1      -2.709  11.680  18.512  0.00  0.00    +0.000 A 
ATOM     11  C   UNL     1      -3.902  11.137  18.067  0.00  0.00    +0.000 A 
ATOM     12  C   UNL     1      -5.068  11.464  18.774  0.00  0.00    +0.000 A 
ATOM     13  C   UNL     1      -4.989  12.334  19.889  0.00  0.00    +0.000 A 
ATOM     14  C   UNL     1      -3.770  12.891  20.320  0.00  0.00    +0.000 A 
ATOM     15  C   UNL     1      -1.361  11.092  18.322  0.00  0.00    +0.000 C 
ATOM     16  O   UNL     1      -1.090  10.272  17.463  0.00  0.00    +0.000 OA
BRANCH  14  17
ATOM     17  C   UNL     1      -3.690  13.662  21.610  0.00  0.00    +0.000 C 
ATOM     18  F   UNL     1      -4.772  14.466  21.808  0.00  0.00    +0.000 F 
ATOM     19  F   UNL     1      -3.618  12.861  22.708  0.00  0.00    +0.000 F 
ENDBRANCH  14  17
BRANCH  12  20
ATOM     20  C   UNL     1      -6.373  10.806  18.408  0.00  0.00    +0.000 C 
ATOM     21  F   UNL     1      -6.672   9.729  19.187  0.00  0.00    +0.000 F 
ENDBRANCH  12  20
ENDBRANCH   5   7
BRANCH   1  22
ATOM     22  N   UNL     1       1.675   7.738  21.571  0.00  0.00    +0.000 N 
ATOM     23  H   UNL     1       1.284   6.911  22.039  0.00  0.00    +0.000 HD
BRANCH  22  30
ATOM     24  C   UNL     1       3.506   6.751  17.766  0.00  0.00    +0.000 C 
ATOM     25  N   UNL     1       2.847   5.857  18.688  0.00  0.00    +0.000 N 
ATOM     26  C   UNL     1       2.652   4.524  18.506  0.00  0.00    +0.000 A 
ATOM     27  N   UNL     1       1.925   4.051  19.491  0.00  0.00    +0.000 NA
ATOM     28  N   UNL     1       1.644   5.099  20.340  0.00  0.00    +0.000 NA
ATOM     29  C   UNL     1       2.226   6.177  19.864  0.00  0.00    +0.000 A 
ATOM     30  N   UNL     1       2.234   7.440  20.351  0.00  0.00    +0.000 N 
ATOM     31  H   UNL     1       2.972   8.082  20.070  0.00  0.00    +0.000 HD
ENDBRANCH  22  30
ENDBRANCH   1  22
TORSDOF 5
ENDMDL
