MODEL 1
REMARK VINA RESULT:      -8.1      0.000      0.000
REMARK  Name = 
REMARK  6 active torsions:
REMARK  status: ('A' for Active; 'I' for Inactive)
REMARK    1  A    between atoms: C_1  and  C_2
REMARK    2  A    between atoms: C_4  and  C_5
REMARK    3  A    between atoms: N_7  and  C_8
REMARK    4  A    between atoms: C_11  and  S_12
REMARK    5  A    between atoms: S_12  and  N_15
REMARK    6  A    between atoms: N_15  and  C_16
REMARK                            x       y       z     vdW  Elec       q    Type
REMARK                         _______ _______ _______ _____ _____    ______ ____
ROOT
ATOM      1  C   UNL     1       2.385   6.736  18.513  0.00  0.00    +0.000 C 
ATOM      2  O   UNL     1       1.731   6.731  17.474  0.00  0.00    +0.000 OA
ATOM      3  N   UNL     1       2.339   7.726  19.490  0.00  0.00    +0.000 N 
ATOM      4  H   UNL     1       2.999   7.664  20.255  0.00  0.00    +0.000 HD
ENDROOT
BRANCH   1   8
ATOM      5  C   UNL     1       6.905   4.626  18.024  0.00  0.00    +0.000 C 
ATOM      6  C   UNL     1       5.498   4.634  18.540  0.00  0.00    +0.000 A 
ATOM      7  C   UNL     1       4.602   5.639  18.208  0.00  0.00    +0.000 A 
ATOM      8  C   UNL     1       3.314   5.587  18.751  0.00  0.00    +0.000 A 
ATOM      9  C   UNL     1       2.947   4.520  19.624  0.00  0.00    +0.000 A 
ATOM     10  C   UNL     1       1.674   4.338  20.234  0.00  0.00    +0.000 A 
ATOM     11  C   UNL     1       1.421   3.282  21.111  0.00  0.00    +0.000 A 
ATOM     12  C   UNL     1       2.429   2.374  21.392  0.00  0.00    +0.000 A 
ATOM     13  C   UNL     1       3.673   2.524  20.781  0.00  0.00    +0.000 A 
ATOM     14  C   UNL     1       3.946   3.568  19.902  0.00  0.00    +0.000 A 
ATOM     15  N   UNL     1       5.173   3.619  19.368  0.00  0.00    +0.000 NA
ENDBRANCH   1   8
BRANCH   3  16
ATOM     16  C   UNL     1       1.560   8.915  19.431  0.00  0.00    +0.000 A 
ATOM     17  C   UNL     1       0.509   9.194  20.312  0.00  0.00    +0.000 A 
ATOM     18  C   UNL     1      -0.287  10.335  20.158  0.00  0.00    +0.000 A 
ATOM     19  C   UNL     1      -0.030  11.222  19.116  0.00  0.00    +0.000 A 
ATOM     20  C   UNL     1       1.042  10.992  18.249  0.00  0.00    +0.000 A 
ATOM     21  C   UNL     1       1.839   9.846  18.417  0.00  0.00    +0.000 A 
BRANCH  19  22
ATOM     22  S   UNL     1      -1.118  12.603  18.853  0.00  0.00    +0.000 S 
ATOM     23  O   UNL     1      -2.256  12.429  19.732  0.00  0.00    +0.000 OA
ATOM     24  O   UNL     1      -0.339  13.820  18.863  0.00  0.00    +0.000 OA
BRANCH  22  25
ATOM     25  N   UNL     1      -1.684  12.347  17.293  0.00  0.00    +0.000 NA
ATOM     26  H   UNL     1      -1.054  12.649  16.552  0.00  0.00    +0.000 HD
BRANCH  25  27
ATOM     27  C   UNL     1      -2.669  11.303  17.060  0.00  0.00    +0.000 C 
ATOM     28  C   UNL     1      -2.284   9.929  16.587  0.00  0.00    +0.000 C 
ATOM     29  C   UNL     1      -2.942  10.888  15.641  0.00  0.00    +0.000 C 
ENDBRANCH  25  27
ENDBRANCH  22  25
ENDBRANCH  19  22
ENDBRANCH   3  16
TORSDOF 5
ENDMDL
MODEL 2
REMARK VINA RESULT:      -8.0      2.968      8.710
REMARK  Name = 
REMARK  6 active torsions:
REMARK  status: ('A' for Active; 'I' for Inactive)
REMARK    1  A    between atoms: C_1  and  C_2
REMARK    2  A    between atoms: C_4  and  C_5
REMARK    3  A    between atoms: N_7  and  C_8
REMARK    4  A    between atoms: C_11  and  S_12
REMARK    5  A    between atoms: S_12  and  N_15
REMARK    6  A    between atoms: N_15  and  C_16
REMARK                            x       y       z     vdW  Elec       q    Type
REMARK                         _______ _______ _______ _____ _____    ______ ____
ROOT
ATOM      1  C   UNL     1       1.073   9.730  18.677  0.00  0.00    +0.000 C 
ATOM      2  O   UNL     1       1.770  10.199  17.782  0.00  0.00    +0.000 OA
ATOM      3  N   UNL     1       1.292   8.513  19.316  0.00  0.00    +0.000 N 
ATOM      4  H   UNL     1       0.590   8.192  19.970  0.00  0.00    +0.000 HD
ENDROOT
BRANCH   1   8
ATOM      5  C   UNL     1      -1.006  13.079  21.772  0.00  0.00    +0.000 C 
ATOM      6  C   UNL     1      -1.057  12.165  20.586  0.00  0.00    +0.000 A 
ATOM      7  C   UNL     1       0.002  11.332  20.257  0.00  0.00    +0.000 A 
ATOM      8  C   UNL     1      -0.114  10.528  19.119  0.00  0.00    +0.000 A 
ATOM      9  C   UNL     1      -1.299  10.576  18.326  0.00  0.00    +0.000 A 
ATOM     10  C   UNL     1      -1.554   9.806  17.156  0.00  0.00    +0.000 A 
ATOM     11  C   UNL     1      -2.730   9.954  16.419  0.00  0.00    +0.000 A 
ATOM     12  C   UNL     1      -3.686  10.864  16.838  0.00  0.00    +0.000 A 
ATOM     13  C   UNL     1      -3.462  11.605  17.997  0.00  0.00    +0.000 A 
ATOM     14  C   UNL     1      -2.299  11.472  18.748  0.00  0.00    +0.000 A 
ATOM     15  N   UNL     1      -2.184  12.230  19.846  0.00  0.00    +0.000 NA
ENDBRANCH   1   8
BRANCH   3  16
ATOM     16  C   UNL     1       2.331   7.590  19.011  0.00  0.00    +0.000 A 
ATOM     17  C   UNL     1       3.085   7.640  17.833  0.00  0.00    +0.000 A 
ATOM     18  C   UNL     1       4.037   6.656  17.536  0.00  0.00    +0.000 A 
ATOM     19  C   UNL     1       4.251   5.609  18.428  0.00  0.00    +0.000 A 
ATOM     20  C   UNL     1       3.544   5.561  19.633  0.00  0.00    +0.000 A 
ATOM     21  C   UNL     1       2.596   6.557  19.924  0.00  0.00    +0.000 A 
BRANCH  19  22
ATOM     22  S   UNL     1       5.370   4.301  17.990  0.00  0.00    +0.000 S 
ATOM     23  O   UNL     1       5.268   4.108  16.558  0.00  0.00    +0.000 OA
ATOM     24  O   UNL     1       6.644   4.542  18.628  0.00  0.00    +0.000 OA
BRANCH  22  25
ATOM     25  N   UNL     1       4.670   2.949  18.699  0.00  0.00    +0.000 NA
ATOM     26  H   UNL     1       4.708   2.929  19.716  0.00  0.00    +0.000 HD
BRANCH  25  27
ATOM     27  C   UNL     1       3.640   2.224  17.972  0.00  0.00    +0.000 C 
ATOM     28  C   UNL     1       2.351   2.871  17.549  0.00  0.00    +0.000 C 
ATOM     29  C   UNL     1       2.359   1.900  18.691  0.00  0.00    +0.000 C 
ENDBRANCH  25  27
ENDBRANCH  22  25
ENDBRANCH  19  22
ENDBRANCH   3  16
TORSDOF 5
ENDMDL
MODEL 3
REMARK VINA RESULT:      -7.9      2.994      8.873
REMARK  Name = 
REMARK  6 active torsions:
REMARK  status: ('A' for Active; 'I' for Inactive)
REMARK    1  A    between atoms: C_1  and  C_2
REMARK    2  A    between atoms: C_4  and  C_5
REMARK    3  A    between atoms: N_7  and  C_8
REMARK    4  A    between atoms: C_11  and  S_12
REMARK    5  A    between atoms: S_12  and  N_15
REMARK    6  A    between atoms: N_15  and  C_16
REMARK                            x       y       z     vdW  Elec       q    Type
REMARK                         _______ _______ _______ _____ _____    ______ ____
ROOT
ATOM      1  C   UNL     1       1.185   9.908  18.922  0.00  0.00    +0.000 C 
ATOM      2  O   UNL     1       1.878  10.383  18.027  0.00  0.00    +0.000 OA
ATOM      3  N   UNL     1       1.317   8.628  19.453  0.00  0.00    +0.000 N 
ATOM      4  H   UNL     1       0.621   8.322  20.120  0.00  0.00    +0.000 HD
ENDROOT
BRANCH   1   8
ATOM      5  C   UNL     1      -0.305  13.464  22.124  0.00  0.00    +0.000 C 
ATOM      6  C   UNL     1      -0.559  12.507  21.000  0.00  0.00    +0.000 A 
ATOM      7  C   UNL     1       0.411  11.616  20.563  0.00  0.00    +0.000 A 
ATOM      8  C   UNL     1       0.104  10.773  19.491  0.00  0.00    +0.000 A 
ATOM      9  C   UNL     1      -1.180  10.840  18.872  0.00  0.00    +0.000 A 
ATOM     10  C   UNL     1      -1.628  10.035  17.786  0.00  0.00    +0.000 A 
ATOM     11  C   UNL     1      -2.892  10.204  17.217  0.00  0.00    +0.000 A 
ATOM     12  C   UNL     1      -3.744  11.170  17.725  0.00  0.00    +0.000 A 
ATOM     13  C   UNL     1      -3.329  11.947  18.806  0.00  0.00    +0.000 A 
ATOM     14  C   UNL     1      -2.076  11.794  19.390  0.00  0.00    +0.000 A 
ATOM     15  N   UNL     1      -1.777  12.590  20.425  0.00  0.00    +0.000 NA
ENDBRANCH   1   8
BRANCH   3  16
ATOM     16  C   UNL     1       2.247   7.642  19.019  0.00  0.00    +0.000 A 
ATOM     17  C   UNL     1       3.010   7.761  17.852  0.00  0.00    +0.000 A 
ATOM     18  C   UNL     1       3.845   6.724  17.420  0.00  0.00    +0.000 A 
ATOM     19  C   UNL     1       3.931   5.550  18.163  0.00  0.00    +0.000 A 
ATOM     20  C   UNL     1       3.215   5.423  19.357  0.00  0.00    +0.000 A 
ATOM     21  C   UNL     1       2.385   6.473  19.786  0.00  0.00    +0.000 A 
BRANCH  19  22
ATOM     22  S   UNL     1       4.897   4.192  17.546  0.00  0.00    +0.000 S 
ATOM     23  O   UNL     1       4.176   2.975  17.851  0.00  0.00    +0.000 OA
ATOM     24  O   UNL     1       5.324   4.496  16.198  0.00  0.00    +0.000 OA
BRANCH  22  25
ATOM     25  N   UNL     1       6.247   4.204  18.544  0.00  0.00    +0.000 NA
ATOM     26  H   UNL     1       6.879   3.415  18.422  0.00  0.00    +0.000 HD
BRANCH  25  27
ATOM     27  C   UNL     1       6.725   5.471  19.074  0.00  0.00    +0.000 C 
ATOM     28  C   UNL     1       7.554   6.421  18.255  0.00  0.00    +0.000 C 
ATOM     29  C   UNL     1       8.196   5.618  19.345  0.00  0.00    +0.000 C 
ENDBRANCH  25  27
ENDBRANCH  22  25
ENDBRANCH  19  22
ENDBRANCH   3  16
TORSDOF 5
ENDMDL
MODEL 4
REMARK VINA RESULT:      -7.9      3.065      8.807
REMARK  Name = 
REMARK  6 active torsions:
REMARK  status: ('A' for Active; 'I' for Inactive)
REMARK    1  A    between atoms: C_1  and  C_2
REMARK    2  A    between atoms: C_4  and  C_5
REMARK    3  A    between atoms: N_7  and  C_8
REMARK    4  A    between atoms: C_11  and  S_12
REMARK    5  A    between atoms: S_12  and  N_15
REMARK    6  A    between atoms: N_15  and  C_16
REMARK                            x       y       z     vdW  Elec       q    Type
REMARK                         _______ _______ _______ _____ _____    ______ ____
ROOT
ATOM      1  C   UNL     1       1.226   9.815  18.495  0.00  0.00    +0.000 C 
ATOM      2  O   UNL     1       1.925  10.103  17.528  0.00  0.00    +0.000 OA
ATOM      3  N   UNL     1       1.354   8.665  19.269  0.00  0.00    +0.000 N 
ATOM      4  H   UNL     1       0.654   8.497  19.980  0.00  0.00    +0.000 HD
ENDROOT
BRANCH   1   8
ATOM      5  C   UNL     1      -0.279  13.914  20.954  0.00  0.00    +0.000 C 
ATOM      6  C   UNL     1      -0.525  12.765  20.025  0.00  0.00    +0.000 A 
ATOM      7  C   UNL     1       0.444  11.804  19.777  0.00  0.00    +0.000 A 
ATOM      8  C   UNL     1       0.144  10.776  18.877  0.00  0.00    +0.000 A 
ATOM      9  C   UNL     1      -1.131  10.732  18.238  0.00  0.00    +0.000 A 
ATOM     10  C   UNL     1      -1.570   9.741  17.315  0.00  0.00    +0.000 A 
ATOM     11  C   UNL     1      -2.825   9.806  16.707  0.00  0.00    +0.000 A 
ATOM     12  C   UNL     1      -3.677  10.854  17.013  0.00  0.00    +0.000 A 
ATOM     13  C   UNL     1      -3.271  11.817  17.935  0.00  0.00    +0.000 A 
ATOM     14  C   UNL     1      -2.026  11.770  18.555  0.00  0.00    +0.000 A 
ATOM     15  N   UNL     1      -1.735  12.745  19.427  0.00  0.00    +0.000 NA
ENDBRANCH   1   8
BRANCH   3  16
ATOM     16  C   UNL     1       2.284   7.612  19.043  0.00  0.00    +0.000 A 
ATOM     17  C   UNL     1       3.117   7.546  17.921  0.00  0.00    +0.000 A 
ATOM     18  C   UNL     1       3.952   6.444  17.698  0.00  0.00    +0.000 A 
ATOM     19  C   UNL     1       3.966   5.391  18.609  0.00  0.00    +0.000 A 
ATOM     20  C   UNL     1       3.177   5.453  19.761  0.00  0.00    +0.000 A 
ATOM     21  C   UNL     1       2.348   6.567  19.979  0.00  0.00    +0.000 A 
BRANCH  19  22
ATOM     22  S   UNL     1       4.934   3.943  18.258  0.00  0.00    +0.000 S 
ATOM     23  O   UNL     1       6.307   4.248  18.605  0.00  0.00    +0.000 OA
ATOM     24  O   UNL     1       4.260   2.787  18.802  0.00  0.00    +0.000 OA
BRANCH  22  25
ATOM     25  N   UNL     1       4.881   3.849  16.582  0.00  0.00    +0.000 NA
ATOM     26  H   UNL     1       3.971   4.045  16.169  0.00  0.00    +0.000 HD
BRANCH  25  27
ATOM     27  C   UNL     1       6.106   4.045  15.824  0.00  0.00    +0.000 C 
ATOM     28  C   UNL     1       6.302   5.222  14.909  0.00  0.00    +0.000 C 
ATOM     29  C   UNL     1       6.054   3.860  14.333  0.00  0.00    +0.000 C 
ENDBRANCH  25  27
ENDBRANCH  22  25
ENDBRANCH  19  22
ENDBRANCH   3  16
TORSDOF 5
ENDMDL
MODEL 5
REMARK VINA RESULT:      -7.8      0.700      2.754
REMARK  Name = 
REMARK  6 active torsions:
REMARK  status: ('A' for Active; 'I' for Inactive)
REMARK    1  A    between atoms: C_1  and  C_2
REMARK    2  A    between atoms: C_4  and  C_5
REMARK    3  A    between atoms: N_7  and  C_8
REMARK    4  A    between atoms: C_11  and  S_12
REMARK    5  A    between atoms: S_12  and  N_15
REMARK    6  A    between atoms: N_15  and  C_16
REMARK                            x       y       z     vdW  Elec       q    Type
REMARK                         _______ _______ _______ _____ _____    ______ ____
ROOT
ATOM      1  C   UNL     1       2.490   6.754  18.666  0.00  0.00    +0.000 C 
ATOM      2  O   UNL     1       1.838   6.693  17.627  0.00  0.00    +0.000 OA
ATOM      3  N   UNL     1       2.373   7.748  19.633  0.00  0.00    +0.000 N 
ATOM      4  H   UNL     1       3.035   7.739  20.399  0.00  0.00    +0.000 HD
ENDROOT
BRANCH   1   8
ATOM      5  C   UNL     1       3.642   2.210  20.437  0.00  0.00    +0.000 C 
ATOM      6  C   UNL     1       3.997   3.482  19.729  0.00  0.00    +0.000 A 
ATOM      7  C   UNL     1       3.097   4.531  19.614  0.00  0.00    +0.000 A 
ATOM      8  C   UNL     1       3.496   5.675  18.915  0.00  0.00    +0.000 A 
ATOM      9  C   UNL     1       4.800   5.745  18.339  0.00  0.00    +0.000 A 
ATOM     10  C   UNL     1       5.338   6.847  17.618  0.00  0.00    +0.000 A 
ATOM     11  C   UNL     1       6.613   6.806  17.053  0.00  0.00    +0.000 A 
ATOM     12  C   UNL     1       7.389   5.668  17.205  0.00  0.00    +0.000 A 
ATOM     13  C   UNL     1       6.886   4.591  17.933  0.00  0.00    +0.000 A 
ATOM     14  C   UNL     1       5.619   4.612  18.506  0.00  0.00    +0.000 A 
ATOM     15  N   UNL     1       5.232   3.525  19.187  0.00  0.00    +0.000 NA
ENDBRANCH   1   8
BRANCH   3  16
ATOM     16  C   UNL     1       1.513   8.880  19.562  0.00  0.00    +0.000 A 
ATOM     17  C   UNL     1       0.482   9.124  20.475  0.00  0.00    +0.000 A 
ATOM     18  C   UNL     1      -0.395  10.203  20.312  0.00  0.00    +0.000 A 
ATOM     19  C   UNL     1      -0.241  11.061  19.227  0.00  0.00    +0.000 A 
ATOM     20  C   UNL     1       0.809  10.866  18.325  0.00  0.00    +0.000 A 
ATOM     21  C   UNL     1       1.687   9.784  18.502  0.00  0.00    +0.000 A 
BRANCH  19  22
ATOM     22  S   UNL     1      -1.430  12.354  18.958  0.00  0.00    +0.000 S 
ATOM     23  O   UNL     1      -2.627  11.999  19.691  0.00  0.00    +0.000 OA
ATOM     24  O   UNL     1      -0.782  13.632  19.150  0.00  0.00    +0.000 OA
BRANCH  22  25
ATOM     25  N   UNL     1      -1.808  12.189  17.330  0.00  0.00    +0.000 NA
ATOM     26  H   UNL     1      -1.073  12.477  16.687  0.00  0.00    +0.000 HD
BRANCH  25  27
ATOM     27  C   UNL     1      -2.813  11.217  16.933  0.00  0.00    +0.000 C 
ATOM     28  C   UNL     1      -2.453   9.825  16.495  0.00  0.00    +0.000 C 
ATOM     29  C   UNL     1      -2.897  10.835  15.481  0.00  0.00    +0.000 C 
ENDBRANCH  25  27
ENDBRANCH  22  25
ENDBRANCH  19  22
ENDBRANCH   3  16
TORSDOF 5
ENDMDL
MODEL 6
REMARK VINA RESULT:      -7.7      2.422      2.998
REMARK  Name = 
REMARK  6 active torsions:
REMARK  status: ('A' for Active; 'I' for Inactive)
REMARK    1  A    between atoms: C_1  and  C_2
REMARK    2  A    between atoms: C_4  and  C_5
REMARK    3  A    between atoms: N_7  and  C_8
REMARK    4  A    between atoms: C_11  and  S_12
REMARK    5  A    between atoms: S_12  and  N_15
REMARK    6  A    between atoms: N_15  and  C_16
REMARK                            x       y       z     vdW  Elec       q    Type
REMARK                         _______ _______ _______ _____ _____    ______ ____
ROOT
ATOM      1  C   UNL     1       2.611   7.360  18.406  0.00  0.00    +0.000 C 
ATOM      2  O   UNL     1       2.510   7.360  19.629  0.00  0.00    +0.000 OA
ATOM      3  N   UNL     1       2.160   8.369  17.560  0.00  0.00    +0.000 N 
ATOM      4  H   UNL     1       2.215   8.206  16.563  0.00  0.00    +0.000 HD
ENDROOT
BRANCH   1   8
ATOM      5  C   UNL     1       6.452   5.357  15.886  0.00  0.00    +0.000 C 
ATOM      6  C   UNL     1       5.142   5.248  16.605  0.00  0.00    +0.000 A 
ATOM      7  C   UNL     1       4.474   6.366  17.083  0.00  0.00    +0.000 A 
ATOM      8  C   UNL     1       3.268   6.178  17.766  0.00  0.00    +0.000 A 
ATOM      9  C   UNL     1       2.752   4.862  17.959  0.00  0.00    +0.000 A 
ATOM     10  C   UNL     1       1.537   4.528  18.621  0.00  0.00    +0.000 A 
ATOM     11  C   UNL     1       1.134   3.204  18.799  0.00  0.00    +0.000 A 
ATOM     12  C   UNL     1       1.928   2.179  18.310  0.00  0.00    +0.000 A 
ATOM     13  C   UNL     1       3.107   2.491  17.636  0.00  0.00    +0.000 A 
ATOM     14  C   UNL     1       3.526   3.804  17.445  0.00  0.00    +0.000 A 
ATOM     15  N   UNL     1       4.674   3.995  16.782  0.00  0.00    +0.000 NA
ENDBRANCH   1   8
BRANCH   3  16
ATOM     16  C   UNL     1       1.471   9.547  17.965  0.00  0.00    +0.000 A 
ATOM     17  C   UNL     1       2.118  10.735  18.321  0.00  0.00    +0.000 A 
ATOM     18  C   UNL     1       1.402  11.839  18.800  0.00  0.00    +0.000 A 
ATOM     19  C   UNL     1       0.017  11.766  18.919  0.00  0.00    +0.000 A 
ATOM     20  C   UNL     1      -0.659  10.607  18.527  0.00  0.00    +0.000 A 
ATOM     21  C   UNL     1       0.069   9.507  18.041  0.00  0.00    +0.000 A 
BRANCH  19  22
ATOM     22  S   UNL     1      -0.872  13.124  19.641  0.00  0.00    +0.000 S 
ATOM     23  O   UNL     1      -2.283  12.808  19.560  0.00  0.00    +0.000 OA
ATOM     24  O   UNL     1      -0.250  13.476  20.897  0.00  0.00    +0.000 OA
BRANCH  22  25
ATOM     25  N   UNL     1      -0.605  14.373  18.549  0.00  0.00    +0.000 NA
ATOM     26  H   UNL     1      -0.983  14.217  17.617  0.00  0.00    +0.000 HD
BRANCH  25  27
ATOM     27  C   UNL     1      -0.388  15.719  19.055  0.00  0.00    +0.000 C 
ATOM     28  C   UNL     1      -0.473  16.931  18.169  0.00  0.00    +0.000 C 
ATOM     29  C   UNL     1       0.863  16.440  18.638  0.00  0.00    +0.000 C 
ENDBRANCH  25  27
ENDBRANCH  22  25
ENDBRANCH  19  22
ENDBRANCH   3  16
TORSDOF 5
ENDMDL
MODEL 7
REMARK VINA RESULT:      -7.7      2.656      3.456
REMARK  Name = 
REMARK  6 active torsions:
REMARK  status: ('A' for Active; 'I' for Inactive)
REMARK    1  A    between atoms: C_1  and  C_2
REMARK    2  A    between atoms: C_4  and  C_5
REMARK    3  A    between atoms: N_7  and  C_8
REMARK    4  A    between atoms: C_11  and  S_12
REMARK    5  A    between atoms: S_12  and  N_15
REMARK    6  A    between atoms: N_15  and  C_16
REMARK                            x       y       z     vdW  Elec       q    Type
REMARK                         _______ _______ _______ _____ _____    ______ ____
ROOT
ATOM      1  C   UNL     1       2.458   7.118  19.032  0.00  0.00    +0.000 C 
ATOM      2  O   UNL     1       2.096   7.646  17.985  0.00  0.00    +0.000 OA
ATOM      3  N   UNL     1       2.075   7.514  20.310  0.00  0.00    +0.000 N 
ATOM      4  H   UNL     1       2.519   7.058  21.096  0.00  0.00    +0.000 HD
ENDROOT
BRANCH   1   8
ATOM      5  C   UNL     1       7.113   5.261  19.058  0.00  0.00    +0.000 C 
ATOM      6  C   UNL     1       5.625   5.098  18.998  0.00  0.00    +0.000 A 
ATOM      7  C   UNL     1       4.769   6.189  18.961  0.00  0.00    +0.000 A 
ATOM      8  C   UNL     1       3.391   5.952  18.931  0.00  0.00    +0.000 A 
ATOM      9  C   UNL     1       2.894   4.615  18.941  0.00  0.00    +0.000 A 
ATOM     10  C   UNL     1       1.523   4.232  18.901  0.00  0.00    +0.000 A 
ATOM     11  C   UNL     1       1.130   2.894  18.957  0.00  0.00    +0.000 A 
ATOM     12  C   UNL     1       2.095   1.904  19.042  0.00  0.00    +0.000 A 
ATOM     13  C   UNL     1       3.443   2.262  19.055  0.00  0.00    +0.000 A 
ATOM     14  C   UNL     1       3.856   3.589  18.997  0.00  0.00    +0.000 A 
ATOM     15  N   UNL     1       5.175   3.825  19.013  0.00  0.00    +0.000 NA
ENDBRANCH   1   8
BRANCH   3  16
ATOM     16  C   UNL     1       1.237   8.621  20.619  0.00  0.00    +0.000 A 
ATOM     17  C   UNL     1       0.882   9.605  19.689  0.00  0.00    +0.000 A 
ATOM     18  C   UNL     1       0.129  10.724  20.063  0.00  0.00    +0.000 A 
ATOM     19  C   UNL     1      -0.289  10.866  21.384  0.00  0.00    +0.000 A 
ATOM     20  C   UNL     1       0.012   9.875  22.323  0.00  0.00    +0.000 A 
ATOM     21  C   UNL     1       0.763   8.753  21.935  0.00  0.00    +0.000 A 
BRANCH  19  22
ATOM     22  S   UNL     1      -1.139  12.346  21.878  0.00  0.00    +0.000 S 
ATOM     23  O   UNL     1      -0.178  13.189  22.557  0.00  0.00    +0.000 OA
ATOM     24  O   UNL     1      -1.913  12.836  20.760  0.00  0.00    +0.000 OA
BRANCH  22  25
ATOM     25  N   UNL     1      -2.201  11.796  23.058  0.00  0.00    +0.000 NA
ATOM     26  H   UNL     1      -1.764  11.300  23.832  0.00  0.00    +0.000 HD
BRANCH  25  27
ATOM     27  C   UNL     1      -3.482  12.465  23.223  0.00  0.00    +0.000 C 
ATOM     28  C   UNL     1      -3.639  13.696  24.070  0.00  0.00    +0.000 C 
ATOM     29  C   UNL     1      -4.159  12.379  24.563  0.00  0.00    +0.000 C 
ENDBRANCH  25  27
ENDBRANCH  22  25
ENDBRANCH  19  22
ENDBRANCH   3  16
TORSDOF 5
ENDMDL
MODEL 8
REMARK VINA RESULT:      -7.7      2.397      3.133
REMARK  Name = 
REMARK  6 active torsions:
REMARK  status: ('A' for Active; 'I' for Inactive)
REMARK    1  A    between atoms: C_1  and  C_2
REMARK    2  A    between atoms: C_4  and  C_5
REMARK    3  A    between atoms: N_7  and  C_8
REMARK    4  A    between atoms: C_11  and  S_12
REMARK    5  A    between atoms: S_12  and  N_15
REMARK    6  A    between atoms: N_15  and  C_16
REMARK                            x       y       z     vdW  Elec       q    Type
REMARK                         _______ _______ _______ _____ _____    ______ ____
ROOT
ATOM      1  C   UNL     1       2.617   7.174  18.704  0.00  0.00    +0.000 C 
ATOM      2  O   UNL     1       2.647   7.140  19.931  0.00  0.00    +0.000 OA
ATOM      3  N   UNL     1       2.174   8.248  17.938  0.00  0.00    +0.000 N 
ATOM      4  H   UNL     1       2.107   8.117  16.937  0.00  0.00    +0.000 HD
ENDROOT
BRANCH   1   8
ATOM      5  C   UNL     1       5.900   4.965  15.630  0.00  0.00    +0.000 C 
ATOM      6  C   UNL     1       4.707   4.931  16.534  0.00  0.00    +0.000 A 
ATOM      7  C   UNL     1       4.193   6.082  17.113  0.00  0.00    +0.000 A 
ATOM      8  C   UNL     1       3.092   5.962  17.967  0.00  0.00    +0.000 A 
ATOM      9  C   UNL     1       2.523   4.679  18.227  0.00  0.00    +0.000 A 
ATOM     10  C   UNL     1       1.400   4.415  19.060  0.00  0.00    +0.000 A 
ATOM     11  C   UNL     1       0.940   3.117  19.288  0.00  0.00    +0.000 A 
ATOM     12  C   UNL     1       1.583   2.051  18.680  0.00  0.00    +0.000 A 
ATOM     13  C   UNL     1       2.668   2.296  17.840  0.00  0.00    +0.000 A 
ATOM     14  C   UNL     1       3.140   3.582  17.597  0.00  0.00    +0.000 A 
ATOM     15  N   UNL     1       4.188   3.707  16.771  0.00  0.00    +0.000 NA
ENDBRANCH   1   8
BRANCH   3  16
ATOM     16  C   UNL     1       1.642   9.467  18.446  0.00  0.00    +0.000 A 
ATOM     17  C   UNL     1       2.144  10.728  18.106  0.00  0.00    +0.000 A 
ATOM     18  C   UNL     1       1.647  11.894  18.700  0.00  0.00    +0.000 A 
ATOM     19  C   UNL     1       0.627  11.808  19.644  0.00  0.00    +0.000 A 
ATOM     20  C   UNL     1       0.076  10.565  19.968  0.00  0.00    +0.000 A 
ATOM     21  C   UNL     1       0.578   9.401  19.360  0.00  0.00    +0.000 A 
BRANCH  19  22
ATOM     22  S   UNL     1       0.085  13.278  20.483  0.00  0.00    +0.000 S 
ATOM     23  O   UNL     1       1.012  13.521  21.569  0.00  0.00    +0.000 OA
ATOM     24  O   UNL     1      -0.207  14.297  19.500  0.00  0.00    +0.000 OA
BRANCH  22  25
ATOM     25  N   UNL     1      -1.359  12.797  21.194  0.00  0.00    +0.000 NA
ATOM     26  H   UNL     1      -2.015  12.337  20.566  0.00  0.00    +0.000 HD
BRANCH  25  27
ATOM     27  C   UNL     1      -1.394  12.551  22.627  0.00  0.00    +0.000 C 
ATOM     28  C   UNL     1      -1.457  11.163  23.200  0.00  0.00    +0.000 C 
ATOM     29  C   UNL     1      -2.673  12.039  23.228  0.00  0.00    +0.000 C 
ENDBRANCH  25  27
ENDBRANCH  22  25
ENDBRANCH  19  22
ENDBRANCH   3  16
TORSDOF 5
ENDMDL
MODEL 9
REMARK VINA RESULT:      -7.7      2.722      3.175
REMARK  Name = 
REMARK  6 active torsions:
REMARK  status: ('A' for Active; 'I' for Inactive)
REMARK    1  A    between atoms: C_1  and  C_2
REMARK    2  A    between atoms: C_4  and  C_5
REMARK    3  A    between atoms: N_7  and  C_8
REMARK    4  A    between atoms: C_11  and  S_12
REMARK    5  A    between atoms: S_12  and  N_15
REMARK    6  A    between atoms: N_15  and  C_16
REMARK                            x       y       z     vdW  Elec       q    Type
REMARK                         _______ _______ _______ _____ _____    ______ ____
ROOT
ATOM      1  C   UNL     1       2.580   7.670  18.231  0.00  0.00    +0.000 C 
ATOM      2  O   UNL     1       2.214   8.485  17.388  0.00  0.00    +0.000 OA
ATOM      3  N   UNL     1       2.178   7.653  19.563  0.00  0.00    +0.000 N 
ATOM      4  H   UNL     1       2.625   6.988  20.181  0.00  0.00    +0.000 HD
ENDROOT
BRANCH   1   8
ATOM      5  C   UNL     1       7.224   6.249  16.997  0.00  0.00    +0.000 C 
ATOM      6  C   UNL     1       5.779   5.957  17.259  0.00  0.00    +0.000 A 
ATOM      7  C   UNL     1       4.867   6.965  17.536  0.00  0.00    +0.000 A 
ATOM      8  C   UNL     1       3.540   6.608  17.795  0.00  0.00    +0.000 A 
ATOM      9  C   UNL     1       3.150   5.236  17.773  0.00  0.00    +0.000 A 
ATOM     10  C   UNL     1       1.837   4.735  18.004  0.00  0.00    +0.000 A 
ATOM     11  C   UNL     1       1.560   3.367  18.003  0.00  0.00    +0.000 A 
ATOM     12  C   UNL     1       2.583   2.465  17.759  0.00  0.00    +0.000 A 
ATOM     13  C   UNL     1       3.868   2.942  17.503  0.00  0.00    +0.000 A 
ATOM     14  C   UNL     1       4.165   4.301  17.497  0.00  0.00    +0.000 A 
ATOM     15  N   UNL     1       5.432   4.653  17.239  0.00  0.00    +0.000 NA
ENDBRANCH   1   8
BRANCH   3  16
ATOM     16  C   UNL     1       1.312   8.598  20.181  0.00  0.00    +0.000 A 
ATOM     17  C   UNL     1       0.726   9.670  19.499  0.00  0.00    +0.000 A 
ATOM     18  C   UNL     1      -0.046  10.625  20.170  0.00  0.00    +0.000 A 
ATOM     19  C   UNL     1      -0.248  10.512  21.542  0.00  0.00    +0.000 A 
ATOM     20  C   UNL     1       0.287   9.426  22.240  0.00  0.00    +0.000 A 
ATOM     21  C   UNL     1       1.055   8.468  21.556  0.00  0.00    +0.000 A 
BRANCH  19  22
ATOM     22  S   UNL     1      -1.126  11.792  22.407  0.00  0.00    +0.000 S 
ATOM     23  O   UNL     1      -1.958  11.148  23.402  0.00  0.00    +0.000 OA
ATOM     24  O   UNL     1      -0.195  12.837  22.766  0.00  0.00    +0.000 OA
BRANCH  22  25
ATOM     25  N   UNL     1      -2.171  12.391  21.236  0.00  0.00    +0.000 NA
ATOM     26  H   UNL     1      -2.020  12.027  20.297  0.00  0.00    +0.000 HD
BRANCH  25  27
ATOM     27  C   UNL     1      -3.471  12.900  21.642  0.00  0.00    +0.000 C 
ATOM     28  C   UNL     1      -4.559  13.203  20.649  0.00  0.00    +0.000 C 
ATOM     29  C   UNL     1      -3.812  14.325  21.306  0.00  0.00    +0.000 C 
ENDBRANCH  25  27
ENDBRANCH  22  25
ENDBRANCH  19  22
ENDBRANCH   3  16
TORSDOF 5
ENDMDL
