MODEL 1
REMARK VINA RESULT:      -8.5      0.000      0.000
REMARK  Name = 
REMARK  7 active torsions:
REMARK  status: ('A' for Active; 'I' for Inactive)
REMARK    1  A    between atoms: C_1  and  C_2
REMARK    2  A    between atoms: C_2  and  C_3
REMARK    3  A    between atoms: C_3  and  C_5
REMARK    4  A    between atoms: C_9  and  N_10
REMARK    5  A    between atoms: C_15  and  C_16
REMARK    6  A    between atoms: C_16  and  N_17
REMARK    7  A    between atoms: C_25  and  C_26
REMARK                            x       y       z     vdW  Elec       q    Type
REMARK                         _______ _______ _______ _____ _____    ______ ____
ROOT
ATOM      1  N   UNL     1       3.997   4.826  18.939  0.00  0.00    +0.000 N 
ATOM      2  C   UNL     1       5.328   5.456  19.163  0.00  0.00    +0.000 C 
ATOM      3  C   UNL     1       5.975   5.308  17.817  0.00  0.00    +0.000 A 
ATOM      4  C   UNL     1       5.381   4.214  17.185  0.00  0.00    +0.000 A 
ATOM      5  C   UNL     1       5.622   3.881  15.866  0.00  0.00    +0.000 A 
ATOM      6  C   UNL     1       6.519   4.682  15.145  0.00  0.00    +0.000 A 
ATOM      7  C   UNL     1       7.129   5.790  15.783  0.00  0.00    +0.000 A 
ATOM      8  C   UNL     1       6.865   6.127  17.131  0.00  0.00    +0.000 A 
ATOM      9  C   UNL     1       4.211   3.793  17.991  0.00  0.00    +0.000 C 
ATOM     10  O   UNL     1       3.484   2.859  17.707  0.00  0.00    +0.000 OA
ENDROOT
BRANCH   1  15
ATOM     11  C   UNL     1       2.015   7.778  19.529  0.00  0.00    +0.000 A 
ATOM     12  C   UNL     1       2.517   8.551  18.471  0.00  0.00    +0.000 A 
ATOM     13  C   UNL     1       3.058   7.926  17.354  0.00  0.00    +0.000 A 
ATOM     14  C   UNL     1       3.229   6.550  17.356  0.00  0.00    +0.000 A 
ATOM     15  C   UNL     1       3.019   5.831  18.540  0.00  0.00    +0.000 A 
ATOM     16  C   UNL     1       2.243   6.406  19.556  0.00  0.00    +0.000 A 
BRANCH  11  17
ATOM     17  C   UNL     1       1.374   8.426  20.697  0.00  0.00    +0.000 C 
ATOM     18  N   UNL     1       1.806   8.169  21.896  0.00  0.00    +0.000 NA
ATOM     19  H   UNL     1       1.306   8.700  22.605  0.00  0.00    +0.000 HD
BRANCH  17  21
ATOM     20  C   UNL     1      -0.250  10.138  21.666  0.00  0.00    +0.000 C 
ATOM     21  C   UNL     1       0.254   9.425  20.431  0.00  0.00    +0.000 C 
ENDBRANCH  17  21
ENDBRANCH  11  17
ENDBRANCH   1  15
BRANCH   8  22
ATOM     22  C   UNL     1       7.470   7.383  17.707  0.00  0.00    +0.000 C 
ATOM     23  F   UNL     1       8.373   7.995  16.895  0.00  0.00    +0.000 F 
ATOM     24  F   UNL     1       6.528   8.327  17.986  0.00  0.00    +0.000 F 
ATOM     25  F   UNL     1       8.122   7.151  18.880  0.00  0.00    +0.000 F 
ENDBRANCH   8  22
BRANCH   6  26
ATOM     26  C   UNL     1       6.805   4.365  13.690  0.00  0.00    +0.000 C 
BRANCH  26  27
ATOM     27  N   UNL     1       5.996   3.253  13.181  0.00  0.00    +0.000 NA
ATOM     28  C   UNL     1       6.629   2.575  12.039  0.00  0.00    +0.000 C 
ATOM     29  C   UNL     1       5.492   2.097  11.152  0.00  0.00    +0.000 C 
ATOM     30  C   UNL     1       4.431   3.113  11.413  0.00  0.00    +0.000 C 
ATOM     31  C   UNL     1       3.899   3.973  10.284  0.00  0.00    +0.000 C 
ATOM     32  C   UNL     1       3.032   2.902  10.878  0.00  0.00    +0.000 C 
ATOM     33  C   UNL     1       4.652   3.706  12.776  0.00  0.00    +0.000 C 
ENDBRANCH  26  27
ENDBRANCH   6  26
TORSDOF 6
ENDMDL
MODEL 2
REMARK VINA RESULT:      -8.4      8.175     12.250
REMARK  Name = 
REMARK  7 active torsions:
REMARK  status: ('A' for Active; 'I' for Inactive)
REMARK    1  A    between atoms: C_1  and  C_2
REMARK    2  A    between atoms: C_2  and  C_3
REMARK    3  A    between atoms: C_3  and  C_5
REMARK    4  A    between atoms: C_9  and  N_10
REMARK    5  A    between atoms: C_15  and  C_16
REMARK    6  A    between atoms: C_16  and  N_17
REMARK    7  A    between atoms: C_25  and  C_26
REMARK                            x       y       z     vdW  Elec       q    Type
REMARK                         _______ _______ _______ _____ _____    ______ ____
ROOT
ATOM      1  N   UNL     1      -0.347  11.303  18.541  0.00  0.00    +0.000 N 
ATOM      2  C   UNL     1       0.379  10.575  19.619  0.00  0.00    +0.000 C 
ATOM      3  C   UNL     1      -0.158  11.232  20.858  0.00  0.00    +0.000 A 
ATOM      4  C   UNL     1      -0.578  12.515  20.502  0.00  0.00    +0.000 A 
ATOM      5  C   UNL     1      -1.270  13.348  21.360  0.00  0.00    +0.000 A 
ATOM      6  C   UNL     1      -1.544  12.872  22.650  0.00  0.00    +0.000 A 
ATOM      7  C   UNL     1      -1.116  11.573  23.018  0.00  0.00    +0.000 A 
ATOM      8  C   UNL     1      -0.418  10.726  22.126  0.00  0.00    +0.000 A 
ATOM      9  C   UNL     1      -0.538  12.622  19.025  0.00  0.00    +0.000 C 
ATOM     10  O   UNL     1      -0.842  13.624  18.403  0.00  0.00    +0.000 OA
ENDROOT
BRANCH   1  15
ATOM     11  C   UNL     1      -3.855  11.187  17.718  0.00  0.00    +0.000 A 
ATOM     12  C   UNL     1      -3.727  10.598  16.451  0.00  0.00    +0.000 A 
ATOM     13  C   UNL     1      -2.613   9.820  16.159  0.00  0.00    +0.000 A 
ATOM     14  C   UNL     1      -1.569   9.750  17.070  0.00  0.00    +0.000 A 
ATOM     15  C   UNL     1      -1.572  10.596  18.187  0.00  0.00    +0.000 A 
ATOM     16  C   UNL     1      -2.782  11.167  18.605  0.00  0.00    +0.000 A 
BRANCH  11  17
ATOM     17  C   UNL     1      -5.067  11.963  18.070  0.00  0.00    +0.000 C 
ATOM     18  N   UNL     1      -5.551  12.823  17.224  0.00  0.00    +0.000 NA
ATOM     19  H   UNL     1      -6.399  13.264  17.570  0.00  0.00    +0.000 HD
BRANCH  17  21
ATOM     20  C   UNL     1      -6.818  10.617  19.345  0.00  0.00    +0.000 C 
ATOM     21  C   UNL     1      -5.735  11.671  19.408  0.00  0.00    +0.000 C 
ENDBRANCH  17  21
ENDBRANCH  11  17
ENDBRANCH   1  15
BRANCH   8  22
ATOM     22  C   UNL     1      -0.090   9.317  22.556  0.00  0.00    +0.000 C 
ATOM     23  F   UNL     1       1.184   8.929  22.283  0.00  0.00    +0.000 F 
ATOM     24  F   UNL     1      -0.251   9.137  23.896  0.00  0.00    +0.000 F 
ATOM     25  F   UNL     1      -0.896   8.395  21.958  0.00  0.00    +0.000 F 
ENDBRANCH   8  22
BRANCH   6  26
ATOM     26  C   UNL     1      -2.314  13.744  23.623  0.00  0.00    +0.000 C 
BRANCH  26  27
ATOM     27  N   UNL     1      -3.566  14.258  23.057  0.00  0.00    +0.000 NA
ATOM     28  C   UNL     1      -4.255  15.186  23.968  0.00  0.00    +0.000 C 
ATOM     29  C   UNL     1      -5.741  14.993  23.717  0.00  0.00    +0.000 C 
ATOM     30  C   UNL     1      -5.815  13.564  23.296  0.00  0.00    +0.000 C 
ATOM     31  C   UNL     1      -6.626  12.568  24.101  0.00  0.00    +0.000 C 
ATOM     32  C   UNL     1      -7.107  13.001  22.747  0.00  0.00    +0.000 C 
ATOM     33  C   UNL     1      -4.490  13.162  22.710  0.00  0.00    +0.000 C 
ENDBRANCH  26  27
ENDBRANCH   6  26
TORSDOF 6
ENDMDL
MODEL 3
REMARK VINA RESULT:      -8.1      8.031     12.105
REMARK  Name = 
REMARK  7 active torsions:
REMARK  status: ('A' for Active; 'I' for Inactive)
REMARK    1  A    between atoms: C_1  and  C_2
REMARK    2  A    between atoms: C_2  and  C_3
REMARK    3  A    between atoms: C_3  and  C_5
REMARK    4  A    between atoms: C_9  and  N_10
REMARK    5  A    between atoms: C_15  and  C_16
REMARK    6  A    between atoms: C_16  and  N_17
REMARK    7  A    between atoms: C_25  and  C_26
REMARK                            x       y       z     vdW  Elec       q    Type
REMARK                         _______ _______ _______ _____ _____    ______ ____
ROOT
ATOM      1  N   UNL     1      -0.303  11.081  18.355  0.00  0.00    +0.000 N 
ATOM      2  C   UNL     1       0.410  10.328  19.425  0.00  0.00    +0.000 C 
ATOM      3  C   UNL     1      -0.030  11.052  20.665  0.00  0.00    +0.000 A 
ATOM      4  C   UNL     1      -0.369  12.354  20.290  0.00  0.00    +0.000 A 
ATOM      5  C   UNL     1      -0.965  13.256  21.150  0.00  0.00    +0.000 A 
ATOM      6  C   UNL     1      -1.223  12.833  22.462  0.00  0.00    +0.000 A 
ATOM      7  C   UNL     1      -0.877  11.515  22.848  0.00  0.00    +0.000 A 
ATOM      8  C   UNL     1      -0.277  10.598  21.955  0.00  0.00    +0.000 A 
ATOM      9  C   UNL     1      -0.378  12.422  18.810  0.00  0.00    +0.000 C 
ATOM     10  O   UNL     1      -0.632  13.428  18.173  0.00  0.00    +0.000 OA
ENDROOT
BRANCH   1  15
ATOM     11  C   UNL     1      -3.872  11.181  17.866  0.00  0.00    +0.000 A 
ATOM     12  C   UNL     1      -3.891  10.696  16.550  0.00  0.00    +0.000 A 
ATOM     13  C   UNL     1      -2.849   9.900  16.091  0.00  0.00    +0.000 A 
ATOM     14  C   UNL     1      -1.730   9.710  16.889  0.00  0.00    +0.000 A 
ATOM     15  C   UNL     1      -1.588  10.458  18.066  0.00  0.00    +0.000 A 
ATOM     16  C   UNL     1      -2.725  11.042  18.641  0.00  0.00    +0.000 A 
BRANCH  11  17
ATOM     17  C   UNL     1      -5.007  11.974  18.393  0.00  0.00    +0.000 C 
ATOM     18  N   UNL     1      -4.776  13.060  19.070  0.00  0.00    +0.000 NA
ATOM     19  H   UNL     1      -5.636  13.528  19.347  0.00  0.00    +0.000 HD
BRANCH  17  21
ATOM     20  C   UNL     1      -6.866  10.288  18.844  0.00  0.00    +0.000 C 
ATOM     21  C   UNL     1      -6.418  11.503  18.063  0.00  0.00    +0.000 C 
ENDBRANCH  17  21
ENDBRANCH  11  17
ENDBRANCH   1  15
BRANCH   8  22
ATOM     22  C   UNL     1      -0.037   9.179  22.409  0.00  0.00    +0.000 C 
ATOM     23  F   UNL     1       1.217   8.715  22.162  0.00  0.00    +0.000 F 
ATOM     24  F   UNL     1      -0.227   9.029  23.750  0.00  0.00    +0.000 F 
ATOM     25  F   UNL     1      -0.884   8.295  21.813  0.00  0.00    +0.000 F 
ENDBRANCH   8  22
BRANCH   6  26
ATOM     26  C   UNL     1      -1.890  13.783  23.439  0.00  0.00    +0.000 C 
BRANCH  26  27
ATOM     27  N   UNL     1      -3.265  13.389  23.764  0.00  0.00    +0.000 NA
ATOM     28  C   UNL     1      -3.950  12.751  22.629  0.00  0.00    +0.000 C 
ATOM     29  C   UNL     1      -5.415  13.135  22.752  0.00  0.00    +0.000 C 
ATOM     30  C   UNL     1      -5.344  14.466  23.422  0.00  0.00    +0.000 C 
ATOM     31  C   UNL     1      -5.894  15.700  22.736  0.00  0.00    +0.000 C 
ATOM     32  C   UNL     1      -6.606  15.128  23.927  0.00  0.00    +0.000 C 
ATOM     33  C   UNL     1      -4.065  14.545  24.209  0.00  0.00    +0.000 C 
ENDBRANCH  26  27
ENDBRANCH   6  26
TORSDOF 6
ENDMDL
MODEL 4
REMARK VINA RESULT:      -7.9      6.941     12.627
REMARK  Name = 
REMARK  7 active torsions:
REMARK  status: ('A' for Active; 'I' for Inactive)
REMARK    1  A    between atoms: C_1  and  C_2
REMARK    2  A    between atoms: C_2  and  C_3
REMARK    3  A    between atoms: C_3  and  C_5
REMARK    4  A    between atoms: C_9  and  N_10
REMARK    5  A    between atoms: C_15  and  C_16
REMARK    6  A    between atoms: C_16  and  N_17
REMARK    7  A    between atoms: C_25  and  C_26
REMARK                            x       y       z     vdW  Elec       q    Type
REMARK                         _______ _______ _______ _____ _____    ______ ____
ROOT
ATOM      1  N   UNL     1      -1.022  12.069  20.425  0.00  0.00    +0.000 N 
ATOM      2  C   UNL     1      -1.725  12.922  21.422  0.00  0.00    +0.000 C 
ATOM      3  C   UNL     1      -3.162  12.757  21.019  0.00  0.00    +0.000 A 
ATOM      4  C   UNL     1      -3.180  12.428  19.662  0.00  0.00    +0.000 A 
ATOM      5  C   UNL     1      -4.328  12.050  18.992  0.00  0.00    +0.000 A 
ATOM      6  C   UNL     1      -5.525  12.014  19.720  0.00  0.00    +0.000 A 
ATOM      7  C   UNL     1      -5.514  12.352  21.096  0.00  0.00    +0.000 A 
ATOM      8  C   UNL     1      -4.329  12.726  21.772  0.00  0.00    +0.000 A 
ATOM      9  C   UNL     1      -1.789  12.151  19.235  0.00  0.00    +0.000 C 
ATOM     10  O   UNL     1      -1.469  11.841  18.101  0.00  0.00    +0.000 OA
ENDROOT
BRANCH   1  15
ATOM     11  C   UNL     1       0.804   8.979  20.758  0.00  0.00    +0.000 A 
ATOM     12  C   UNL     1       0.974   9.014  22.150  0.00  0.00    +0.000 A 
ATOM     13  C   UNL     1       0.078   9.728  22.938  0.00  0.00    +0.000 A 
ATOM     14  C   UNL     1      -0.890  10.515  22.332  0.00  0.00    +0.000 A 
ATOM     15  C   UNL     1      -0.843  10.719  20.946  0.00  0.00    +0.000 A 
ATOM     16  C   UNL     1      -0.126   9.816  20.150  0.00  0.00    +0.000 A 
BRANCH  11  17
ATOM     17  C   UNL     1       1.709   8.169  19.909  0.00  0.00    +0.000 C 
ATOM     18  N   UNL     1       2.261   7.096  20.394  0.00  0.00    +0.000 NA
ATOM     19  H   UNL     1       2.832   6.614  19.703  0.00  0.00    +0.000 HD
BRANCH  17  21
ATOM     20  C   UNL     1       2.972   7.829  17.720  0.00  0.00    +0.000 C 
ATOM     21  C   UNL     1       1.909   8.607  18.463  0.00  0.00    +0.000 C 
ENDBRANCH  17  21
ENDBRANCH  11  17
ENDBRANCH   1  15
BRANCH   8  22
ATOM     22  C   UNL     1      -4.379  12.967  23.261  0.00  0.00    +0.000 C 
ATOM     23  F   UNL     1      -5.630  12.947  23.792  0.00  0.00    +0.000 F 
ATOM     24  F   UNL     1      -3.669  12.035  23.957  0.00  0.00    +0.000 F 
ATOM     25  F   UNL     1      -3.848  14.173  23.607  0.00  0.00    +0.000 F 
ENDBRANCH   8  22
BRANCH   6  26
ATOM     26  C   UNL     1      -6.809  11.590  19.032  0.00  0.00    +0.000 C 
BRANCH  26  27
ATOM     27  N   UNL     1      -7.435  12.681  18.277  0.00  0.00    +0.000 NA
ATOM     28  C   UNL     1      -6.624  13.104  17.125  0.00  0.00    +0.000 C 
ATOM     29  C   UNL     1      -6.872  14.595  16.962  0.00  0.00    +0.000 C 
ATOM     30  C   UNL     1      -7.156  15.029  18.362  0.00  0.00    +0.000 C 
ATOM     31  C   UNL     1      -6.268  16.052  19.042  0.00  0.00    +0.000 C 
ATOM     32  C   UNL     1      -7.663  16.428  18.633  0.00  0.00    +0.000 C 
ATOM     33  C   UNL     1      -7.686  13.854  19.135  0.00  0.00    +0.000 C 
ENDBRANCH  26  27
ENDBRANCH   6  26
TORSDOF 6
ENDMDL
MODEL 5
REMARK VINA RESULT:      -7.8      5.130      8.554
REMARK  Name = 
REMARK  7 active torsions:
REMARK  status: ('A' for Active; 'I' for Inactive)
REMARK    1  A    between atoms: C_1  and  C_2
REMARK    2  A    between atoms: C_2  and  C_3
REMARK    3  A    between atoms: C_3  and  C_5
REMARK    4  A    between atoms: C_9  and  N_10
REMARK    5  A    between atoms: C_15  and  C_16
REMARK    6  A    between atoms: C_16  and  N_17
REMARK    7  A    between atoms: C_25  and  C_26
REMARK                            x       y       z     vdW  Elec       q    Type
REMARK                         _______ _______ _______ _____ _____    ______ ____
ROOT
ATOM      1  N   UNL     1      -0.803  12.916  22.062  0.00  0.00    +0.000 N 
ATOM      2  C   UNL     1       0.417  13.566  21.507  0.00  0.00    +0.000 C 
ATOM      3  C   UNL     1       0.919  12.524  20.549  0.00  0.00    +0.000 A 
ATOM      4  C   UNL     1       0.451  11.287  20.995  0.00  0.00    +0.000 A 
ATOM      5  C   UNL     1       0.592  10.120  20.268  0.00  0.00    +0.000 A 
ATOM      6  C   UNL     1       1.248  10.198  19.031  0.00  0.00    +0.000 A 
ATOM      7  C   UNL     1       1.728  11.451  18.576  0.00  0.00    +0.000 A 
ATOM      8  C   UNL     1       1.569  12.639  19.326  0.00  0.00    +0.000 A 
ATOM      9  C   UNL     1      -0.526  11.526  22.082  0.00  0.00    +0.000 C 
ATOM     10  O   UNL     1      -1.110  10.643  22.684  0.00  0.00    +0.000 OA
ENDROOT
BRANCH   1  15
ATOM     11  C   UNL     1      -3.319  12.312  19.553  0.00  0.00    +0.000 A 
ATOM     12  C   UNL     1      -4.441  12.409  20.390  0.00  0.00    +0.000 A 
ATOM     13  C   UNL     1      -4.366  13.153  21.562  0.00  0.00    +0.000 A 
ATOM     14  C   UNL     1      -3.146  13.672  21.967  0.00  0.00    +0.000 A 
ATOM     15  C   UNL     1      -1.978  13.296  21.288  0.00  0.00    +0.000 A 
ATOM     16  C   UNL     1      -2.083  12.779  19.990  0.00  0.00    +0.000 A 
BRANCH  11  17
ATOM     17  C   UNL     1      -3.399  11.580  18.267  0.00  0.00    +0.000 C 
ATOM     18  N   UNL     1      -4.165  12.028  17.316  0.00  0.00    +0.000 NA
ATOM     19  H   UNL     1      -4.107  11.456  16.477  0.00  0.00    +0.000 HD
BRANCH  17  21
ATOM     20  C   UNL     1      -2.154  10.041  16.660  0.00  0.00    +0.000 C 
ATOM     21  C   UNL     1      -2.522  10.346  18.094  0.00  0.00    +0.000 C 
ENDBRANCH  17  21
ENDBRANCH  11  17
ENDBRANCH   1  15
BRANCH   8  22
ATOM     22  C   UNL     1       2.012  13.951  18.726  0.00  0.00    +0.000 C 
ATOM     23  F   UNL     1       2.647  13.836  17.530  0.00  0.00    +0.000 F 
ATOM     24  F   UNL     1       0.966  14.797  18.508  0.00  0.00    +0.000 F 
ATOM     25  F   UNL     1       2.872  14.627  19.539  0.00  0.00    +0.000 F 
ENDBRANCH   8  22
BRANCH   6  26
ATOM     26  C   UNL     1       1.412   8.947  18.189  0.00  0.00    +0.000 C 
BRANCH  26  27
ATOM     27  N   UNL     1       2.563   8.135  18.597  0.00  0.00    +0.000 NA
ATOM     28  C   UNL     1       3.356   7.669  17.449  0.00  0.00    +0.000 C 
ATOM     29  C   UNL     1       3.911   6.311  17.846  0.00  0.00    +0.000 C 
ATOM     30  C   UNL     1       2.867   5.796  18.779  0.00  0.00    +0.000 C 
ATOM     31  C   UNL     1       2.118   4.517  18.462  0.00  0.00    +0.000 C 
ATOM     32  C   UNL     1       3.120   4.539  19.580  0.00  0.00    +0.000 C 
ATOM     33  C   UNL     1       2.143   6.965  19.389  0.00  0.00    +0.000 C 
ENDBRANCH  26  27
ENDBRANCH   6  26
TORSDOF 6
ENDMDL
MODEL 6
REMARK VINA RESULT:      -7.7      8.251     11.986
REMARK  Name = 
REMARK  7 active torsions:
REMARK  status: ('A' for Active; 'I' for Inactive)
REMARK    1  A    between atoms: C_1  and  C_2
REMARK    2  A    between atoms: C_2  and  C_3
REMARK    3  A    between atoms: C_3  and  C_5
REMARK    4  A    between atoms: C_9  and  N_10
REMARK    5  A    between atoms: C_15  and  C_16
REMARK    6  A    between atoms: C_16  and  N_17
REMARK    7  A    between atoms: C_25  and  C_26
REMARK                            x       y       z     vdW  Elec       q    Type
REMARK                         _______ _______ _______ _____ _____    ______ ____
ROOT
ATOM      1  N   UNL     1      -0.427  11.465  18.541  0.00  0.00    +0.000 N 
ATOM      2  C   UNL     1       0.368  10.763  19.587  0.00  0.00    +0.000 C 
ATOM      3  C   UNL     1      -0.152  11.389  20.849  0.00  0.00    +0.000 A 
ATOM      4  C   UNL     1      -0.638  12.655  20.518  0.00  0.00    +0.000 A 
ATOM      5  C   UNL     1      -1.333  13.453  21.407  0.00  0.00    +0.000 A 
ATOM      6  C   UNL     1      -1.540  12.958  22.702  0.00  0.00    +0.000 A 
ATOM      7  C   UNL     1      -1.045  11.676  23.045  0.00  0.00    +0.000 A 
ATOM      8  C   UNL     1      -0.344  10.865  22.122  0.00  0.00    +0.000 A 
ATOM      9  C   UNL     1      -0.656  12.772  19.042  0.00  0.00    +0.000 C 
ATOM     10  O   UNL     1      -1.024  13.764  18.438  0.00  0.00    +0.000 OA
ENDROOT
BRANCH   1  15
ATOM     11  C   UNL     1      -3.896  11.217  17.596  0.00  0.00    +0.000 A 
ATOM     12  C   UNL     1      -3.713  10.481  16.416  0.00  0.00    +0.000 A 
ATOM     13  C   UNL     1      -2.584   9.683  16.267  0.00  0.00    +0.000 A 
ATOM     14  C   UNL     1      -1.579   9.734  17.221  0.00  0.00    +0.000 A 
ATOM     15  C   UNL     1      -1.633  10.710  18.226  0.00  0.00    +0.000 A 
ATOM     16  C   UNL     1      -2.862  11.315  18.521  0.00  0.00    +0.000 A 
BRANCH  11  17
ATOM     17  C   UNL     1      -5.125  12.018  17.800  0.00  0.00    +0.000 C 
ATOM     18  N   UNL     1      -5.378  13.025  17.017  0.00  0.00    +0.000 NA
ATOM     19  H   UNL     1      -6.264  13.471  17.241  0.00  0.00    +0.000 HD
BRANCH  17  21
ATOM     20  C   UNL     1      -7.382  12.356  18.939  0.00  0.00    +0.000 C 
ATOM     21  C   UNL     1      -6.082  11.584  18.904  0.00  0.00    +0.000 C 
ENDBRANCH  17  21
ENDBRANCH  11  17
ENDBRANCH   1  15
BRANCH   8  22
ATOM     22  C   UNL     1       0.058   9.469  22.529  0.00  0.00    +0.000 C 
ATOM     23  F   UNL     1       1.324   9.122  22.172  0.00  0.00    +0.000 F 
ATOM     24  F   UNL     1      -0.007   9.287  23.878  0.00  0.00    +0.000 F 
ATOM     25  F   UNL     1      -0.754   8.519  21.986  0.00  0.00    +0.000 F 
ENDBRANCH   8  22
BRANCH   6  26
ATOM     26  C   UNL     1      -2.311  13.791  23.709  0.00  0.00    +0.000 C 
BRANCH  26  27
ATOM     27  N   UNL     1      -3.764  13.682  23.541  0.00  0.00    +0.000 NA
ATOM     28  C   UNL     1      -4.152  12.497  22.760  0.00  0.00    +0.000 C 
ATOM     29  C   UNL     1      -5.403  12.891  21.993  0.00  0.00    +0.000 C 
ATOM     30  C   UNL     1      -5.213  14.358  21.797  0.00  0.00    +0.000 C 
ATOM     31  C   UNL     1      -5.129  14.940  20.401  0.00  0.00    +0.000 C 
ATOM     32  C   UNL     1      -6.341  15.201  21.247  0.00  0.00    +0.000 C 
ATOM     33  C   UNL     1      -4.323  14.881  22.891  0.00  0.00    +0.000 C 
ENDBRANCH  26  27
ENDBRANCH   6  26
TORSDOF 6
ENDMDL
MODEL 7
REMARK VINA RESULT:      -7.7      8.101     12.441
REMARK  Name = 
REMARK  7 active torsions:
REMARK  status: ('A' for Active; 'I' for Inactive)
REMARK    1  A    between atoms: C_1  and  C_2
REMARK    2  A    between atoms: C_2  and  C_3
REMARK    3  A    between atoms: C_3  and  C_5
REMARK    4  A    between atoms: C_9  and  N_10
REMARK    5  A    between atoms: C_15  and  C_16
REMARK    6  A    between atoms: C_16  and  N_17
REMARK    7  A    between atoms: C_25  and  C_26
REMARK                            x       y       z     vdW  Elec       q    Type
REMARK                         _______ _______ _______ _____ _____    ______ ____
ROOT
ATOM      1  N   UNL     1      -0.224  11.211  18.472  0.00  0.00    +0.000 N 
ATOM      2  C   UNL     1       0.484  10.508  19.578  0.00  0.00    +0.000 C 
ATOM      3  C   UNL     1      -0.002  11.254  20.786  0.00  0.00    +0.000 A 
ATOM      4  C   UNL     1      -0.368  12.535  20.368  0.00  0.00    +0.000 A 
ATOM      5  C   UNL     1      -1.007  13.444  21.189  0.00  0.00    +0.000 A 
ATOM      6  C   UNL     1      -1.282  13.051  22.506  0.00  0.00    +0.000 A 
ATOM      7  C   UNL     1      -0.909  11.754  22.937  0.00  0.00    +0.000 A 
ATOM      8  C   UNL     1      -0.265  10.829  22.083  0.00  0.00    +0.000 A 
ATOM      9  C   UNL     1      -0.346  12.561  18.887  0.00  0.00    +0.000 C 
ATOM     10  O   UNL     1      -0.613  13.542  18.215  0.00  0.00    +0.000 OA
ENDROOT
BRANCH   1  15
ATOM     11  C   UNL     1      -3.786  11.196  17.922  0.00  0.00    +0.000 A 
ATOM     12  C   UNL     1      -3.769  10.687  16.615  0.00  0.00    +0.000 A 
ATOM     13  C   UNL     1      -2.695   9.914  16.188  0.00  0.00    +0.000 A 
ATOM     14  C   UNL     1      -1.586   9.772  17.008  0.00  0.00    +0.000 A 
ATOM     15  C   UNL     1      -1.486  10.545  18.172  0.00  0.00    +0.000 A 
ATOM     16  C   UNL     1      -2.649  11.105  18.718  0.00  0.00    +0.000 A 
BRANCH  11  17
ATOM     17  C   UNL     1      -4.952  11.965  18.415  0.00  0.00    +0.000 C 
ATOM     18  N   UNL     1      -4.765  13.039  19.122  0.00  0.00    +0.000 NA
ATOM     19  H   UNL     1      -5.642  13.491  19.371  0.00  0.00    +0.000 HD
BRANCH  17  21
ATOM     20  C   UNL     1      -6.903  10.396  18.906  0.00  0.00    +0.000 C 
ATOM     21  C   UNL     1      -6.342  11.483  18.016  0.00  0.00    +0.000 C 
ENDBRANCH  17  21
ENDBRANCH  11  17
ENDBRANCH   1  15
BRANCH   8  22
ATOM     22  C   UNL     1       0.003   9.430  22.583  0.00  0.00    +0.000 C 
ATOM     23  F   UNL     1      -0.153   9.274  23.924  0.00  0.00    +0.000 F 
ATOM     24  F   UNL     1      -0.820   8.511  22.007  0.00  0.00    +0.000 F 
ATOM     25  F   UNL     1       1.272   9.018  22.306  0.00  0.00    +0.000 F 
ENDBRANCH   8  22
BRANCH   6  26
ATOM     26  C   UNL     1      -1.996  14.008  23.441  0.00  0.00    +0.000 C 
BRANCH  26  27
ATOM     27  N   UNL     1      -1.077  14.719  24.336  0.00  0.00    +0.000 NA
ATOM     28  C   UNL     1      -1.739  15.188  25.563  0.00  0.00    +0.000 C 
ATOM     29  C   UNL     1      -1.043  16.483  25.947  0.00  0.00    +0.000 C 
ATOM     30  C   UNL     1      -0.609  17.020  24.624  0.00  0.00    +0.000 C 
ATOM     31  C   UNL     1      -1.119  18.361  24.136  0.00  0.00    +0.000 C 
ATOM     32  C   UNL     1       0.314  18.215  24.557  0.00  0.00    +0.000 C 
ATOM     33  C   UNL     1      -0.455  15.873  23.663  0.00  0.00    +0.000 C 
ENDBRANCH  26  27
ENDBRANCH   6  26
TORSDOF 6
ENDMDL
MODEL 8
REMARK VINA RESULT:      -7.7      8.254     12.723
REMARK  Name = 
REMARK  7 active torsions:
REMARK  status: ('A' for Active; 'I' for Inactive)
REMARK    1  A    between atoms: C_1  and  C_2
REMARK    2  A    between atoms: C_2  and  C_3
REMARK    3  A    between atoms: C_3  and  C_5
REMARK    4  A    between atoms: C_9  and  N_10
REMARK    5  A    between atoms: C_15  and  C_16
REMARK    6  A    between atoms: C_16  and  N_17
REMARK    7  A    between atoms: C_25  and  C_26
REMARK                            x       y       z     vdW  Elec       q    Type
REMARK                         _______ _______ _______ _____ _____    ______ ____
ROOT
ATOM      1  N   UNL     1      -0.442  11.443  18.579  0.00  0.00    +0.000 N 
ATOM      2  C   UNL     1       0.325  10.704  19.620  0.00  0.00    +0.000 C 
ATOM      3  C   UNL     1      -0.240  11.273  20.889  0.00  0.00    +0.000 A 
ATOM      4  C   UNL     1      -0.728  12.547  20.595  0.00  0.00    +0.000 A 
ATOM      5  C   UNL     1      -1.458  13.302  21.493  0.00  0.00    +0.000 A 
ATOM      6  C   UNL     1      -1.702  12.752  22.759  0.00  0.00    +0.000 A 
ATOM      7  C   UNL     1      -1.205  11.461  23.065  0.00  0.00    +0.000 A 
ATOM      8  C   UNL     1      -0.468  10.695  22.132  0.00  0.00    +0.000 A 
ATOM      9  C   UNL     1      -0.699  12.726  19.125  0.00  0.00    +0.000 C 
ATOM     10  O   UNL     1      -1.057  13.739  18.551  0.00  0.00    +0.000 OA
ENDROOT
BRANCH   1  15
ATOM     11  C   UNL     1      -3.913  11.199  17.636  0.00  0.00    +0.000 A 
ATOM     12  C   UNL     1      -3.721  10.596  16.384  0.00  0.00    +0.000 A 
ATOM     13  C   UNL     1      -2.573   9.851  16.143  0.00  0.00    +0.000 A 
ATOM     14  C   UNL     1      -1.561   9.829  17.091  0.00  0.00    +0.000 A 
ATOM     15  C   UNL     1      -1.630  10.691  18.194  0.00  0.00    +0.000 A 
ATOM     16  C   UNL     1      -2.872  11.228  18.560  0.00  0.00    +0.000 A 
BRANCH  11  17
ATOM     17  C   UNL     1      -5.161  11.940  17.933  0.00  0.00    +0.000 C 
ATOM     18  N   UNL     1      -5.586  12.847  17.105  0.00  0.00    +0.000 NA
ATOM     19  H   UNL     1      -6.466  13.258  17.405  0.00  0.00    +0.000 HD
BRANCH  17  21
ATOM     20  C   UNL     1      -6.750  10.291  19.056  0.00  0.00    +0.000 C 
ATOM     21  C   UNL     1      -5.934  11.557  19.190  0.00  0.00    +0.000 C 
ENDBRANCH  17  21
ENDBRANCH  11  17
ENDBRANCH   1  15
BRANCH   8  22
ATOM     22  C   UNL     1      -0.066   9.286  22.494  0.00  0.00    +0.000 C 
ATOM     23  F   UNL     1      -0.764   8.318  21.843  0.00  0.00    +0.000 F 
ATOM     24  F   UNL     1       1.246   9.039  22.221  0.00  0.00    +0.000 F 
ATOM     25  F   UNL     1      -0.224   9.029  23.822  0.00  0.00    +0.000 F 
ENDBRANCH   8  22
BRANCH   6  26
ATOM     26  C   UNL     1      -2.512  13.536  23.774  0.00  0.00    +0.000 C 
BRANCH  26  27
ATOM     27  N   UNL     1      -2.114  14.946  23.852  0.00  0.00    +0.000 NA
ATOM     28  C   UNL     1      -1.656  15.326  25.197  0.00  0.00    +0.000 C 
ATOM     29  C   UNL     1      -2.058  16.780  25.382  0.00  0.00    +0.000 C 
ATOM     30  C   UNL     1      -3.283  16.886  24.536  0.00  0.00    +0.000 C 
ATOM     31  C   UNL     1      -4.614  17.260  25.158  0.00  0.00    +0.000 C 
ATOM     32  C   UNL     1      -3.904  18.238  24.267  0.00  0.00    +0.000 C 
ATOM     33  C   UNL     1      -3.219  15.839  23.458  0.00  0.00    +0.000 C 
ENDBRANCH  26  27
ENDBRANCH   6  26
TORSDOF 6
ENDMDL
MODEL 9
REMARK VINA RESULT:      -7.6      8.037     12.330
REMARK  Name = 
REMARK  7 active torsions:
REMARK  status: ('A' for Active; 'I' for Inactive)
REMARK    1  A    between atoms: C_1  and  C_2
REMARK    2  A    between atoms: C_2  and  C_3
REMARK    3  A    between atoms: C_3  and  C_5
REMARK    4  A    between atoms: C_9  and  N_10
REMARK    5  A    between atoms: C_15  and  C_16
REMARK    6  A    between atoms: C_16  and  N_17
REMARK    7  A    between atoms: C_25  and  C_26
REMARK                            x       y       z     vdW  Elec       q    Type
REMARK                         _______ _______ _______ _____ _____    ______ ____
ROOT
ATOM      1  N   UNL     1      -0.319  10.985  18.266  0.00  0.00    +0.000 N 
ATOM      2  C   UNL     1       0.357  10.217  19.348  0.00  0.00    +0.000 C 
ATOM      3  C   UNL     1       0.001  11.015  20.569  0.00  0.00    +0.000 A 
ATOM      4  C   UNL     1      -0.246  12.325  20.155  0.00  0.00    +0.000 A 
ATOM      5  C   UNL     1      -0.753  13.299  20.994  0.00  0.00    +0.000 A 
ATOM      6  C   UNL     1      -1.013  12.942  22.324  0.00  0.00    +0.000 A 
ATOM      7  C   UNL     1      -0.759  11.615  22.751  0.00  0.00    +0.000 A 
ATOM      8  C   UNL     1      -0.250  10.625  21.879  0.00  0.00    +0.000 A 
ATOM      9  C   UNL     1      -0.283  12.343  18.674  0.00  0.00    +0.000 C 
ATOM     10  O   UNL     1      -0.474  13.343  18.006  0.00  0.00    +0.000 OA
ENDROOT
BRANCH   1  15
ATOM     11  C   UNL     1      -3.904  11.302  18.053  0.00  0.00    +0.000 A 
ATOM     12  C   UNL     1      -4.042  10.930  16.708  0.00  0.00    +0.000 A 
ATOM     13  C   UNL     1      -3.079  10.124  16.111  0.00  0.00    +0.000 A 
ATOM     14  C   UNL     1      -1.920   9.813  16.806  0.00  0.00    +0.000 A 
ATOM     15  C   UNL     1      -1.655  10.453  18.024  0.00  0.00    +0.000 A 
ATOM     16  C   UNL     1      -2.714  11.042  18.728  0.00  0.00    +0.000 A 
BRANCH  11  17
ATOM     17  C   UNL     1      -4.953  12.103  18.725  0.00  0.00    +0.000 C 
ATOM     18  N   UNL     1      -6.150  12.154  18.220  0.00  0.00    +0.000 NA
ATOM     19  H   UNL     1      -6.783  12.709  18.790  0.00  0.00    +0.000 HD
BRANCH  17  21
ATOM     20  C   UNL     1      -5.522  12.487  21.181  0.00  0.00    +0.000 C 
ATOM     21  C   UNL     1      -4.590  12.799  20.032  0.00  0.00    +0.000 C 
ENDBRANCH  17  21
ENDBRANCH  11  17
ENDBRANCH   1  15
BRANCH   8  22
ATOM     22  C   UNL     1      -0.108   9.208  22.380  0.00  0.00    +0.000 C 
ATOM     23  F   UNL     1       1.134   8.678  22.220  0.00  0.00    +0.000 F 
ATOM     24  F   UNL     1      -0.385   9.102  23.709  0.00  0.00    +0.000 F 
ATOM     25  F   UNL     1      -0.961   8.351  21.753  0.00  0.00    +0.000 F 
ENDBRANCH   8  22
BRANCH   6  26
ATOM     26  C   UNL     1      -1.584  13.973  23.280  0.00  0.00    +0.000 C 
BRANCH  26  27
ATOM     27  N   UNL     1      -2.814  14.593  22.776  0.00  0.00    +0.000 NA
ATOM     28  C   UNL     1      -2.581  15.939  22.230  0.00  0.00    +0.000 C 
ATOM     29  C   UNL     1      -3.846  16.732  22.516  0.00  0.00    +0.000 C 
ATOM     30  C   UNL     1      -4.351  16.095  23.767  0.00  0.00    +0.000 C 
ATOM     31  C   UNL     1      -4.498  16.909  25.037  0.00  0.00    +0.000 C 
ATOM     32  C   UNL     1      -5.721  16.449  24.298  0.00  0.00    +0.000 C 
ATOM     33  C   UNL     1      -3.843  14.681  23.830  0.00  0.00    +0.000 C 
ENDBRANCH  26  27
ENDBRANCH   6  26
TORSDOF 6
ENDMDL
