MODEL 1
REMARK VINA RESULT:      -7.0      0.000      0.000
REMARK  Name = 
REMARK  4 active torsions:
REMARK  status: ('A' for Active; 'I' for Inactive)
REMARK    1  A    between atoms: C_2  and  C_4
REMARK    2  A    between atoms: C_8  and  N_9
REMARK    3  A    between atoms: C_10  and  C_12
REMARK    4  A    between atoms: N_14  and  C_15
REMARK                            x       y       z     vdW  Elec       q    Type
REMARK                         _______ _______ _______ _____ _____    ______ ____
ROOT
ATOM      1  C   UNL     1       0.451  12.055  19.812  0.00  0.00    +0.000 A 
ATOM      2  N   UNL     1       1.091  11.015  19.345  0.00  0.00    +0.000 NA
ATOM      3  N   UNL     1       0.951   9.785  19.989  0.00  0.00    +0.000 N 
ATOM      4  C   UNL     1       0.182   9.611  21.150  0.00  0.00    +0.000 A 
ATOM      5  O   UNL     1       0.024   8.567  21.781  0.00  0.00    +0.000 OA
ATOM      6  C   UNL     1      -0.469  10.812  21.700  0.00  0.00    +0.000 A 
ATOM      7  C   UNL     1      -1.168  10.721  22.916  0.00  0.00    +0.000 A 
ATOM      8  C   UNL     1      -1.780  11.847  23.459  0.00  0.00    +0.000 A 
ATOM      9  C   UNL     1      -1.709  13.059  22.782  0.00  0.00    +0.000 A 
ATOM     10  C   UNL     1      -1.004  13.152  21.579  0.00  0.00    +0.000 A 
ATOM     11  C   UNL     1      -0.370  12.025  21.037  0.00  0.00    +0.000 A 
ENDROOT
BRANCH   3  12
ATOM     12  C   UNL     1       1.675   8.694  19.383  0.00  0.00    +0.000 A 
ATOM     13  C   UNL     1       1.939   7.496  20.069  0.00  0.00    +0.000 A 
ATOM     14  C   UNL     1       2.691   6.465  19.490  0.00  0.00    +0.000 A 
ATOM     15  C   UNL     1       3.195   6.613  18.204  0.00  0.00    +0.000 A 
ATOM     16  C   UNL     1       2.933   7.780  17.496  0.00  0.00    +0.000 A 
ATOM     17  C   UNL     1       2.169   8.805  18.074  0.00  0.00    +0.000 A 
ENDBRANCH   3  12
BRANCH   1  19
ATOM     18  N   UNL     1       1.625  14.170  19.448  0.00  0.00    +0.000 N 
ATOM     19  C   UNL     1       0.580  13.368  19.027  0.00  0.00    +0.000 C 
ATOM     20  O   UNL     1      -0.151  13.579  18.065  0.00  0.00    +0.000 OA
ATOM     21  H   UNL     1       2.412  13.664  19.839  0.00  0.00    +0.000 HD
BRANCH  18  26
ATOM     22  C   UNL     1       1.177  16.531  18.637  0.00  0.00    +0.000 A 
ATOM     23  C   UNL     1       1.841  17.385  17.679  0.00  0.00    +0.000 A 
ATOM     24  C   UNL     1       2.992  16.829  17.170  0.00  0.00    +0.000 A 
ATOM     25  S   UNL     1       3.341  15.323  17.898  0.00  0.00    +0.000 S 
ATOM     26  C   UNL     1       1.880  15.344  18.765  0.00  0.00    +0.000 A 
BRANCH  22  28
ATOM     27  N   UNL     1      -1.202  16.462  18.916  0.00  0.00    +0.000 N 
ATOM     28  C   UNL     1      -0.003  16.887  19.424  0.00  0.00    +0.000 C 
ATOM     29  O   UNL     1       0.028  17.553  20.454  0.00  0.00    +0.000 OA
ATOM     30  H   UNL     1      -2.019  16.637  19.486  0.00  0.00    +0.000 HD
ATOM     31  H   UNL     1      -1.252  15.724  18.230  0.00  0.00    +0.000 HD
ENDBRANCH  22  28
ENDBRANCH  18  26
ENDBRANCH   1  19
TORSDOF 4
ENDMDL
MODEL 2
REMARK VINA RESULT:      -7.0      4.360      7.467
REMARK  Name = 
REMARK  4 active torsions:
REMARK  status: ('A' for Active; 'I' for Inactive)
REMARK    1  A    between atoms: C_2  and  C_4
REMARK    2  A    between atoms: C_8  and  N_9
REMARK    3  A    between atoms: C_10  and  C_12
REMARK    4  A    between atoms: N_14  and  C_15
REMARK                            x       y       z     vdW  Elec       q    Type
REMARK                         _______ _______ _______ _____ _____    ______ ____
ROOT
ATOM      1  C   UNL     1       2.472   5.841  19.667  0.00  0.00    +0.000 A 
ATOM      2  N   UNL     1       3.660   6.310  19.389  0.00  0.00    +0.000 NA
ATOM      3  N   UNL     1       4.557   5.511  18.678  0.00  0.00    +0.000 N 
ATOM      4  C   UNL     1       4.262   4.200  18.274  0.00  0.00    +0.000 A 
ATOM      5  O   UNL     1       5.002   3.432  17.662  0.00  0.00    +0.000 OA
ATOM      6  C   UNL     1       2.946   3.667  18.664  0.00  0.00    +0.000 A 
ATOM      7  C   UNL     1       2.632   2.328  18.377  0.00  0.00    +0.000 A 
ATOM      8  C   UNL     1       1.399   1.801  18.748  0.00  0.00    +0.000 A 
ATOM      9  C   UNL     1       0.471   2.614  19.389  0.00  0.00    +0.000 A 
ATOM     10  C   UNL     1       0.787   3.944  19.684  0.00  0.00    +0.000 A 
ATOM     11  C   UNL     1       2.036   4.473  19.330  0.00  0.00    +0.000 A 
ENDROOT
BRANCH   3  12
ATOM     12  C   UNL     1       5.831   6.128  18.397  0.00  0.00    +0.000 A 
ATOM     13  C   UNL     1       6.991   5.818  19.129  0.00  0.00    +0.000 A 
ATOM     14  C   UNL     1       8.211   6.464  18.885  0.00  0.00    +0.000 A 
ATOM     15  C   UNL     1       8.294   7.437  17.897  0.00  0.00    +0.000 A 
ATOM     16  C   UNL     1       7.167   7.748  17.146  0.00  0.00    +0.000 A 
ATOM     17  C   UNL     1       5.951   7.091  17.384  0.00  0.00    +0.000 A 
ENDBRANCH   3  12
BRANCH   1  19
ATOM     18  N   UNL     1       1.744   8.125  20.157  0.00  0.00    +0.000 N 
ATOM     19  C   UNL     1       1.497   6.783  20.388  0.00  0.00    +0.000 C 
ATOM     20  O   UNL     1       0.551   6.320  21.016  0.00  0.00    +0.000 OA
ATOM     21  H   UNL     1       2.166   8.325  19.257  0.00  0.00    +0.000 HD
BRANCH  18  26
ATOM     22  C   UNL     1       0.002   9.968  20.130  0.00  0.00    +0.000 A 
ATOM     23  C   UNL     1      -0.551  10.814  21.162  0.00  0.00    +0.000 A 
ATOM     24  C   UNL     1      -0.095  10.495  22.421  0.00  0.00    +0.000 A 
ATOM     25  S   UNL     1       0.925   9.124  22.394  0.00  0.00    +0.000 S 
ATOM     26  C   UNL     1       0.884   9.062  20.697  0.00  0.00    +0.000 A 
BRANCH  22  28
ATOM     27  N   UNL     1      -1.648  10.410  18.449  0.00  0.00    +0.000 N 
ATOM     28  C   UNL     1      -0.371   9.991  18.717  0.00  0.00    +0.000 C 
ATOM     29  O   UNL     1       0.363   9.632  17.801  0.00  0.00    +0.000 OA
ATOM     30  H   UNL     1      -1.895  10.501  17.473  0.00  0.00    +0.000 HD
ATOM     31  H   UNL     1      -2.183  10.934  19.125  0.00  0.00    +0.000 HD
ENDBRANCH  22  28
ENDBRANCH  18  26
ENDBRANCH   1  19
TORSDOF 4
ENDMDL
MODEL 3
REMARK VINA RESULT:      -6.9      4.150      7.346
REMARK  Name = 
REMARK  4 active torsions:
REMARK  status: ('A' for Active; 'I' for Inactive)
REMARK    1  A    between atoms: C_2  and  C_4
REMARK    2  A    between atoms: C_8  and  N_9
REMARK    3  A    between atoms: C_10  and  C_12
REMARK    4  A    between atoms: N_14  and  C_15
REMARK                            x       y       z     vdW  Elec       q    Type
REMARK                         _______ _______ _______ _____ _____    ______ ____
ROOT
ATOM      1  C   UNL     1       2.660   5.979  18.375  0.00  0.00    +0.000 A 
ATOM      2  N   UNL     1       3.594   5.895  17.464  0.00  0.00    +0.000 NA
ATOM      3  N   UNL     1       4.341   4.721  17.361  0.00  0.00    +0.000 N 
ATOM      4  C   UNL     1       4.168   3.625  18.221  0.00  0.00    +0.000 A 
ATOM      5  O   UNL     1       4.795   2.568  18.203  0.00  0.00    +0.000 OA
ATOM      6  C   UNL     1       3.162   3.771  19.286  0.00  0.00    +0.000 A 
ATOM      7  C   UNL     1       3.013   2.749  20.239  0.00  0.00    +0.000 A 
ATOM      8  C   UNL     1       2.077   2.872  21.260  0.00  0.00    +0.000 A 
ATOM      9  C   UNL     1       1.276   4.007  21.323  0.00  0.00    +0.000 A 
ATOM     10  C   UNL     1       1.431   5.029  20.381  0.00  0.00    +0.000 A 
ATOM     11  C   UNL     1       2.386   4.917  19.362  0.00  0.00    +0.000 A 
ENDROOT
BRANCH   3  12
ATOM     12  C   UNL     1       5.328   4.718  16.309  0.00  0.00    +0.000 A 
ATOM     13  C   UNL     1       6.598   5.298  16.470  0.00  0.00    +0.000 A 
ATOM     14  C   UNL     1       7.529   5.338  15.423  0.00  0.00    +0.000 A 
ATOM     15  C   UNL     1       7.205   4.794  14.187  0.00  0.00    +0.000 A 
ATOM     16  C   UNL     1       5.963   4.197  14.007  0.00  0.00    +0.000 A 
ATOM     17  C   UNL     1       5.038   4.147  15.060  0.00  0.00    +0.000 A 
ENDBRANCH   3  12
BRANCH   1  19
ATOM     18  N   UNL     1       2.006   8.031  19.535  0.00  0.00    +0.000 N 
ATOM     19  C   UNL     1       1.818   7.262  18.401  0.00  0.00    +0.000 C 
ATOM     20  O   UNL     1       1.135   7.565  17.428  0.00  0.00    +0.000 OA
ATOM     21  H   UNL     1       2.927   7.949  19.950  0.00  0.00    +0.000 HD
BRANCH  18  26
ATOM     22  C   UNL     1       0.345   9.708  20.462  0.00  0.00    +0.000 A 
ATOM     23  C   UNL     1      -0.065  11.027  20.035  0.00  0.00    +0.000 A 
ATOM     24  C   UNL     1       0.654  11.489  18.955  0.00  0.00    +0.000 A 
ATOM     25  S   UNL     1       1.884  10.395  18.500  0.00  0.00    +0.000 S 
ATOM     26  C   UNL     1       1.353   9.245  19.632  0.00  0.00    +0.000 A 
BRANCH  22  28
ATOM     27  N   UNL     1      -0.057   9.681  22.824  0.00  0.00    +0.000 N 
ATOM     28  C   UNL     1      -0.155   9.000  21.639  0.00  0.00    +0.000 C 
ATOM     29  O   UNL     1      -0.602   7.858  21.621  0.00  0.00    +0.000 OA
ATOM     30  H   UNL     1      -0.464   9.233  23.634  0.00  0.00    +0.000 HD
ATOM     31  H   UNL     1       0.069  10.681  22.848  0.00  0.00    +0.000 HD
ENDBRANCH  22  28
ENDBRANCH  18  26
ENDBRANCH   1  19
TORSDOF 4
ENDMDL
MODEL 4
REMARK VINA RESULT:      -6.9      3.882      5.858
REMARK  Name = 
REMARK  4 active torsions:
REMARK  status: ('A' for Active; 'I' for Inactive)
REMARK    1  A    between atoms: C_2  and  C_4
REMARK    2  A    between atoms: C_8  and  N_9
REMARK    3  A    between atoms: C_10  and  C_12
REMARK    4  A    between atoms: N_14  and  C_15
REMARK                            x       y       z     vdW  Elec       q    Type
REMARK                         _______ _______ _______ _____ _____    ______ ____
ROOT
ATOM      1  C   UNL     1      -1.294  12.603  19.994  0.00  0.00    +0.000 A 
ATOM      2  N   UNL     1      -0.744  11.432  19.800  0.00  0.00    +0.000 NA
ATOM      3  N   UNL     1       0.575  11.367  19.351  0.00  0.00    +0.000 N 
ATOM      4  C   UNL     1       1.342  12.505  19.056  0.00  0.00    +0.000 A 
ATOM      5  O   UNL     1       2.500  12.527  18.643  0.00  0.00    +0.000 OA
ATOM      6  C   UNL     1       0.677  13.809  19.211  0.00  0.00    +0.000 A 
ATOM      7  C   UNL     1       1.359  14.979  18.834  0.00  0.00    +0.000 A 
ATOM      8  C   UNL     1       0.745  16.221  18.961  0.00  0.00    +0.000 A 
ATOM      9  C   UNL     1      -0.543  16.299  19.479  0.00  0.00    +0.000 A 
ATOM     10  C   UNL     1      -1.225  15.135  19.844  0.00  0.00    +0.000 A 
ATOM     11  C   UNL     1      -0.618  13.880  19.700  0.00  0.00    +0.000 A 
ENDROOT
BRANCH   3  12
ATOM     12  C   UNL     1       1.099  10.032  19.193  0.00  0.00    +0.000 A 
ATOM     13  C   UNL     1       1.193   9.131  20.269  0.00  0.00    +0.000 A 
ATOM     14  C   UNL     1       1.755   7.857  20.116  0.00  0.00    +0.000 A 
ATOM     15  C   UNL     1       2.236   7.455  18.876  0.00  0.00    +0.000 A 
ATOM     16  C   UNL     1       2.137   8.319  17.792  0.00  0.00    +0.000 A 
ATOM     17  C   UNL     1       1.562   9.589  17.945  0.00  0.00    +0.000 A 
ENDBRANCH   3  12
BRANCH   1  19
ATOM     18  N   UNL     1      -3.694  12.872  19.604  0.00  0.00    +0.000 N 
ATOM     19  C   UNL     1      -2.722  12.622  20.556  0.00  0.00    +0.000 C 
ATOM     20  O   UNL     1      -2.920  12.338  21.733  0.00  0.00    +0.000 OA
ATOM     21  H   UNL     1      -3.457  12.558  18.669  0.00  0.00    +0.000 HD
BRANCH  18  26
ATOM     22  C   UNL     1      -6.092  12.045  19.605  0.00  0.00    +0.000 A 
ATOM     23  C   UNL     1      -7.303  12.540  20.220  0.00  0.00    +0.000 A 
ATOM     24  C   UNL     1      -7.087  13.632  21.030  0.00  0.00    +0.000 A 
ATOM     25  S   UNL     1      -5.427  14.020  21.138  0.00  0.00    +0.000 S 
ATOM     26  C   UNL     1      -5.022  12.841  19.984  0.00  0.00    +0.000 A 
BRANCH  22  28
ATOM     27  N   UNL     1      -7.029   9.963  18.879  0.00  0.00    +0.000 N 
ATOM     28  C   UNL     1      -5.982  10.842  18.783  0.00  0.00    +0.000 C 
ATOM     29  O   UNL     1      -5.020  10.575  18.071  0.00  0.00    +0.000 OA
ATOM     30  H   UNL     1      -7.002   9.162  18.263  0.00  0.00    +0.000 HD
ATOM     31  H   UNL     1      -7.924  10.248  19.247  0.00  0.00    +0.000 HD
ENDBRANCH  22  28
ENDBRANCH  18  26
ENDBRANCH   1  19
TORSDOF 4
ENDMDL
MODEL 5
REMARK VINA RESULT:      -6.8      4.299      7.547
REMARK  Name = 
REMARK  4 active torsions:
REMARK  status: ('A' for Active; 'I' for Inactive)
REMARK    1  A    between atoms: C_2  and  C_4
REMARK    2  A    between atoms: C_8  and  N_9
REMARK    3  A    between atoms: C_10  and  C_12
REMARK    4  A    between atoms: N_14  and  C_15
REMARK                            x       y       z     vdW  Elec       q    Type
REMARK                         _______ _______ _______ _____ _____    ______ ____
ROOT
ATOM      1  C   UNL     1       3.039   5.947  18.530  0.00  0.00    +0.000 A 
ATOM      2  N   UNL     1       3.922   5.832  17.572  0.00  0.00    +0.000 NA
ATOM      3  N   UNL     1       4.303   4.559  17.147  0.00  0.00    +0.000 N 
ATOM      4  C   UNL     1       3.811   3.379  17.726  0.00  0.00    +0.000 A 
ATOM      5  O   UNL     1       4.110   2.226  17.418  0.00  0.00    +0.000 OA
ATOM      6  C   UNL     1       2.875   3.533  18.852  0.00  0.00    +0.000 A 
ATOM      7  C   UNL     1       2.428   2.391  19.538  0.00  0.00    +0.000 A 
ATOM      8  C   UNL     1       1.553   2.516  20.612  0.00  0.00    +0.000 A 
ATOM      9  C   UNL     1       1.110   3.777  20.993  0.00  0.00    +0.000 A 
ATOM     10  C   UNL     1       1.563   4.914  20.317  0.00  0.00    +0.000 A 
ATOM     11  C   UNL     1       2.460   4.795  19.247  0.00  0.00    +0.000 A 
ENDROOT
BRANCH   3  12
ATOM     12  C   UNL     1       5.261   4.539  16.069  0.00  0.00    +0.000 A 
ATOM     13  C   UNL     1       6.579   5.003  16.228  0.00  0.00    +0.000 A 
ATOM     14  C   UNL     1       7.485   5.031  15.159  0.00  0.00    +0.000 A 
ATOM     15  C   UNL     1       7.088   4.590  13.903  0.00  0.00    +0.000 A 
ATOM     16  C   UNL     1       5.797   4.108  13.723  0.00  0.00    +0.000 A 
ATOM     17  C   UNL     1       4.897   4.070  14.797  0.00  0.00    +0.000 A 
ENDBRANCH   3  12
BRANCH   1  19
ATOM     18  N   UNL     1       1.602   7.404  19.870  0.00  0.00    +0.000 N 
ATOM     19  C   UNL     1       2.600   7.367  18.913  0.00  0.00    +0.000 C 
ATOM     20  O   UNL     1       3.190   8.336  18.447  0.00  0.00    +0.000 OA
ATOM     21  H   UNL     1       1.606   6.619  20.511  0.00  0.00    +0.000 HD
BRANCH  18  26
ATOM     22  C   UNL     1       0.785   9.800  19.711  0.00  0.00    +0.000 A 
ATOM     23  C   UNL     1       0.576  10.836  20.697  0.00  0.00    +0.000 A 
ATOM     24  C   UNL     1       0.788  10.401  21.986  0.00  0.00    +0.000 A 
ATOM     25  S   UNL     1       1.147   8.732  22.039  0.00  0.00    +0.000 S 
ATOM     26  C   UNL     1       1.179   8.631  20.343  0.00  0.00    +0.000 A 
BRANCH  22  28
ATOM     27  N   UNL     1       1.571  10.436  17.539  0.00  0.00    +0.000 N 
ATOM     28  C   UNL     1       0.536   9.925  18.276  0.00  0.00    +0.000 C 
ATOM     29  O   UNL     1      -0.526   9.642  17.731  0.00  0.00    +0.000 OA
ATOM     30  H   UNL     1       1.440  10.460  16.537  0.00  0.00    +0.000 HD
ATOM     31  H   UNL     1       2.516  10.448  17.894  0.00  0.00    +0.000 HD
ENDBRANCH  22  28
ENDBRANCH  18  26
ENDBRANCH   1  19
TORSDOF 4
ENDMDL
MODEL 6
REMARK VINA RESULT:      -6.8      4.300      7.331
REMARK  Name = 
REMARK  4 active torsions:
REMARK  status: ('A' for Active; 'I' for Inactive)
REMARK    1  A    between atoms: C_2  and  C_4
REMARK    2  A    between atoms: C_8  and  N_9
REMARK    3  A    between atoms: C_10  and  C_12
REMARK    4  A    between atoms: N_14  and  C_15
REMARK                            x       y       z     vdW  Elec       q    Type
REMARK                         _______ _______ _______ _____ _____    ______ ____
ROOT
ATOM      1  C   UNL     1      -2.888  12.507  20.169  0.00  0.00    +0.000 A 
ATOM      2  N   UNL     1      -3.723  12.979  21.058  0.00  0.00    +0.000 NA
ATOM      3  N   UNL     1      -5.094  12.896  20.814  0.00  0.00    +0.000 N 
ATOM      4  C   UNL     1      -5.631  12.360  19.633  0.00  0.00    +0.000 A 
ATOM      5  O   UNL     1      -6.822  12.266  19.340  0.00  0.00    +0.000 OA
ATOM      6  C   UNL     1      -4.670  11.902  18.616  0.00  0.00    +0.000 A 
ATOM      7  C   UNL     1      -5.145  11.450  17.373  0.00  0.00    +0.000 A 
ATOM      8  C   UNL     1      -4.253  11.025  16.394  0.00  0.00    +0.000 A 
ATOM      9  C   UNL     1      -2.888  11.034  16.658  0.00  0.00    +0.000 A 
ATOM     10  C   UNL     1      -2.415  11.495  17.891  0.00  0.00    +0.000 A 
ATOM     11  C   UNL     1      -3.309  11.942  18.874  0.00  0.00    +0.000 A 
ENDROOT
BRANCH   3  12
ATOM     12  C   UNL     1      -5.932  13.420  21.864  0.00  0.00    +0.000 A 
ATOM     13  C   UNL     1      -6.357  14.760  21.886  0.00  0.00    +0.000 A 
ATOM     14  C   UNL     1      -7.125  15.273  22.941  0.00  0.00    +0.000 A 
ATOM     15  C   UNL     1      -7.486  14.450  24.000  0.00  0.00    +0.000 A 
ATOM     16  C   UNL     1      -7.095  13.116  23.993  0.00  0.00    +0.000 A 
ATOM     17  C   UNL     1      -6.337  12.602  22.930  0.00  0.00    +0.000 A 
ENDBRANCH   3  12
BRANCH   1  19
ATOM     18  N   UNL     1      -0.729  13.641  19.968  0.00  0.00    +0.000 N 
ATOM     19  C   UNL     1      -1.393  12.558  20.515  0.00  0.00    +0.000 C 
ATOM     20  O   UNL     1      -0.916  11.735  21.290  0.00  0.00    +0.000 OA
ATOM     21  H   UNL     1      -1.307  14.462  19.830  0.00  0.00    +0.000 HD
BRANCH  18  26
ATOM     22  C   UNL     1       1.768  13.226  19.818  0.00  0.00    +0.000 A 
ATOM     23  C   UNL     1       2.894  13.710  20.584  0.00  0.00    +0.000 A 
ATOM     24  C   UNL     1       2.538  14.646  21.529  0.00  0.00    +0.000 A 
ATOM     25  S   UNL     1       0.874  15.024  21.449  0.00  0.00    +0.000 S 
ATOM     26  C   UNL     1       0.605  13.827  20.273  0.00  0.00    +0.000 A 
BRANCH  22  28
ATOM     27  N   UNL     1       2.614  12.737  17.630  0.00  0.00    +0.000 N 
ATOM     28  C   UNL     1       1.841  12.313  18.679  0.00  0.00    +0.000 C 
ATOM     29  O   UNL     1       1.238  11.247  18.606  0.00  0.00    +0.000 OA
ATOM     30  H   UNL     1       2.733  12.085  16.867  0.00  0.00    +0.000 HD
ATOM     31  H   UNL     1       3.304  13.464  17.745  0.00  0.00    +0.000 HD
ENDBRANCH  22  28
ENDBRANCH  18  26
ENDBRANCH   1  19
TORSDOF 4
ENDMDL
MODEL 7
REMARK VINA RESULT:      -6.8      0.990      1.146
REMARK  Name = 
REMARK  4 active torsions:
REMARK  status: ('A' for Active; 'I' for Inactive)
REMARK    1  A    between atoms: C_2  and  C_4
REMARK    2  A    between atoms: C_8  and  N_9
REMARK    3  A    between atoms: C_10  and  C_12
REMARK    4  A    between atoms: N_14  and  C_15
REMARK                            x       y       z     vdW  Elec       q    Type
REMARK                         _______ _______ _______ _____ _____    ______ ____
ROOT
ATOM      1  C   UNL     1       0.998  11.085  19.688  0.00  0.00    +0.000 A 
ATOM      2  N   UNL     1       1.657  10.099  19.137  0.00  0.00    +0.000 NA
ATOM      3  N   UNL     1       1.557   8.822  19.689  0.00  0.00    +0.000 N 
ATOM      4  C   UNL     1       0.808   8.542  20.842  0.00  0.00    +0.000 A 
ATOM      5  O   UNL     1       0.685   7.450  21.395  0.00  0.00    +0.000 OA
ATOM      6  C   UNL     1       0.135   9.681  21.487  0.00  0.00    +0.000 A 
ATOM      7  C   UNL     1      -0.546   9.482  22.701  0.00  0.00    +0.000 A 
ATOM      8  C   UNL     1      -1.179  10.548  23.333  0.00  0.00    +0.000 A 
ATOM      9  C   UNL     1      -1.147  11.809  22.749  0.00  0.00    +0.000 A 
ATOM     10  C   UNL     1      -0.460  12.009  21.547  0.00  0.00    +0.000 A 
ATOM     11  C   UNL     1       0.195  10.942  20.916  0.00  0.00    +0.000 A 
ENDROOT
BRANCH   3  12
ATOM     12  C   UNL     1       2.300   7.798  18.994  0.00  0.00    +0.000 A 
ATOM     13  C   UNL     1       2.410   6.486  19.488  0.00  0.00    +0.000 A 
ATOM     14  C   UNL     1       3.180   5.515  18.834  0.00  0.00    +0.000 A 
ATOM     15  C   UNL     1       3.858   5.839  17.665  0.00  0.00    +0.000 A 
ATOM     16  C   UNL     1       3.750   7.124  17.146  0.00  0.00    +0.000 A 
ATOM     17  C   UNL     1       2.968   8.090  17.795  0.00  0.00    +0.000 A 
ENDBRANCH   3  12
BRANCH   1  19
ATOM     18  N   UNL     1       2.042  13.292  19.544  0.00  0.00    +0.000 N 
ATOM     19  C   UNL     1       1.083  12.456  19.002  0.00  0.00    +0.000 C 
ATOM     20  O   UNL     1       0.401  12.686  18.008  0.00  0.00    +0.000 OA
ATOM     21  H   UNL     1       2.836  12.812  19.952  0.00  0.00    +0.000 HD
BRANCH  18  26
ATOM     22  C   UNL     1       1.495  15.681  18.890  0.00  0.00    +0.000 A 
ATOM     23  C   UNL     1       2.144  16.638  18.023  0.00  0.00    +0.000 A 
ATOM     24  C   UNL     1       3.341  16.181  17.519  0.00  0.00    +0.000 A 
ATOM     25  S   UNL     1       3.746  14.645  18.149  0.00  0.00    +0.000 S 
ATOM     26  C   UNL     1       2.257  14.525  18.958  0.00  0.00    +0.000 A 
BRANCH  22  28
ATOM     27  N   UNL     1      -0.860  15.329  19.155  0.00  0.00    +0.000 N 
ATOM     28  C   UNL     1       0.272  15.916  19.655  0.00  0.00    +0.000 C 
ATOM     29  O   UNL     1       0.208  16.617  20.660  0.00  0.00    +0.000 OA
ATOM     30  H   UNL     1      -1.699  15.422  19.712  0.00  0.00    +0.000 HD
ATOM     31  H   UNL     1      -0.811  14.566  18.496  0.00  0.00    +0.000 HD
ENDBRANCH  22  28
ENDBRANCH  18  26
ENDBRANCH   1  19
TORSDOF 4
ENDMDL
MODEL 8
REMARK VINA RESULT:      -6.8      4.970      6.171
REMARK  Name = 
REMARK  4 active torsions:
REMARK  status: ('A' for Active; 'I' for Inactive)
REMARK    1  A    between atoms: C_2  and  C_4
REMARK    2  A    between atoms: C_8  and  N_9
REMARK    3  A    between atoms: C_10  and  C_12
REMARK    4  A    between atoms: N_14  and  C_15
REMARK                            x       y       z     vdW  Elec       q    Type
REMARK                         _______ _______ _______ _____ _____    ______ ____
ROOT
ATOM      1  C   UNL     1      -3.887  12.759  21.055  0.00  0.00    +0.000 A 
ATOM      2  N   UNL     1      -3.446  12.278  19.922  0.00  0.00    +0.000 NA
ATOM      3  N   UNL     1      -4.337  11.629  19.066  0.00  0.00    +0.000 N 
ATOM      4  C   UNL     1      -5.690  11.428  19.378  0.00  0.00    +0.000 A 
ATOM      5  O   UNL     1      -6.530  10.855  18.686  0.00  0.00    +0.000 OA
ATOM      6  C   UNL     1      -6.146  11.913  20.691  0.00  0.00    +0.000 A 
ATOM      7  C   UNL     1      -7.465  11.651  21.103  0.00  0.00    +0.000 A 
ATOM      8  C   UNL     1      -7.912  12.089  22.345  0.00  0.00    +0.000 A 
ATOM      9  C   UNL     1      -7.051  12.803  23.171  0.00  0.00    +0.000 A 
ATOM     10  C   UNL     1      -5.737  13.054  22.767  0.00  0.00    +0.000 A 
ATOM     11  C   UNL     1      -5.276  12.598  21.524  0.00  0.00    +0.000 A 
ENDROOT
BRANCH   3  12
ATOM     12  C   UNL     1      -3.760  11.158  17.831  0.00  0.00    +0.000 A 
ATOM     13  C   UNL     1      -4.282  11.516  16.575  0.00  0.00    +0.000 A 
ATOM     14  C   UNL     1      -3.749  11.008  15.383  0.00  0.00    +0.000 A 
ATOM     15  C   UNL     1      -2.675  10.128  15.424  0.00  0.00    +0.000 A 
ATOM     16  C   UNL     1      -2.128   9.772  16.651  0.00  0.00    +0.000 A 
ATOM     17  C   UNL     1      -2.655  10.293  17.842  0.00  0.00    +0.000 A 
ENDBRANCH   3  12
BRANCH   1  19
ATOM     18  N   UNL     1      -2.939  14.899  21.767  0.00  0.00    +0.000 N 
ATOM     19  C   UNL     1      -2.884  13.526  21.929  0.00  0.00    +0.000 C 
ATOM     20  O   UNL     1      -2.196  12.922  22.744  0.00  0.00    +0.000 OA
ATOM     21  H   UNL     1      -3.851  15.255  21.504  0.00  0.00    +0.000 HD
BRANCH  18  26
ATOM     22  C   UNL     1      -2.277  16.211  23.834  0.00  0.00    +0.000 A 
ATOM     23  C   UNL     1      -1.179  17.104  24.123  0.00  0.00    +0.000 A 
ATOM     24  C   UNL     1      -0.271  17.192  23.092  0.00  0.00    +0.000 A 
ATOM     25  S   UNL     1      -0.672  16.139  21.808  0.00  0.00    +0.000 S 
ATOM     26  C   UNL     1      -2.131  15.695  22.556  0.00  0.00    +0.000 A 
BRANCH  22  28
ATOM     27  N   UNL     1      -3.129  14.662  25.452  0.00  0.00    +0.000 N 
ATOM     28  C   UNL     1      -3.336  15.831  24.768  0.00  0.00    +0.000 C 
ATOM     29  O   UNL     1      -4.375  16.462  24.931  0.00  0.00    +0.000 OA
ATOM     30  H   UNL     1      -3.817  14.424  26.153  0.00  0.00    +0.000 HD
ATOM     31  H   UNL     1      -2.210  14.254  25.532  0.00  0.00    +0.000 HD
ENDBRANCH  22  28
ENDBRANCH  18  26
ENDBRANCH   1  19
TORSDOF 4
ENDMDL
MODEL 9
REMARK VINA RESULT:      -6.8      2.649      7.439
REMARK  Name = 
REMARK  4 active torsions:
REMARK  status: ('A' for Active; 'I' for Inactive)
REMARK    1  A    between atoms: C_2  and  C_4
REMARK    2  A    between atoms: C_8  and  N_9
REMARK    3  A    between atoms: C_10  and  C_12
REMARK    4  A    between atoms: N_14  and  C_15
REMARK                            x       y       z     vdW  Elec       q    Type
REMARK                         _______ _______ _______ _____ _____    ______ ____
ROOT
ATOM      1  C   UNL     1       1.397  10.053  19.376  0.00  0.00    +0.000 A 
ATOM      2  N   UNL     1       1.753  11.212  18.885  0.00  0.00    +0.000 NA
ATOM      3  N   UNL     1       1.505  12.368  19.624  0.00  0.00    +0.000 N 
ATOM      4  C   UNL     1       0.851  12.359  20.866  0.00  0.00    +0.000 A 
ATOM      5  O   UNL     1       0.584  13.334  21.567  0.00  0.00    +0.000 OA
ATOM      6  C   UNL     1       0.394  11.051  21.364  0.00  0.00    +0.000 A 
ATOM      7  C   UNL     1      -0.355  10.989  22.552  0.00  0.00    +0.000 A 
ATOM      8  C   UNL     1      -0.807   9.765  23.033  0.00  0.00    +0.000 A 
ATOM      9  C   UNL     1      -0.498   8.600  22.341  0.00  0.00    +0.000 A 
ATOM     10  C   UNL     1       0.238   8.662  21.154  0.00  0.00    +0.000 A 
ATOM     11  C   UNL     1       0.679   9.895  20.655  0.00  0.00    +0.000 A 
ENDROOT
BRANCH   3  12
ATOM     12  C   UNL     1       1.957  13.592  19.009  0.00  0.00    +0.000 A 
ATOM     13  C   UNL     1       3.235  13.716  18.435  0.00  0.00    +0.000 A 
ATOM     14  C   UNL     1       3.684  14.926  17.890  0.00  0.00    +0.000 A 
ATOM     15  C   UNL     1       2.859  16.043  17.908  0.00  0.00    +0.000 A 
ATOM     16  C   UNL     1       1.584  15.944  18.453  0.00  0.00    +0.000 A 
ATOM     17  C   UNL     1       1.132  14.728  18.985  0.00  0.00    +0.000 A 
ENDBRANCH   3  12
BRANCH   1  19
ATOM     18  N   UNL     1       2.682   7.981  19.173  0.00  0.00    +0.000 N 
ATOM     19  C   UNL     1       1.756   8.804  18.558  0.00  0.00    +0.000 C 
ATOM     20  O   UNL     1       1.166   8.571  17.508  0.00  0.00    +0.000 OA
ATOM     21  H   UNL     1       2.660   8.008  20.186  0.00  0.00    +0.000 HD
BRANCH  18  26
ATOM     22  C   UNL     1       2.720   5.467  18.836  0.00  0.00    +0.000 A 
ATOM     23  C   UNL     1       3.464   4.605  17.947  0.00  0.00    +0.000 A 
ATOM     24  C   UNL     1       4.246   5.301  17.053  0.00  0.00    +0.000 A 
ATOM     25  S   UNL     1       4.029   6.988  17.204  0.00  0.00    +0.000 S 
ATOM     26  C   UNL     1       3.024   6.791  18.560  0.00  0.00    +0.000 A 
BRANCH  22  28
ATOM     27  N   UNL     1       1.049   3.883  19.499  0.00  0.00    +0.000 N 
ATOM     28  C   UNL     1       1.728   5.030  19.817  0.00  0.00    +0.000 C 
ATOM     29  O   UNL     1       1.460   5.637  20.848  0.00  0.00    +0.000 OA
ATOM     30  H   UNL     1       0.413   3.529  20.200  0.00  0.00    +0.000 HD
ATOM     31  H   UNL     1       1.399   3.238  18.807  0.00  0.00    +0.000 HD
ENDBRANCH  22  28
ENDBRANCH  18  26
ENDBRANCH   1  19
TORSDOF 4
ENDMDL
