MODEL 1
REMARK VINA RESULT:      -7.7      0.000      0.000
REMARK  Name = 
REMARK  4 active torsions:
REMARK  status: ('A' for Active; 'I' for Inactive)
REMARK    1  A    between atoms: C_2  and  C_3
REMARK    2  A    between atoms: C_3  and  N_4
REMARK    3  A    between atoms: N_15  and  C_16
REMARK    4  A    between atoms: C_17  and  C_18
REMARK                            x       y       z     vdW  Elec       q    Type
REMARK                         _______ _______ _______ _____ _____    ______ ____
ROOT
ATOM      1  O   UNL     1      -1.519  14.350  20.122  0.00  0.00    +0.000 OA
ATOM      2  C   UNL     1      -1.226  13.280  20.634  0.00  0.00    +0.000 C 
ATOM      3  N   UNL     1      -2.270  12.343  20.956  0.00  0.00    +0.000 N 
ATOM      4  H   UNL     1      -2.055  11.534  21.540  0.00  0.00    +0.000 HD
ENDROOT
BRANCH   3   5
ATOM      5  C   UNL     1      -3.585  12.587  20.565  0.00  0.00    +0.000 A 
ATOM      6  C   UNL     1      -4.216  12.278  19.355  0.00  0.00    +0.000 A 
ATOM      7  N   UNL     1      -5.539  12.712  19.362  0.00  0.00    +0.000 NA
ATOM      8  C   UNL     1      -5.684  13.259  20.531  0.00  0.00    +0.000 A 
ATOM      9  S   UNL     1      -6.978  14.094  21.328  0.00  0.00    +0.000 S 
ATOM     10  C   UNL     1      -5.903  14.361  22.710  0.00  0.00    +0.000 A 
ATOM     11  C   UNL     1      -4.680  13.836  22.531  0.00  0.00    +0.000 A 
ATOM     12  N   UNL     1      -4.566  13.211  21.305  0.00  0.00    +0.000 N 
BRANCH   6  13
ATOM     13  C   UNL     1      -3.721  11.502  18.223  0.00  0.00    +0.000 A 
ATOM     14  C   UNL     1      -4.424  11.586  17.002  0.00  0.00    +0.000 A 
ATOM     15  C   UNL     1      -3.982  10.910  15.862  0.00  0.00    +0.000 A 
ATOM     16  C   UNL     1      -2.834  10.138  15.937  0.00  0.00    +0.000 A 
ATOM     17  F   UNL     1      -2.392   9.500  14.847  0.00  0.00    +0.000 F 
ATOM     18  C   UNL     1      -2.126  10.032  17.129  0.00  0.00    +0.000 A 
ATOM     19  C   UNL     1      -2.563  10.717  18.270  0.00  0.00    +0.000 A 
ENDBRANCH   6  13
ENDBRANCH   3   5
BRANCH   2  20
ATOM     20  C   UNL     1       0.169  12.909  21.100  0.00  0.00    +0.000 C 
BRANCH  20  21
ATOM     21  N   UNL     1       0.588  11.640  20.536  0.00  0.00    +0.000 N 
ATOM     22  C   UNL     1       0.851  11.455  19.211  0.00  0.00    +0.000 C 
ATOM     23  O   UNL     1       0.699  12.243  18.300  0.00  0.00    +0.000 OA
ATOM     24  C   UNL     1       1.323  10.080  19.067  0.00  0.00    +0.000 A 
ATOM     25  C   UNL     1       1.788   9.414  17.949  0.00  0.00    +0.000 A 
ATOM     26  C   UNL     1       2.174   8.083  18.119  0.00  0.00    +0.000 A 
ATOM     27  C   UNL     1       2.081   7.461  19.383  0.00  0.00    +0.000 A 
ATOM     28  C   UNL     1       1.607   8.159  20.500  0.00  0.00    +0.000 A 
ATOM     29  C   UNL     1       1.238   9.476  20.312  0.00  0.00    +0.000 A 
ATOM     30  C   UNL     1       0.715  10.482  21.246  0.00  0.00    +0.000 C 
ATOM     31  O   UNL     1       0.365  10.315  22.401  0.00  0.00    +0.000 OA
ENDBRANCH  20  21
ENDBRANCH   2  20
TORSDOF 4
ENDMDL
MODEL 2
REMARK VINA RESULT:      -7.6      5.565      9.444
REMARK  Name = 
REMARK  4 active torsions:
REMARK  status: ('A' for Active; 'I' for Inactive)
REMARK    1  A    between atoms: C_2  and  C_3
REMARK    2  A    between atoms: C_3  and  N_4
REMARK    3  A    between atoms: N_15  and  C_16
REMARK    4  A    between atoms: C_17  and  C_18
REMARK                            x       y       z     vdW  Elec       q    Type
REMARK                         _______ _______ _______ _____ _____    ______ ____
ROOT
ATOM      1  O   UNL     1       1.455   6.195  18.018  0.00  0.00    +0.000 OA
ATOM      2  C   UNL     1       2.369   6.926  18.370  0.00  0.00    +0.000 C 
ATOM      3  N   UNL     1       3.501   6.360  19.055  0.00  0.00    +0.000 N 
ATOM      4  H   UNL     1       4.175   6.979  19.506  0.00  0.00    +0.000 HD
ENDROOT
BRANCH   3   5
ATOM      5  C   UNL     1       3.625   4.979  19.194  0.00  0.00    +0.000 A 
ATOM      6  C   UNL     1       4.347   4.075  18.408  0.00  0.00    +0.000 A 
ATOM      7  N   UNL     1       4.192   2.773  18.879  0.00  0.00    +0.000 NA
ATOM      8  C   UNL     1       3.406   2.903  19.905  0.00  0.00    +0.000 A 
ATOM      9  S   UNL     1       2.665   1.795  21.014  0.00  0.00    +0.000 S 
ATOM     10  C   UNL     1       1.854   3.169  21.784  0.00  0.00    +0.000 A 
ATOM     11  C   UNL     1       2.158   4.344  21.212  0.00  0.00    +0.000 A 
ATOM     12  N   UNL     1       3.037   4.189  20.159  0.00  0.00    +0.000 N 
BRANCH   6  13
ATOM     13  C   UNL     1       5.271   4.335  17.310  0.00  0.00    +0.000 A 
ATOM     14  C   UNL     1       4.792   4.191  15.990  0.00  0.00    +0.000 A 
ATOM     15  C   UNL     1       5.606   4.470  14.889  0.00  0.00    +0.000 A 
ATOM     16  C   UNL     1       6.909   4.889  15.100  0.00  0.00    +0.000 A 
ATOM     17  F   UNL     1       7.692   5.175  14.052  0.00  0.00    +0.000 F 
ATOM     18  C   UNL     1       7.408   5.033  16.389  0.00  0.00    +0.000 A 
ATOM     19  C   UNL     1       6.591   4.762  17.494  0.00  0.00    +0.000 A 
ENDBRANCH   6  13
ENDBRANCH   3   5
BRANCH   2  20
ATOM     20  C   UNL     1       2.340   8.439  18.268  0.00  0.00    +0.000 C 
BRANCH  20  21
ATOM     21  N   UNL     1       1.466   9.014  19.273  0.00  0.00    +0.000 N 
ATOM     22  C   UNL     1       1.420   8.583  20.566  0.00  0.00    +0.000 C 
ATOM     23  O   UNL     1       1.994   7.635  21.061  0.00  0.00    +0.000 OA
ATOM     24  C   UNL     1       0.491   9.466  21.267  0.00  0.00    +0.000 A 
ATOM     25  C   UNL     1       0.144   9.508  22.604  0.00  0.00    +0.000 A 
ATOM     26  C   UNL     1      -0.785  10.476  22.988  0.00  0.00    +0.000 A 
ATOM     27  C   UNL     1      -1.340  11.361  22.038  0.00  0.00    +0.000 A 
ATOM     28  C   UNL     1      -0.970  11.298  20.688  0.00  0.00    +0.000 A 
ATOM     29  C   UNL     1      -0.044  10.339  20.331  0.00  0.00    +0.000 A 
ATOM     30  C   UNL     1       0.559  10.005  19.034  0.00  0.00    +0.000 C 
ATOM     31  O   UNL     1       0.257  10.442  17.938  0.00  0.00    +0.000 OA
ENDBRANCH  20  21
ENDBRANCH   2  20
TORSDOF 4
ENDMDL
MODEL 3
REMARK VINA RESULT:      -7.6      1.198      2.008
REMARK  Name = 
REMARK  4 active torsions:
REMARK  status: ('A' for Active; 'I' for Inactive)
REMARK    1  A    between atoms: C_2  and  C_3
REMARK    2  A    between atoms: C_3  and  N_4
REMARK    3  A    between atoms: N_15  and  C_16
REMARK    4  A    between atoms: C_17  and  C_18
REMARK                            x       y       z     vdW  Elec       q    Type
REMARK                         _______ _______ _______ _____ _____    ______ ____
ROOT
ATOM      1  O   UNL     1      -3.297  11.892  22.800  0.00  0.00    +0.000 OA
ATOM      2  C   UNL     1      -2.444  12.447  22.125  0.00  0.00    +0.000 C 
ATOM      3  N   UNL     1      -2.805  12.998  20.844  0.00  0.00    +0.000 N 
ATOM      4  H   UNL     1      -2.070  13.300  20.203  0.00  0.00    +0.000 HD
ENDROOT
BRANCH   3   5
ATOM      5  C   UNL     1      -4.137  13.024  20.436  0.00  0.00    +0.000 A 
ATOM      6  C   UNL     1      -4.719  12.469  19.291  0.00  0.00    +0.000 A 
ATOM      7  N   UNL     1      -6.085  12.739  19.249  0.00  0.00    +0.000 NA
ATOM      8  C   UNL     1      -6.301  13.430  20.327  0.00  0.00    +0.000 A 
ATOM      9  S   UNL     1      -7.691  14.213  21.008  0.00  0.00    +0.000 S 
ATOM     10  C   UNL     1      -6.663  14.804  22.325  0.00  0.00    +0.000 A 
ATOM     11  C   UNL     1      -5.386  14.408  22.211  0.00  0.00    +0.000 A 
ATOM     12  N   UNL     1      -5.190  13.629  21.088  0.00  0.00    +0.000 N 
BRANCH   6  13
ATOM     13  C   UNL     1      -4.128  11.600  18.279  0.00  0.00    +0.000 A 
ATOM     14  C   UNL     1      -4.635  11.673  16.964  0.00  0.00    +0.000 A 
ATOM     15  C   UNL     1      -4.086  10.907  15.932  0.00  0.00    +0.000 A 
ATOM     16  C   UNL     1      -3.028  10.056  16.210  0.00  0.00    +0.000 A 
ATOM     17  F   UNL     1      -2.484   9.331  15.225  0.00  0.00    +0.000 F 
ATOM     18  C   UNL     1      -2.513   9.961  17.498  0.00  0.00    +0.000 A 
ATOM     19  C   UNL     1      -3.057  10.735  18.532  0.00  0.00    +0.000 A 
ENDBRANCH   6  13
ENDBRANCH   3   5
BRANCH   2  20
ATOM     20  C   UNL     1      -0.967  12.479  22.471  0.00  0.00    +0.000 C 
BRANCH  20  21
ATOM     21  N   UNL     1      -0.240  11.450  21.752  0.00  0.00    +0.000 N 
ATOM     22  C   UNL     1       0.174  10.283  22.324  0.00  0.00    +0.000 C 
ATOM     23  O   UNL     1       0.100   9.952  23.489  0.00  0.00    +0.000 OA
ATOM     24  C   UNL     1       0.782   9.490  21.258  0.00  0.00    +0.000 A 
ATOM     25  C   UNL     1       1.291   8.205  21.289  0.00  0.00    +0.000 A 
ATOM     26  C   UNL     1       1.818   7.704  20.097  0.00  0.00    +0.000 A 
ATOM     27  C   UNL     1       1.826   8.491  18.924  0.00  0.00    +0.000 A 
ATOM     28  C   UNL     1       1.303   9.790  18.921  0.00  0.00    +0.000 A 
ATOM     29  C   UNL     1       0.780  10.263  20.107  0.00  0.00    +0.000 A 
ATOM     30  C   UNL     1       0.159  11.549  20.451  0.00  0.00    +0.000 C 
ATOM     31  O   UNL     1       0.090  12.551  19.762  0.00  0.00    +0.000 OA
ENDBRANCH  20  21
ENDBRANCH   2  20
TORSDOF 4
ENDMDL
MODEL 4
REMARK VINA RESULT:      -7.5      0.209      1.597
REMARK  Name = 
REMARK  4 active torsions:
REMARK  status: ('A' for Active; 'I' for Inactive)
REMARK    1  A    between atoms: C_2  and  C_3
REMARK    2  A    between atoms: C_3  and  N_4
REMARK    3  A    between atoms: N_15  and  C_16
REMARK    4  A    between atoms: C_17  and  C_18
REMARK                            x       y       z     vdW  Elec       q    Type
REMARK                         _______ _______ _______ _____ _____    ______ ____
ROOT
ATOM      1  O   UNL     1      -1.549  14.260  20.115  0.00  0.00    +0.000 OA
ATOM      2  C   UNL     1      -1.315  13.227  20.725  0.00  0.00    +0.000 C 
ATOM      3  N   UNL     1      -2.404  12.354  21.078  0.00  0.00    +0.000 N 
ATOM      4  H   UNL     1      -2.242  11.591  21.734  0.00  0.00    +0.000 HD
ENDROOT
BRANCH   3   5
ATOM      5  C   UNL     1      -3.692  12.607  20.612  0.00  0.00    +0.000 A 
ATOM      6  C   UNL     1      -4.255  12.308  19.366  0.00  0.00    +0.000 A 
ATOM      7  N   UNL     1      -5.574  12.749  19.298  0.00  0.00    +0.000 NA
ATOM      8  C   UNL     1      -5.783  13.291  20.460  0.00  0.00    +0.000 A 
ATOM      9  S   UNL     1      -7.117  14.130  21.185  0.00  0.00    +0.000 S 
ATOM     10  C   UNL     1      -6.122  14.383  22.628  0.00  0.00    +0.000 A 
ATOM     11  C   UNL     1      -4.894  13.853  22.518  0.00  0.00    +0.000 A 
ATOM     12  N   UNL     1      -4.712  13.234  21.297  0.00  0.00    +0.000 N 
BRANCH   6  13
ATOM     13  C   UNL     1      -3.699  11.535  18.261  0.00  0.00    +0.000 A 
ATOM     14  C   UNL     1      -4.405  11.521  17.039  0.00  0.00    +0.000 A 
ATOM     15  C   UNL     1      -3.910  10.842  15.922  0.00  0.00    +0.000 A 
ATOM     16  C   UNL     1      -2.704  10.167  16.022  0.00  0.00    +0.000 A 
ATOM     17  F   UNL     1      -2.212   9.528  14.953  0.00  0.00    +0.000 F 
ATOM     18  C   UNL     1      -1.991  10.159  17.215  0.00  0.00    +0.000 A 
ATOM     19  C   UNL     1      -2.482  10.846  18.333  0.00  0.00    +0.000 A 
ENDBRANCH   6  13
ENDBRANCH   3   5
BRANCH   2  20
ATOM     20  C   UNL     1       0.046  12.852  21.279  0.00  0.00    +0.000 C 
BRANCH  20  21
ATOM     21  N   UNL     1       0.578  11.681  20.608  0.00  0.00    +0.000 N 
ATOM     22  C   UNL     1       0.817  10.495  21.239  0.00  0.00    +0.000 C 
ATOM     23  O   UNL     1       0.727  10.246  22.423  0.00  0.00    +0.000 OA
ATOM     24  C   UNL     1       1.259   9.557  20.210  0.00  0.00    +0.000 A 
ATOM     25  C   UNL     1       1.557   8.211  20.306  0.00  0.00    +0.000 A 
ATOM     26  C   UNL     1       1.961   7.566  19.135  0.00  0.00    +0.000 A 
ATOM     27  C   UNL     1       2.059   8.275  17.918  0.00  0.00    +0.000 A 
ATOM     28  C   UNL     1       1.750   9.639  17.848  0.00  0.00    +0.000 A 
ATOM     29  C   UNL     1       1.345  10.256  19.015  0.00  0.00    +0.000 A 
ATOM     30  C   UNL     1       0.948  11.642  19.295  0.00  0.00    +0.000 C 
ATOM     31  O   UNL     1       1.019  12.602  18.550  0.00  0.00    +0.000 OA
ENDBRANCH  20  21
ENDBRANCH   2  20
TORSDOF 4
ENDMDL
MODEL 5
REMARK VINA RESULT:      -7.4      1.031      1.924
REMARK  Name = 
REMARK  4 active torsions:
REMARK  status: ('A' for Active; 'I' for Inactive)
REMARK    1  A    between atoms: C_2  and  C_3
REMARK    2  A    between atoms: C_3  and  N_4
REMARK    3  A    between atoms: N_15  and  C_16
REMARK    4  A    between atoms: C_17  and  C_18
REMARK                            x       y       z     vdW  Elec       q    Type
REMARK                         _______ _______ _______ _____ _____    ______ ____
ROOT
ATOM      1  O   UNL     1      -2.503  14.628  21.452  0.00  0.00    +0.000 OA
ATOM      2  C   UNL     1      -2.103  13.501  21.703  0.00  0.00    +0.000 C 
ATOM      3  N   UNL     1      -3.021  12.395  21.629  0.00  0.00    +0.000 N 
ATOM      4  H   UNL     1      -2.744  11.488  22.007  0.00  0.00    +0.000 HD
ENDROOT
BRANCH   3   5
ATOM      5  C   UNL     1      -4.314  12.579  21.144  0.00  0.00    +0.000 A 
ATOM      6  C   UNL     1      -4.800  12.411  19.842  0.00  0.00    +0.000 A 
ATOM      7  N   UNL     1      -6.156  12.719  19.775  0.00  0.00    +0.000 NA
ATOM      8  C   UNL     1      -6.461  13.058  20.992  0.00  0.00    +0.000 A 
ATOM      9  S   UNL     1      -7.901  13.637  21.765  0.00  0.00    +0.000 S 
ATOM     10  C   UNL     1      -6.986  13.776  23.276  0.00  0.00    +0.000 A 
ATOM     11  C   UNL     1      -5.705  13.398  23.149  0.00  0.00    +0.000 A 
ATOM     12  N   UNL     1      -5.417  12.988  21.862  0.00  0.00    +0.000 N 
BRANCH   6  13
ATOM     13  C   UNL     1      -4.127  11.872  18.665  0.00  0.00    +0.000 A 
ATOM     14  C   UNL     1      -4.887  11.697  17.489  0.00  0.00    +0.000 A 
ATOM     15  C   UNL     1      -4.300  11.231  16.309  0.00  0.00    +0.000 A 
ATOM     16  C   UNL     1      -2.947  10.931  16.299  0.00  0.00    +0.000 A 
ATOM     17  F   UNL     1      -2.372  10.501  15.170  0.00  0.00    +0.000 F 
ATOM     18  C   UNL     1      -2.177  11.089  17.446  0.00  0.00    +0.000 A 
ATOM     19  C   UNL     1      -2.762  11.564  18.627  0.00  0.00    +0.000 A 
ENDBRANCH   6  13
ENDBRANCH   3   5
BRANCH   2  20
ATOM     20  C   UNL     1      -0.720  13.185  22.238  0.00  0.00    +0.000 C 
BRANCH  20  21
ATOM     21  N   UNL     1      -0.097  12.119  21.476  0.00  0.00    +0.000 N 
ATOM     22  C   UNL     1       0.147  10.876  21.980  0.00  0.00    +0.000 C 
ATOM     23  O   UNL     1      -0.013  10.484  23.118  0.00  0.00    +0.000 OA
ATOM     24  C   UNL     1       0.695  10.082  20.884  0.00  0.00    +0.000 A 
ATOM     25  C   UNL     1       1.041   8.744  20.844  0.00  0.00    +0.000 A 
ATOM     26  C   UNL     1       1.549   8.256  19.638  0.00  0.00    +0.000 A 
ATOM     27  C   UNL     1       1.701   9.107  18.522  0.00  0.00    +0.000 A 
ATOM     28  C   UNL     1       1.343  10.460  18.589  0.00  0.00    +0.000 A 
ATOM     29  C   UNL     1       0.835  10.919  19.788  0.00  0.00    +0.000 A 
ATOM     30  C   UNL     1       0.364  12.249  20.198  0.00  0.00    +0.000 C 
ATOM     31  O   UNL     1       0.446  13.293  19.576  0.00  0.00    +0.000 OA
ENDBRANCH  20  21
ENDBRANCH   2  20
TORSDOF 4
ENDMDL
MODEL 6
REMARK VINA RESULT:      -7.4      5.547      9.515
REMARK  Name = 
REMARK  4 active torsions:
REMARK  status: ('A' for Active; 'I' for Inactive)
REMARK    1  A    between atoms: C_2  and  C_3
REMARK    2  A    between atoms: C_3  and  N_4
REMARK    3  A    between atoms: N_15  and  C_16
REMARK    4  A    between atoms: C_17  and  C_18
REMARK                            x       y       z     vdW  Elec       q    Type
REMARK                         _______ _______ _______ _____ _____    ______ ____
ROOT
ATOM      1  O   UNL     1       3.877   8.200  18.117  0.00  0.00    +0.000 OA
ATOM      2  C   UNL     1       2.759   7.779  17.861  0.00  0.00    +0.000 C 
ATOM      3  N   UNL     1       2.592   6.394  17.503  0.00  0.00    +0.000 N 
ATOM      4  H   UNL     1       1.701   6.080  17.118  0.00  0.00    +0.000 HD
ENDROOT
BRANCH   3   5
ATOM      5  C   UNL     1       3.665   5.509  17.582  0.00  0.00    +0.000 A 
ATOM      6  C   UNL     1       3.870   4.448  18.470  0.00  0.00    +0.000 A 
ATOM      7  N   UNL     1       5.088   3.820  18.221  0.00  0.00    +0.000 NA
ATOM      8  C   UNL     1       5.585   4.487  17.223  0.00  0.00    +0.000 A 
ATOM      9  S   UNL     1       7.076   4.416  16.340  0.00  0.00    +0.000 S 
ATOM     10  C   UNL     1       6.538   5.815  15.397  0.00  0.00    +0.000 A 
ATOM     11  C   UNL     1       5.323   6.255  15.759  0.00  0.00    +0.000 A 
ATOM     12  N   UNL     1       4.789   5.499  16.783  0.00  0.00    +0.000 N 
BRANCH   6  13
ATOM     13  C   UNL     1       2.966   3.890  19.470  0.00  0.00    +0.000 A 
ATOM     14  C   UNL     1       3.526   3.131  20.521  0.00  0.00    +0.000 A 
ATOM     15  C   UNL     1       2.728   2.606  21.541  0.00  0.00    +0.000 A 
ATOM     16  C   UNL     1       1.361   2.831  21.515  0.00  0.00    +0.000 A 
ATOM     17  F   UNL     1       0.590   2.348  22.496  0.00  0.00    +0.000 F 
ATOM     18  C   UNL     1       0.784   3.570  20.488  0.00  0.00    +0.000 A 
ATOM     19  C   UNL     1       1.583   4.105  19.470  0.00  0.00    +0.000 A 
ENDBRANCH   6  13
ENDBRANCH   3   5
BRANCH   2  20
ATOM     20  C   UNL     1       1.523   8.650  17.748  0.00  0.00    +0.000 C 
BRANCH  20  21
ATOM     21  N   UNL     1       1.087   9.110  19.053  0.00  0.00    +0.000 N 
ATOM     22  C   UNL     1       0.579  10.356  19.280  0.00  0.00    +0.000 C 
ATOM     23  O   UNL     1       0.494  11.284  18.503  0.00  0.00    +0.000 OA
ATOM     24  C   UNL     1       0.182  10.393  20.685  0.00  0.00    +0.000 A 
ATOM     25  C   UNL     1      -0.450  11.392  21.402  0.00  0.00    +0.000 A 
ATOM     26  C   UNL     1      -0.704  11.140  22.752  0.00  0.00    +0.000 A 
ATOM     27  C   UNL     1      -0.320   9.916  23.342  0.00  0.00    +0.000 A 
ATOM     28  C   UNL     1       0.319   8.920  22.592  0.00  0.00    +0.000 A 
ATOM     29  C   UNL     1       0.553   9.186  21.258  0.00  0.00    +0.000 A 
ATOM     30  C   UNL     1       1.182   8.382  20.202  0.00  0.00    +0.000 C 
ATOM     31  O   UNL     1       1.764   7.319  20.322  0.00  0.00    +0.000 OA
ENDBRANCH  20  21
ENDBRANCH   2  20
TORSDOF 4
ENDMDL
MODEL 7
REMARK VINA RESULT:      -7.3      5.532      9.304
REMARK  Name = 
REMARK  4 active torsions:
REMARK  status: ('A' for Active; 'I' for Inactive)
REMARK    1  A    between atoms: C_2  and  C_3
REMARK    2  A    between atoms: C_3  and  N_4
REMARK    3  A    between atoms: N_15  and  C_16
REMARK    4  A    between atoms: C_17  and  C_18
REMARK                            x       y       z     vdW  Elec       q    Type
REMARK                         _______ _______ _______ _____ _____    ______ ____
ROOT
ATOM      1  O   UNL     1       1.383   6.241  18.132  0.00  0.00    +0.000 OA
ATOM      2  C   UNL     1       2.325   6.982  18.370  0.00  0.00    +0.000 C 
ATOM      3  N   UNL     1       3.522   6.436  18.953  0.00  0.00    +0.000 N 
ATOM      4  H   UNL     1       4.237   7.068  19.316  0.00  0.00    +0.000 HD
ENDROOT
BRANCH   3   5
ATOM      5  C   UNL     1       3.665   5.060  19.118  0.00  0.00    +0.000 A 
ATOM      6  C   UNL     1       4.382   4.147  18.336  0.00  0.00    +0.000 A 
ATOM      7  N   UNL     1       4.250   2.854  18.836  0.00  0.00    +0.000 NA
ATOM      8  C   UNL     1       3.481   2.997  19.874  0.00  0.00    +0.000 A 
ATOM      9  S   UNL     1       2.774   1.903  21.019  0.00  0.00    +0.000 S 
ATOM     10  C   UNL     1       1.961   3.283  21.776  0.00  0.00    +0.000 A 
ATOM     11  C   UNL     1       2.242   4.450  21.175  0.00  0.00    +0.000 A 
ATOM     12  N   UNL     1       3.103   4.283  20.109  0.00  0.00    +0.000 N 
BRANCH   6  13
ATOM     13  C   UNL     1       5.283   4.395  17.216  0.00  0.00    +0.000 A 
ATOM     14  C   UNL     1       4.804   4.150  15.911  0.00  0.00    +0.000 A 
ATOM     15  C   UNL     1       5.593   4.410  14.788  0.00  0.00    +0.000 A 
ATOM     16  C   UNL     1       6.873   4.912  14.962  0.00  0.00    +0.000 A 
ATOM     17  F   UNL     1       7.631   5.181  13.892  0.00  0.00    +0.000 F 
ATOM     18  C   UNL     1       7.371   5.157  16.236  0.00  0.00    +0.000 A 
ATOM     19  C   UNL     1       6.578   4.905  17.363  0.00  0.00    +0.000 A 
ENDBRANCH   6  13
ENDBRANCH   3   5
BRANCH   2  20
ATOM     20  C   UNL     1       2.282   8.492  18.229  0.00  0.00    +0.000 C 
BRANCH  20  21
ATOM     21  N   UNL     1       1.513   9.094  19.302  0.00  0.00    +0.000 N 
ATOM     22  C   UNL     1       0.827  10.266  19.170  0.00  0.00    +0.000 C 
ATOM     23  O   UNL     1       0.812  11.023  18.221  0.00  0.00    +0.000 OA
ATOM     24  C   UNL     1       0.122  10.480  20.431  0.00  0.00    +0.000 A 
ATOM     25  C   UNL     1      -0.766  11.475  20.793  0.00  0.00    +0.000 A 
ATOM     26  C   UNL     1      -1.286  11.421  22.088  0.00  0.00    +0.000 A 
ATOM     27  C   UNL     1      -0.906  10.390  22.975  0.00  0.00    +0.000 A 
ATOM     28  C   UNL     1      -0.004   9.393  22.583  0.00  0.00    +0.000 A 
ATOM     29  C   UNL     1       0.491   9.461  21.296  0.00  0.00    +0.000 A 
ATOM     30  C   UNL     1       1.431   8.597  20.569  0.00  0.00    +0.000 C 
ATOM     31  O   UNL     1       2.090   7.674  21.014  0.00  0.00    +0.000 OA
ENDBRANCH  20  21
ENDBRANCH   2  20
TORSDOF 4
ENDMDL
MODEL 8
REMARK VINA RESULT:      -7.2      5.571      9.623
REMARK  Name = 
REMARK  4 active torsions:
REMARK  status: ('A' for Active; 'I' for Inactive)
REMARK    1  A    between atoms: C_2  and  C_3
REMARK    2  A    between atoms: C_3  and  N_4
REMARK    3  A    between atoms: N_15  and  C_16
REMARK    4  A    between atoms: C_17  and  C_18
REMARK                            x       y       z     vdW  Elec       q    Type
REMARK                         _______ _______ _______ _____ _____    ______ ____
ROOT
ATOM      1  O   UNL     1       3.934   8.209  18.044  0.00  0.00    +0.000 OA
ATOM      2  C   UNL     1       2.814   7.784  17.803  0.00  0.00    +0.000 C 
ATOM      3  N   UNL     1       2.643   6.392  17.480  0.00  0.00    +0.000 N 
ATOM      4  H   UNL     1       1.749   6.070  17.107  0.00  0.00    +0.000 HD
ENDROOT
BRANCH   3   5
ATOM      5  C   UNL     1       3.714   5.506  17.576  0.00  0.00    +0.000 A 
ATOM      6  C   UNL     1       3.909   4.451  18.473  0.00  0.00    +0.000 A 
ATOM      7  N   UNL     1       5.129   3.821  18.241  0.00  0.00    +0.000 NA
ATOM      8  C   UNL     1       5.638   4.481  17.245  0.00  0.00    +0.000 A 
ATOM      9  S   UNL     1       7.139   4.404  16.379  0.00  0.00    +0.000 S 
ATOM     10  C   UNL     1       6.611   5.798  15.421  0.00  0.00    +0.000 A 
ATOM     11  C   UNL     1       5.392   6.241  15.767  0.00  0.00    +0.000 A 
ATOM     12  N   UNL     1       4.847   5.491  16.790  0.00  0.00    +0.000 N 
BRANCH   6  13
ATOM     13  C   UNL     1       2.994   3.899  19.467  0.00  0.00    +0.000 A 
ATOM     14  C   UNL     1       3.537   3.114  20.507  0.00  0.00    +0.000 A 
ATOM     15  C   UNL     1       2.729   2.593  21.520  0.00  0.00    +0.000 A 
ATOM     16  C   UNL     1       1.368   2.849  21.498  0.00  0.00    +0.000 A 
ATOM     17  F   UNL     1       0.587   2.369  22.474  0.00  0.00    +0.000 F 
ATOM     18  C   UNL     1       0.806   3.614  20.483  0.00  0.00    +0.000 A 
ATOM     19  C   UNL     1       1.616   4.145  19.470  0.00  0.00    +0.000 A 
ENDBRANCH   6  13
ENDBRANCH   3   5
BRANCH   2  20
ATOM     20  C   UNL     1       1.579   8.655  17.673  0.00  0.00    +0.000 C 
BRANCH  20  21
ATOM     21  N   UNL     1       1.061   9.024  18.977  0.00  0.00    +0.000 N 
ATOM     22  C   UNL     1       1.336   8.332  20.120  0.00  0.00    +0.000 C 
ATOM     23  O   UNL     1       1.947   7.290  20.236  0.00  0.00    +0.000 OA
ATOM     24  C   UNL     1       0.707   9.068  21.214  0.00  0.00    +0.000 A 
ATOM     25  C   UNL     1       0.744   8.835  22.576  0.00  0.00    +0.000 A 
ATOM     26  C   UNL     1       0.034   9.720  23.390  0.00  0.00    +0.000 A 
ATOM     27  C   UNL     1      -0.688  10.795  22.828  0.00  0.00    +0.000 A 
ATOM     28  C   UNL     1      -0.708  11.009  21.444  0.00  0.00    +0.000 A 
ATOM     29  C   UNL     1       0.007  10.128  20.659  0.00  0.00    +0.000 A 
ATOM     30  C   UNL     1       0.204  10.061  19.204  0.00  0.00    +0.000 C 
ATOM     31  O   UNL     1      -0.351  10.724  18.346  0.00  0.00    +0.000 OA
ENDBRANCH  20  21
ENDBRANCH   2  20
TORSDOF 4
ENDMDL
MODEL 9
REMARK VINA RESULT:      -7.1      2.981      5.075
REMARK  Name = 
REMARK  4 active torsions:
REMARK  status: ('A' for Active; 'I' for Inactive)
REMARK    1  A    between atoms: C_2  and  C_3
REMARK    2  A    between atoms: C_3  and  N_4
REMARK    3  A    between atoms: N_15  and  C_16
REMARK    4  A    between atoms: C_17  and  C_18
REMARK                            x       y       z     vdW  Elec       q    Type
REMARK                         _______ _______ _______ _____ _____    ______ ____
ROOT
ATOM      1  O   UNL     1      -1.352   9.781  19.383  0.00  0.00    +0.000 OA
ATOM      2  C   UNL     1      -0.664  10.737  19.710  0.00  0.00    +0.000 C 
ATOM      3  N   UNL     1      -1.268  12.040  19.807  0.00  0.00    +0.000 N 
ATOM      4  H   UNL     1      -0.672  12.863  19.903  0.00  0.00    +0.000 HD
ENDROOT
BRANCH   3   5
ATOM      5  C   UNL     1      -2.646  12.193  19.669  0.00  0.00    +0.000 A 
ATOM      6  C   UNL     1      -3.584  12.628  20.611  0.00  0.00    +0.000 A 
ATOM      7  N   UNL     1      -4.868  12.620  20.073  0.00  0.00    +0.000 NA
ATOM      8  C   UNL     1      -4.696  12.194  18.858  0.00  0.00    +0.000 A 
ATOM      9  S   UNL     1      -5.760  11.829  17.538  0.00  0.00    +0.000 S 
ATOM     10  C   UNL     1      -4.352  11.307  16.599  0.00  0.00    +0.000 A 
ATOM     11  C   UNL     1      -3.198  11.424  17.275  0.00  0.00    +0.000 A 
ATOM     12  N   UNL     1      -3.398  11.931  18.544  0.00  0.00    +0.000 N 
BRANCH   6  13
ATOM     13  C   UNL     1      -3.370  13.166  21.950  0.00  0.00    +0.000 A 
ATOM     14  C   UNL     1      -2.718  14.412  22.069  0.00  0.00    +0.000 A 
ATOM     15  C   UNL     1      -2.522  15.012  23.316  0.00  0.00    +0.000 A 
ATOM     16  C   UNL     1      -2.972  14.366  24.456  0.00  0.00    +0.000 A 
ATOM     17  F   UNL     1      -2.805  14.940  25.653  0.00  0.00    +0.000 F 
ATOM     18  C   UNL     1      -3.612  13.135  24.368  0.00  0.00    +0.000 A 
ATOM     19  C   UNL     1      -3.818  12.536  23.118  0.00  0.00    +0.000 A 
ENDBRANCH   6  13
ENDBRANCH   3   5
BRANCH   2  20
ATOM     20  C   UNL     1       0.842  10.686  19.886  0.00  0.00    +0.000 C 
BRANCH  20  21
ATOM     21  N   UNL     1       1.345   9.339  19.693  0.00  0.00    +0.000 N 
ATOM     22  C   UNL     1       1.400   8.406  20.688  0.00  0.00    +0.000 C 
ATOM     23  O   UNL     1       1.147   8.551  21.865  0.00  0.00    +0.000 OA
ATOM     24  C   UNL     1       1.878   7.170  20.073  0.00  0.00    +0.000 A 
ATOM     25  C   UNL     1       2.042   5.913  20.622  0.00  0.00    +0.000 A 
ATOM     26  C   UNL     1       2.525   4.910  19.778  0.00  0.00    +0.000 A 
ATOM     27  C   UNL     1       2.831   5.189  18.429  0.00  0.00    +0.000 A 
ATOM     28  C   UNL     1       2.655   6.473  17.897  0.00  0.00    +0.000 A 
ATOM     29  C   UNL     1       2.169   7.447  18.746  0.00  0.00    +0.000 A 
ATOM     30  C   UNL     1       1.865   8.867  18.524  0.00  0.00    +0.000 C 
ATOM     31  O   UNL     1       2.110   9.535  17.535  0.00  0.00    +0.000 OA
ENDBRANCH  20  21
ENDBRANCH   2  20
TORSDOF 4
ENDMDL
