MODEL 1
REMARK VINA RESULT:      -9.0      0.000      0.000
REMARK  Name = 
REMARK  5 active torsions:
REMARK  status: ('A' for Active; 'I' for Inactive)
REMARK    1  A    between atoms: C_2  and  C_3
REMARK    2  A    between atoms: C_3  and  O_4
REMARK    3  A    between atoms: O_4  and  C_5
REMARK    4  A    between atoms: C_8  and  C_9
REMARK    5  A    between atoms: N_18  and  C_19
REMARK                            x       y       z     vdW  Elec       q    Type
REMARK                         _______ _______ _______ _____ _____    ______ ____
ROOT
ATOM      1  O   UNL     1       1.548   4.580  19.318  0.00  0.00    +0.000 OA
ATOM      2  C   UNL     1       2.634   4.945  19.774  0.00  0.00    +0.000 C 
ATOM      3  N   UNL     1       3.040   6.253  19.965  0.00  0.00    +0.000 N 
ATOM      4  H   UNL     1       4.008   6.399  20.231  0.00  0.00    +0.000 HD
ENDROOT
BRANCH   3   5
ATOM      5  C   UNL     1       2.254   7.390  19.632  0.00  0.00    +0.000 A 
ATOM      6  C   UNL     1       2.240   7.935  18.320  0.00  0.00    +0.000 A 
ATOM      7  C   UNL     1       1.612   9.144  18.011  0.00  0.00    +0.000 A 
ATOM      8  C   UNL     1       0.935   9.747  19.031  0.00  0.00    +0.000 A 
ATOM      9  N   UNL     1       0.229  10.942  19.029  0.00  0.00    +0.000 N 
ATOM     10  C   UNL     1      -0.408  11.084  20.265  0.00  0.00    +0.000 A 
ATOM     11  O   UNL     1      -1.162  11.983  20.593  0.00  0.00    +0.000 OA
ATOM     12  N   UNL     1      -0.020   9.982  21.048  0.00  0.00    +0.000 N 
ATOM     13  C   UNL     1       0.824   9.169  20.295  0.00  0.00    +0.000 A 
ATOM     14  C   UNL     1       1.480   8.001  20.637  0.00  0.00    +0.000 A 
ATOM     15  H   UNL     1       0.167  11.611  18.278  0.00  0.00    +0.000 HD
ATOM     16  H   UNL     1      -0.359   9.820  21.981  0.00  0.00    +0.000 HD
ENDBRANCH   3   5
BRANCH   2  17
ATOM     17  C   UNL     1       3.648   3.855  20.091  0.00  0.00    +0.000 C 
BRANCH  17  18
ATOM     18  O   UNL     1       5.035   4.055  19.885  0.00  0.00    +0.000 OA
BRANCH  18  19
ATOM     19  C   UNL     1       5.349   4.167  18.539  0.00  0.00    +0.000 A 
ATOM     20  C   UNL     1       4.554   3.620  17.525  0.00  0.00    +0.000 A 
ATOM     21  C   UNL     1       4.940   3.697  16.185  0.00  0.00    +0.000 A 
ATOM     22  C   UNL     1       6.107   4.361  15.787  0.00  0.00    +0.000 A 
ATOM     23  C   UNL     1       6.875   4.954  16.808  0.00  0.00    +0.000 A 
ATOM     24  C   UNL     1       6.507   4.855  18.163  0.00  0.00    +0.000 A 
ATOM     25 CL   UNL     1       7.546   5.567  19.346  0.00  0.00    +0.000 Cl
BRANCH  22  26
ATOM     26  C   UNL     1       6.493   4.402  14.354  0.00  0.00    +0.000 A 
ATOM     27  C   UNL     1       5.903   3.537  13.410  0.00  0.00    +0.000 A 
ATOM     28  C   UNL     1       6.305   3.520  12.074  0.00  0.00    +0.000 A 
ATOM     29  C   UNL     1       7.296   4.390  11.635  0.00  0.00    +0.000 A 
ATOM     30  C   UNL     1       7.884   5.270  12.538  0.00  0.00    +0.000 A 
ATOM     31  C   UNL     1       7.492   5.272  13.881  0.00  0.00    +0.000 A 
ENDBRANCH  22  26
ENDBRANCH  18  19
ENDBRANCH  17  18
ENDBRANCH   2  17
TORSDOF 5
ENDMDL
MODEL 2
REMARK VINA RESULT:      -8.9      1.029      1.492
REMARK  Name = 
REMARK  5 active torsions:
REMARK  status: ('A' for Active; 'I' for Inactive)
REMARK    1  A    between atoms: C_2  and  C_3
REMARK    2  A    between atoms: C_3  and  O_4
REMARK    3  A    between atoms: O_4  and  C_5
REMARK    4  A    between atoms: C_8  and  C_9
REMARK    5  A    between atoms: N_18  and  C_19
REMARK                            x       y       z     vdW  Elec       q    Type
REMARK                         _______ _______ _______ _____ _____    ______ ____
ROOT
ATOM      1  O   UNL     1       1.163   5.116  20.807  0.00  0.00    +0.000 OA
ATOM      2  C   UNL     1       2.223   5.470  20.285  0.00  0.00    +0.000 C 
ATOM      3  N   UNL     1       2.585   6.769  19.976  0.00  0.00    +0.000 N 
ATOM      4  H   UNL     1       3.435   6.892  19.436  0.00  0.00    +0.000 HD
ENDROOT
BRANCH   3   5
ATOM      5  C   UNL     1       1.758   7.904  20.200  0.00  0.00    +0.000 A 
ATOM      6  C   UNL     1       1.418   8.803  19.152  0.00  0.00    +0.000 A 
ATOM      7  C   UNL     1       0.752  10.009  19.380  0.00  0.00    +0.000 A 
ATOM      8  C   UNL     1       0.366  10.249  20.667  0.00  0.00    +0.000 A 
ATOM      9  N   UNL     1      -0.297  11.349  21.192  0.00  0.00    +0.000 N 
ATOM     10  C   UNL     1      -0.597  11.088  22.533  0.00  0.00    +0.000 A 
ATOM     11  O   UNL     1      -1.228  11.807  23.288  0.00  0.00    +0.000 OA
ATOM     12  N   UNL     1      -0.039   9.833  22.834  0.00  0.00    +0.000 N 
ATOM     13  C   UNL     1       0.573   9.325  21.690  0.00  0.00    +0.000 A 
ATOM     14  C   UNL     1       1.275   8.150  21.498  0.00  0.00    +0.000 A 
ATOM     15  H   UNL     1      -0.539  12.201  20.712  0.00  0.00    +0.000 HD
ATOM     16  H   UNL     1      -0.132   9.388  23.731  0.00  0.00    +0.000 HD
ENDBRANCH   3   5
BRANCH   2  17
ATOM     17  C   UNL     1       3.192   4.369  19.879  0.00  0.00    +0.000 C 
BRANCH  17  18
ATOM     18  O   UNL     1       4.582   4.613  19.770  0.00  0.00    +0.000 OA
BRANCH  18  19
ATOM     19  C   UNL     1       5.008   4.604  18.450  0.00  0.00    +0.000 A 
ATOM     20  C   UNL     1       4.196   4.175  17.392  0.00  0.00    +0.000 A 
ATOM     21  C   UNL     1       4.685   4.118  16.085  0.00  0.00    +0.000 A 
ATOM     22  C   UNL     1       5.984   4.527  15.761  0.00  0.00    +0.000 A 
ATOM     23  C   UNL     1       6.778   5.006  16.821  0.00  0.00    +0.000 A 
ATOM     24  C   UNL     1       6.302   5.039  18.146  0.00  0.00    +0.000 A 
ATOM     25 CL   UNL     1       7.372   5.590  19.386  0.00  0.00    +0.000 Cl
BRANCH  22  26
ATOM     26  C   UNL     1       6.472   4.431  14.362  0.00  0.00    +0.000 A 
ATOM     27  C   UNL     1       7.492   5.277  13.882  0.00  0.00    +0.000 A 
ATOM     28  C   UNL     1       7.913   5.241  12.552  0.00  0.00    +0.000 A 
ATOM     29  C   UNL     1       7.341   4.336  11.665  0.00  0.00    +0.000 A 
ATOM     30  C   UNL     1       6.345   3.475  12.114  0.00  0.00    +0.000 A 
ATOM     31  C   UNL     1       5.912   3.525  13.443  0.00  0.00    +0.000 A 
ENDBRANCH  22  26
ENDBRANCH  18  19
ENDBRANCH  17  18
ENDBRANCH   2  17
TORSDOF 5
ENDMDL
MODEL 3
REMARK VINA RESULT:      -8.9      6.320      8.067
REMARK  Name = 
REMARK  5 active torsions:
REMARK  status: ('A' for Active; 'I' for Inactive)
REMARK    1  A    between atoms: C_2  and  C_3
REMARK    2  A    between atoms: C_3  and  O_4
REMARK    3  A    between atoms: O_4  and  C_5
REMARK    4  A    between atoms: C_8  and  C_9
REMARK    5  A    between atoms: N_18  and  C_19
REMARK                            x       y       z     vdW  Elec       q    Type
REMARK                         _______ _______ _______ _____ _____    ______ ____
ROOT
ATOM      1  O   UNL     1       7.574   9.339  17.529  0.00  0.00    +0.000 OA
ATOM      2  C   UNL     1       8.334   8.756  18.307  0.00  0.00    +0.000 C 
ATOM      3  N   UNL     1       9.296   9.349  19.104  0.00  0.00    +0.000 N 
ATOM      4  H   UNL     1       9.929   8.727  19.598  0.00  0.00    +0.000 HD
ENDROOT
BRANCH   3   5
ATOM      5  C   UNL     1       9.569  10.744  19.123  0.00  0.00    +0.000 A 
ATOM      6  C   UNL     1       9.340  11.538  20.279  0.00  0.00    +0.000 A 
ATOM      7  C   UNL     1       9.440  12.931  20.270  0.00  0.00    +0.000 A 
ATOM      8  C   UNL     1       9.853  13.496  19.098  0.00  0.00    +0.000 A 
ATOM      9  N   UNL     1      10.037  14.837  18.789  0.00  0.00    +0.000 N 
ATOM     10  C   UNL     1      10.598  14.924  17.512  0.00  0.00    +0.000 A 
ATOM     11  O   UNL     1      10.949  15.942  16.943  0.00  0.00    +0.000 OA
ATOM     12  N   UNL     1      10.687  13.610  17.019  0.00  0.00    +0.000 N 
ATOM     13  C   UNL     1      10.209  12.731  17.988  0.00  0.00    +0.000 A 
ATOM     14  C   UNL     1      10.068  11.356  17.958  0.00  0.00    +0.000 A 
ATOM     15  H   UNL     1       9.816  15.631  19.368  0.00  0.00    +0.000 HD
ATOM     16  H   UNL     1      11.084  13.382  16.124  0.00  0.00    +0.000 HD
ENDBRANCH   3   5
BRANCH   2  17
ATOM     17  C   UNL     1       8.251   7.237  18.340  0.00  0.00    +0.000 C 
BRANCH  17  18
ATOM     18  O   UNL     1       7.631   6.508  17.296  0.00  0.00    +0.000 OA
BRANCH  18  19
ATOM     19  C   UNL     1       6.432   5.940  17.702  0.00  0.00    +0.000 A 
ATOM     20  C   UNL     1       6.068   5.813  19.047  0.00  0.00    +0.000 A 
ATOM     21  C   UNL     1       4.883   5.174  19.417  0.00  0.00    +0.000 A 
ATOM     22  C   UNL     1       3.983   4.674  18.468  0.00  0.00    +0.000 A 
ATOM     23  C   UNL     1       4.331   4.851  17.114  0.00  0.00    +0.000 A 
ATOM     24  C   UNL     1       5.538   5.469  16.735  0.00  0.00    +0.000 A 
ATOM     25 CL   UNL     1       5.901   5.588  15.050  0.00  0.00    +0.000 Cl
BRANCH  22  26
ATOM     26  C   UNL     1       2.743   3.983  18.902  0.00  0.00    +0.000 A 
ATOM     27  C   UNL     1       2.135   4.276  20.140  0.00  0.00    +0.000 A 
ATOM     28  C   UNL     1       1.009   3.586  20.589  0.00  0.00    +0.000 A 
ATOM     29  C   UNL     1       0.439   2.595  19.798  0.00  0.00    +0.000 A 
ATOM     30  C   UNL     1       1.004   2.296  18.562  0.00  0.00    +0.000 A 
ATOM     31  C   UNL     1       2.145   2.976  18.123  0.00  0.00    +0.000 A 
ENDBRANCH  22  26
ENDBRANCH  18  19
ENDBRANCH  17  18
ENDBRANCH   2  17
TORSDOF 5
ENDMDL
MODEL 4
REMARK VINA RESULT:      -8.8      0.824      1.641
REMARK  Name = 
REMARK  5 active torsions:
REMARK  status: ('A' for Active; 'I' for Inactive)
REMARK    1  A    between atoms: C_2  and  C_3
REMARK    2  A    between atoms: C_3  and  O_4
REMARK    3  A    between atoms: O_4  and  C_5
REMARK    4  A    between atoms: C_8  and  C_9
REMARK    5  A    between atoms: N_18  and  C_19
REMARK                            x       y       z     vdW  Elec       q    Type
REMARK                         _______ _______ _______ _____ _____    ______ ____
ROOT
ATOM      1  O   UNL     1       1.593   5.050  21.061  0.00  0.00    +0.000 OA
ATOM      2  C   UNL     1       2.551   5.305  20.327  0.00  0.00    +0.000 C 
ATOM      3  N   UNL     1       2.828   6.528  19.744  0.00  0.00    +0.000 N 
ATOM      4  H   UNL     1       3.582   6.552  19.065  0.00  0.00    +0.000 HD
ENDROOT
BRANCH   3   5
ATOM      5  C   UNL     1       2.017   7.686  19.891  0.00  0.00    +0.000 A 
ATOM      6  C   UNL     1       1.386   8.009  21.124  0.00  0.00    +0.000 A 
ATOM      7  C   UNL     1       0.454   9.042  21.246  0.00  0.00    +0.000 A 
ATOM      8  C   UNL     1       0.234   9.789  20.126  0.00  0.00    +0.000 A 
ATOM      9  N   UNL     1      -0.628  10.861  19.943  0.00  0.00    +0.000 N 
ATOM     10  C   UNL     1      -0.412  11.392  18.668  0.00  0.00    +0.000 A 
ATOM     11  O   UNL     1      -0.948  12.377  18.192  0.00  0.00    +0.000 OA
ATOM     12  N   UNL     1       0.552  10.576  18.049  0.00  0.00    +0.000 N 
ATOM     13  C   UNL     1       0.935   9.575  18.940  0.00  0.00    +0.000 A 
ATOM     14  C   UNL     1       1.822   8.527  18.780  0.00  0.00    +0.000 A 
ATOM     15  H   UNL     1      -1.301  11.220  20.601  0.00  0.00    +0.000 HD
ATOM     16  H   UNL     1       0.915  10.751  17.128  0.00  0.00    +0.000 HD
ENDBRANCH   3   5
BRANCH   2  17
ATOM     17  C   UNL     1       3.474   4.148  19.975  0.00  0.00    +0.000 C 
BRANCH  17  18
ATOM     18  O   UNL     1       4.869   4.337  19.819  0.00  0.00    +0.000 OA
BRANCH  18  19
ATOM     19  C   UNL     1       5.240   4.383  18.484  0.00  0.00    +0.000 A 
ATOM     20  C   UNL     1       4.445   3.864  17.455  0.00  0.00    +0.000 A 
ATOM     21  C   UNL     1       4.884   3.870  16.130  0.00  0.00    +0.000 A 
ATOM     22  C   UNL     1       6.112   4.432  15.759  0.00  0.00    +0.000 A 
ATOM     23  C   UNL     1       6.885   4.998  16.791  0.00  0.00    +0.000 A 
ATOM     24  C   UNL     1       6.460   4.970  18.133  0.00  0.00    +0.000 A 
ATOM     25 CL   UNL     1       7.505   5.640  19.336  0.00  0.00    +0.000 Cl
BRANCH  22  26
ATOM     26  C   UNL     1       6.553   4.399  14.341  0.00  0.00    +0.000 A 
ATOM     27  C   UNL     1       7.519   5.303  13.853  0.00  0.00    +0.000 A 
ATOM     28  C   UNL     1       7.892   5.326  12.509  0.00  0.00    +0.000 A 
ATOM     29  C   UNL     1       7.327   4.424  11.614  0.00  0.00    +0.000 A 
ATOM     30  C   UNL     1       6.385   3.507  12.070  0.00  0.00    +0.000 A 
ATOM     31  C   UNL     1       5.999   3.498  13.414  0.00  0.00    +0.000 A 
ENDBRANCH  22  26
ENDBRANCH  18  19
ENDBRANCH  17  18
ENDBRANCH   2  17
TORSDOF 5
ENDMDL
MODEL 5
REMARK VINA RESULT:      -8.6      6.730      8.352
REMARK  Name = 
REMARK  5 active torsions:
REMARK  status: ('A' for Active; 'I' for Inactive)
REMARK    1  A    between atoms: C_2  and  C_3
REMARK    2  A    between atoms: C_3  and  O_4
REMARK    3  A    between atoms: O_4  and  C_5
REMARK    4  A    between atoms: C_8  and  C_9
REMARK    5  A    between atoms: N_18  and  C_19
REMARK                            x       y       z     vdW  Elec       q    Type
REMARK                         _______ _______ _______ _____ _____    ______ ____
ROOT
ATOM      1  O   UNL     1       7.457  10.200  17.536  0.00  0.00    +0.000 OA
ATOM      2  C   UNL     1       8.325   9.539  18.113  0.00  0.00    +0.000 C 
ATOM      3  N   UNL     1       9.462  10.040  18.718  0.00  0.00    +0.000 N 
ATOM      4  H   UNL     1      10.146   9.362  19.042  0.00  0.00    +0.000 HD
ENDROOT
BRANCH   3   5
ATOM      5  C   UNL     1       9.815  11.417  18.742  0.00  0.00    +0.000 A 
ATOM      6  C   UNL     1       9.549  12.240  19.870  0.00  0.00    +0.000 A 
ATOM      7  C   UNL     1       9.732  13.625  19.853  0.00  0.00    +0.000 A 
ATOM      8  C   UNL     1      10.260  14.147  18.709  0.00  0.00    +0.000 A 
ATOM      9  N   UNL     1      10.544  15.470  18.399  0.00  0.00    +0.000 N 
ATOM     10  C   UNL     1      11.200  15.506  17.165  0.00  0.00    +0.000 A 
ATOM     11  O   UNL     1      11.651  16.494  16.612  0.00  0.00    +0.000 OA
ATOM     12  N   UNL     1      11.247  14.182  16.694  0.00  0.00    +0.000 N 
ATOM     13  C   UNL     1      10.650  13.347  17.636  0.00  0.00    +0.000 A 
ATOM     14  C   UNL     1      10.431  11.982  17.611  0.00  0.00    +0.000 A 
ATOM     15  H   UNL     1      10.329  16.285  18.952  0.00  0.00    +0.000 HD
ATOM     16  H   UNL     1      11.694  13.917  15.833  0.00  0.00    +0.000 HD
ENDBRANCH   3   5
BRANCH   2  17
ATOM     17  C   UNL     1       8.162   8.026  18.095  0.00  0.00    +0.000 C 
BRANCH  17  18
ATOM     18  O   UNL     1       7.528   7.364  17.016  0.00  0.00    +0.000 OA
BRANCH  18  19
ATOM     19  C   UNL     1       6.412   6.652  17.428  0.00  0.00    +0.000 A 
ATOM     20  C   UNL     1       5.103   7.048  17.126  0.00  0.00    +0.000 A 
ATOM     21  C   UNL     1       4.004   6.339  17.616  0.00  0.00    +0.000 A 
ATOM     22  C   UNL     1       4.153   5.181  18.388  0.00  0.00    +0.000 A 
ATOM     23  C   UNL     1       5.472   4.759  18.644  0.00  0.00    +0.000 A 
ATOM     24  C   UNL     1       6.585   5.484  18.177  0.00  0.00    +0.000 A 
ATOM     25 CL   UNL     1       8.163   4.917  18.593  0.00  0.00    +0.000 Cl
BRANCH  22  26
ATOM     26  C   UNL     1       2.959   4.468  18.908  0.00  0.00    +0.000 A 
ATOM     27  C   UNL     1       2.252   3.543  18.112  0.00  0.00    +0.000 A 
ATOM     28  C   UNL     1       1.090   2.918  18.566  0.00  0.00    +0.000 A 
ATOM     29  C   UNL     1       0.613   3.181  19.844  0.00  0.00    +0.000 A 
ATOM     30  C   UNL     1       1.299   4.075  20.661  0.00  0.00    +0.000 A 
ATOM     31  C   UNL     1       2.452   4.714  20.197  0.00  0.00    +0.000 A 
ENDBRANCH  22  26
ENDBRANCH  18  19
ENDBRANCH  17  18
ENDBRANCH   2  17
TORSDOF 5
ENDMDL
MODEL 6
REMARK VINA RESULT:      -8.6      1.827      2.390
REMARK  Name = 
REMARK  5 active torsions:
REMARK  status: ('A' for Active; 'I' for Inactive)
REMARK    1  A    between atoms: C_2  and  C_3
REMARK    2  A    between atoms: C_3  and  O_4
REMARK    3  A    between atoms: O_4  and  C_5
REMARK    4  A    between atoms: C_8  and  C_9
REMARK    5  A    between atoms: N_18  and  C_19
REMARK                            x       y       z     vdW  Elec       q    Type
REMARK                         _______ _______ _______ _____ _____    ______ ____
ROOT
ATOM      1  O   UNL     1       0.623   4.899  20.159  0.00  0.00    +0.000 OA
ATOM      2  C   UNL     1       1.703   5.115  20.714  0.00  0.00    +0.000 C 
ATOM      3  N   UNL     1       2.448   6.277  20.624  0.00  0.00    +0.000 N 
ATOM      4  H   UNL     1       3.376   6.260  21.035  0.00  0.00    +0.000 HD
ENDROOT
BRANCH   3   5
ATOM      5  C   UNL     1       2.078   7.405  19.842  0.00  0.00    +0.000 A 
ATOM      6  C   UNL     1       2.448   7.525  18.475  0.00  0.00    +0.000 A 
ATOM      7  C   UNL     1       2.243   8.693  17.738  0.00  0.00    +0.000 A 
ATOM      8  C   UNL     1       1.588   9.703  18.381  0.00  0.00    +0.000 A 
ATOM      9  N   UNL     1       1.251  10.966  17.914  0.00  0.00    +0.000 N 
ATOM     10  C   UNL     1       0.467  11.602  18.881  0.00  0.00    +0.000 A 
ATOM     11  O   UNL     1      -0.056  12.698  18.785  0.00  0.00    +0.000 OA
ATOM     12  N   UNL     1       0.391  10.725  19.979  0.00  0.00    +0.000 N 
ATOM     13  C   UNL     1       1.099   9.564  19.679  0.00  0.00    +0.000 A 
ATOM     14  C   UNL     1       1.336   8.438  20.445  0.00  0.00    +0.000 A 
ATOM     15  H   UNL     1       1.510  11.378  17.032  0.00  0.00    +0.000 HD
ATOM     16  H   UNL     1      -0.141  10.925  20.809  0.00  0.00    +0.000 HD
ENDBRANCH   3   5
BRANCH   2  17
ATOM     17  C   UNL     1       2.305   3.970  21.515  0.00  0.00    +0.000 C 
BRANCH  17  18
ATOM     18  O   UNL     1       2.791   2.801  20.882  0.00  0.00    +0.000 OA
BRANCH  18  19
ATOM     19  C   UNL     1       3.482   3.092  19.715  0.00  0.00    +0.000 A 
ATOM     20  C   UNL     1       4.764   3.655  19.712  0.00  0.00    +0.000 A 
ATOM     21  C   UNL     1       5.400   3.995  18.516  0.00  0.00    +0.000 A 
ATOM     22  C   UNL     1       4.813   3.749  17.269  0.00  0.00    +0.000 A 
ATOM     23  C   UNL     1       3.545   3.135  17.278  0.00  0.00    +0.000 A 
ATOM     24  C   UNL     1       2.887   2.816  18.480  0.00  0.00    +0.000 A 
ATOM     25 CL   UNL     1       1.309   2.116  18.388  0.00  0.00    +0.000 Cl
BRANCH  22  26
ATOM     26  C   UNL     1       5.513   4.145  16.021  0.00  0.00    +0.000 A 
ATOM     27  C   UNL     1       5.003   3.798  14.753  0.00  0.00    +0.000 A 
ATOM     28  C   UNL     1       5.686   4.106  13.575  0.00  0.00    +0.000 A 
ATOM     29  C   UNL     1       6.890   4.797  13.631  0.00  0.00    +0.000 A 
ATOM     30  C   UNL     1       7.409   5.172  14.866  0.00  0.00    +0.000 A 
ATOM     31  C   UNL     1       6.733   4.845  16.046  0.00  0.00    +0.000 A 
ENDBRANCH  22  26
ENDBRANCH  18  19
ENDBRANCH  17  18
ENDBRANCH   2  17
TORSDOF 5
ENDMDL
MODEL 7
REMARK VINA RESULT:      -8.5      6.875      8.241
REMARK  Name = 
REMARK  5 active torsions:
REMARK  status: ('A' for Active; 'I' for Inactive)
REMARK    1  A    between atoms: C_2  and  C_3
REMARK    2  A    between atoms: C_3  and  O_4
REMARK    3  A    between atoms: O_4  and  C_5
REMARK    4  A    between atoms: C_8  and  C_9
REMARK    5  A    between atoms: N_18  and  C_19
REMARK                            x       y       z     vdW  Elec       q    Type
REMARK                         _______ _______ _______ _____ _____    ______ ____
ROOT
ATOM      1  O   UNL     1       9.316   9.400  19.212  0.00  0.00    +0.000 OA
ATOM      2  C   UNL     1       8.674   9.830  18.250  0.00  0.00    +0.000 C 
ATOM      3  N   UNL     1       8.804  11.083  17.680  0.00  0.00    +0.000 N 
ATOM      4  H   UNL     1       8.120  11.339  16.974  0.00  0.00    +0.000 HD
ENDROOT
BRANCH   3   5
ATOM      5  C   UNL     1       9.698  12.085  18.146  0.00  0.00    +0.000 A 
ATOM      6  C   UNL     1      11.108  11.913  18.100  0.00  0.00    +0.000 A 
ATOM      7  C   UNL     1      11.997  12.806  18.703  0.00  0.00    +0.000 A 
ATOM      8  C   UNL     1      11.441  13.911  19.280  0.00  0.00    +0.000 A 
ATOM      9  N   UNL     1      12.061  14.955  19.952  0.00  0.00    +0.000 N 
ATOM     10  C   UNL     1      11.100  15.926  20.247  0.00  0.00    +0.000 A 
ATOM     11  O   UNL     1      11.298  17.005  20.777  0.00  0.00    +0.000 OA
ATOM     12  N   UNL     1       9.865  15.420  19.803  0.00  0.00    +0.000 N 
ATOM     13  C   UNL     1      10.072  14.169  19.226  0.00  0.00    +0.000 A 
ATOM     14  C   UNL     1       9.169  13.275  18.681  0.00  0.00    +0.000 A 
ATOM     15  H   UNL     1      13.036  15.029  20.194  0.00  0.00    +0.000 HD
ATOM     16  H   UNL     1       9.002  15.932  19.868  0.00  0.00    +0.000 HD
ENDBRANCH   3   5
BRANCH   2  17
ATOM     17  C   UNL     1       7.592   8.923  17.684  0.00  0.00    +0.000 C 
BRANCH  17  18
ATOM     18  O   UNL     1       7.899   7.642  17.166  0.00  0.00    +0.000 OA
BRANCH  18  19
ATOM     19  C   UNL     1       6.850   6.750  17.332  0.00  0.00    +0.000 A 
ATOM     20  C   UNL     1       5.724   6.737  16.501  0.00  0.00    +0.000 A 
ATOM     21  C   UNL     1       4.659   5.867  16.742  0.00  0.00    +0.000 A 
ATOM     22  C   UNL     1       4.682   4.939  17.790  0.00  0.00    +0.000 A 
ATOM     23  C   UNL     1       5.841   4.921  18.591  0.00  0.00    +0.000 A 
ATOM     24  C   UNL     1       6.906   5.815  18.371  0.00  0.00    +0.000 A 
ATOM     25 CL   UNL     1       8.259   5.754  19.444  0.00  0.00    +0.000 Cl
BRANCH  22  26
ATOM     26  C   UNL     1       3.520   4.046  18.026  0.00  0.00    +0.000 A 
ATOM     27  C   UNL     1       2.201   4.544  18.029  0.00  0.00    +0.000 A 
ATOM     28  C   UNL     1       1.106   3.729  18.316  0.00  0.00    +0.000 A 
ATOM     29  C   UNL     1       1.297   2.378  18.584  0.00  0.00    +0.000 A 
ATOM     30  C   UNL     1       2.584   1.852  18.570  0.00  0.00    +0.000 A 
ATOM     31  C   UNL     1       3.682   2.676  18.301  0.00  0.00    +0.000 A 
ENDBRANCH  22  26
ENDBRANCH  18  19
ENDBRANCH  17  18
ENDBRANCH   2  17
TORSDOF 5
ENDMDL
MODEL 8
REMARK VINA RESULT:      -8.2      3.845     10.735
REMARK  Name = 
REMARK  5 active torsions:
REMARK  status: ('A' for Active; 'I' for Inactive)
REMARK    1  A    between atoms: C_2  and  C_3
REMARK    2  A    between atoms: C_3  and  O_4
REMARK    3  A    between atoms: O_4  and  C_5
REMARK    4  A    between atoms: C_8  and  C_9
REMARK    5  A    between atoms: N_18  and  C_19
REMARK                            x       y       z     vdW  Elec       q    Type
REMARK                         _______ _______ _______ _____ _____    ______ ____
ROOT
ATOM      1  O   UNL     1       2.071   8.010  18.343  0.00  0.00    +0.000 OA
ATOM      2  C   UNL     1       2.367   7.414  19.382  0.00  0.00    +0.000 C 
ATOM      3  N   UNL     1       3.215   6.327  19.484  0.00  0.00    +0.000 N 
ATOM      4  H   UNL     1       3.263   5.866  20.387  0.00  0.00    +0.000 HD
ENDROOT
BRANCH   3   5
ATOM      5  C   UNL     1       3.863   5.712  18.378  0.00  0.00    +0.000 A 
ATOM      6  C   UNL     1       3.519   4.405  17.938  0.00  0.00    +0.000 A 
ATOM      7  C   UNL     1       4.251   3.718  16.968  0.00  0.00    +0.000 A 
ATOM      8  C   UNL     1       5.284   4.404  16.397  0.00  0.00    +0.000 A 
ATOM      9  N   UNL     1       6.181   3.986  15.424  0.00  0.00    +0.000 N 
ATOM     10  C   UNL     1       6.976   5.076  15.056  0.00  0.00    +0.000 A 
ATOM     11  O   UNL     1       7.829   5.091  14.186  0.00  0.00    +0.000 OA
ATOM     12  N   UNL     1       6.591   6.151  15.877  0.00  0.00    +0.000 N 
ATOM     13  C   UNL     1       5.563   5.732  16.718  0.00  0.00    +0.000 A 
ATOM     14  C   UNL     1       4.885   6.413  17.711  0.00  0.00    +0.000 A 
ATOM     15  H   UNL     1       6.265   3.063  15.029  0.00  0.00    +0.000 HD
ATOM     16  H   UNL     1       6.988   7.072  15.803  0.00  0.00    +0.000 HD
ENDBRANCH   3   5
BRANCH   2  17
ATOM     17  C   UNL     1       1.679   7.876  20.659  0.00  0.00    +0.000 C 
BRANCH  17  18
ATOM     18  O   UNL     1       0.268   7.897  20.771  0.00  0.00    +0.000 OA
BRANCH  18  19
ATOM     19  C   UNL     1      -0.187   9.067  21.361  0.00  0.00    +0.000 A 
ATOM     20  C   UNL     1      -0.344   9.209  22.745  0.00  0.00    +0.000 A 
ATOM     21  C   UNL     1      -0.869  10.380  23.295  0.00  0.00    +0.000 A 
ATOM     22  C   UNL     1      -1.218  11.480  22.502  0.00  0.00    +0.000 A 
ATOM     23  C   UNL     1      -1.010  11.349  21.115  0.00  0.00    +0.000 A 
ATOM     24  C   UNL     1      -0.508  10.161  20.551  0.00  0.00    +0.000 A 
ATOM     25 CL   UNL     1      -0.342  10.078  18.833  0.00  0.00    +0.000 Cl
BRANCH  22  26
ATOM     26  C   UNL     1      -1.793  12.699  23.124  0.00  0.00    +0.000 A 
ATOM     27  C   UNL     1      -1.024  13.868  23.294  0.00  0.00    +0.000 A 
ATOM     28  C   UNL     1      -1.532  14.997  23.937  0.00  0.00    +0.000 A 
ATOM     29  C   UNL     1      -2.840  15.000  24.408  0.00  0.00    +0.000 A 
ATOM     30  C   UNL     1      -3.631  13.868  24.238  0.00  0.00    +0.000 A 
ATOM     31  C   UNL     1      -3.113  12.731  23.610  0.00  0.00    +0.000 A 
ENDBRANCH  22  26
ENDBRANCH  18  19
ENDBRANCH  17  18
ENDBRANCH   2  17
TORSDOF 5
ENDMDL
MODEL 9
REMARK VINA RESULT:      -8.2      1.830      2.491
REMARK  Name = 
REMARK  5 active torsions:
REMARK  status: ('A' for Active; 'I' for Inactive)
REMARK    1  A    between atoms: C_2  and  C_3
REMARK    2  A    between atoms: C_3  and  O_4
REMARK    3  A    between atoms: O_4  and  C_5
REMARK    4  A    between atoms: C_8  and  C_9
REMARK    5  A    between atoms: N_18  and  C_19
REMARK                            x       y       z     vdW  Elec       q    Type
REMARK                         _______ _______ _______ _____ _____    ______ ____
ROOT
ATOM      1  O   UNL     1       2.508   7.796  18.628  0.00  0.00    +0.000 OA
ATOM      2  C   UNL     1       2.272   7.104  19.622  0.00  0.00    +0.000 C 
ATOM      3  N   UNL     1       1.505   7.476  20.711  0.00  0.00    +0.000 N 
ATOM      4  H   UNL     1       1.505   6.848  21.508  0.00  0.00    +0.000 HD
ENDROOT
BRANCH   3   5
ATOM      5  C   UNL     1       0.885   8.747  20.854  0.00  0.00    +0.000 A 
ATOM      6  C   UNL     1       0.943   9.731  19.830  0.00  0.00    +0.000 A 
ATOM      7  C   UNL     1       0.489  11.039  20.014  0.00  0.00    +0.000 A 
ATOM      8  C   UNL     1      -0.095  11.309  21.217  0.00  0.00    +0.000 A 
ATOM      9  N   UNL     1      -0.627  12.503  21.685  0.00  0.00    +0.000 N 
ATOM     10  C   UNL     1      -1.237  12.263  22.920  0.00  0.00    +0.000 A 
ATOM     11  O   UNL     1      -1.857  13.069  23.591  0.00  0.00    +0.000 OA
ATOM     12  N   UNL     1      -1.003  10.911  23.230  0.00  0.00    +0.000 N 
ATOM     13  C   UNL     1      -0.282  10.328  22.190  0.00  0.00    +0.000 A 
ATOM     14  C   UNL     1       0.205   9.042  22.051  0.00  0.00    +0.000 A 
ATOM     15  H   UNL     1      -0.598  13.402  21.231  0.00  0.00    +0.000 HD
ATOM     16  H   UNL     1      -1.360  10.465  24.057  0.00  0.00    +0.000 HD
ENDBRANCH   3   5
BRANCH   2  17
ATOM     17  C   UNL     1       2.946   5.741  19.686  0.00  0.00    +0.000 C 
BRANCH  17  18
ATOM     18  O   UNL     1       4.356   5.614  19.689  0.00  0.00    +0.000 OA
BRANCH  18  19
ATOM     19  C   UNL     1       4.856   5.344  18.424  0.00  0.00    +0.000 A 
ATOM     20  C   UNL     1       5.473   6.316  17.627  0.00  0.00    +0.000 A 
ATOM     21  C   UNL     1       5.903   6.020  16.332  0.00  0.00    +0.000 A 
ATOM     22  C   UNL     1       5.782   4.737  15.786  0.00  0.00    +0.000 A 
ATOM     23  C   UNL     1       5.207   3.751  16.611  0.00  0.00    +0.000 A 
ATOM     24  C   UNL     1       4.746   4.049  17.908  0.00  0.00    +0.000 A 
ATOM     25 CL   UNL     1       4.003   2.785  18.822  0.00  0.00    +0.000 Cl
BRANCH  22  26
ATOM     26  C   UNL     1       6.232   4.469  14.396  0.00  0.00    +0.000 A 
ATOM     27  C   UNL     1       7.351   5.127  13.848  0.00  0.00    +0.000 A 
ATOM     28  C   UNL     1       7.744   4.934  12.523  0.00  0.00    +0.000 A 
ATOM     29  C   UNL     1       7.040   4.052  11.711  0.00  0.00    +0.000 A 
ATOM     30  C   UNL     1       5.942   3.372  12.229  0.00  0.00    +0.000 A 
ATOM     31  C   UNL     1       5.540   3.582  13.552  0.00  0.00    +0.000 A 
ENDBRANCH  22  26
ENDBRANCH  18  19
ENDBRANCH  17  18
ENDBRANCH   2  17
TORSDOF 5
ENDMDL
