MODEL 1
REMARK VINA RESULT:      -9.2      0.000      0.000
REMARK  Name = 
REMARK  7 active torsions:
REMARK  status: ('A' for Active; 'I' for Inactive)
REMARK    1  A    between atoms: C_2  and  C_3
REMARK    2  A    between atoms: C_3  and  O_4
REMARK    3  A    between atoms: O_4  and  C_5
REMARK    4  A    between atoms: C_9  and  N_10
REMARK    5  A    between atoms: N_16  and  C_17
REMARK    6  A    between atoms: C_17  and  C_18
REMARK    7  A    between atoms: C_17  and  C_24
REMARK                            x       y       z     vdW  Elec       q    Type
REMARK                         _______ _______ _______ _____ _____    ______ ____
ROOT
ATOM      1  O   UNL     1       2.295  11.031  18.375  0.00  0.00    +0.000 OA
ATOM      2  C   UNL     1       1.742   9.953  18.154  0.00  0.00    +0.000 C 
ATOM      3  N   UNL     1       0.389   9.748  18.324  0.00  0.00    +0.000 N 
ATOM      4  H   UNL     1      -0.038   8.908  17.964  0.00  0.00    +0.000 HD
ENDROOT
BRANCH   2   5
ATOM      5  C   UNL     1       2.533   8.715  17.721  0.00  0.00    +0.000 C 
BRANCH   5   6
ATOM      6  O   UNL     1       2.443   7.649  18.661  0.00  0.00    +0.000 OA
BRANCH   6   7
ATOM      7  C   UNL     1       2.785   6.403  18.195  0.00  0.00    +0.000 A 
ATOM      8  C   UNL     1       1.973   5.266  18.247  0.00  0.00    +0.000 A 
ATOM      9  C   UNL     1       2.402   4.065  17.677  0.00  0.00    +0.000 A 
ATOM     10  C   UNL     1       3.640   3.991  17.043  0.00  0.00    +0.000 A 
ATOM     11  C   UNL     1       4.473   5.117  17.001  0.00  0.00    +0.000 A 
ATOM     12  C   UNL     1       4.051   6.315  17.603  0.00  0.00    +0.000 A 
BRANCH  11  13
ATOM     13  N   UNL     1       5.705   5.040  16.307  0.00  0.00    +0.000 N 
ATOM     14  C   UNL     1       6.866   4.396  16.650  0.00  0.00    +0.000 A 
ATOM     15  N   UNL     1       7.792   4.659  15.757  0.00  0.00    +0.000 NA
ATOM     16  N   UNL     1       7.193   5.469  14.829  0.00  0.00    +0.000 NA
ATOM     17  N   UNL     1       5.924   5.691  15.140  0.00  0.00    +0.000 NA
ENDBRANCH  11  13
ENDBRANCH   6   7
ENDBRANCH   5   6
ENDBRANCH   2   5
BRANCH   3  18
ATOM     18  C   UNL     1      -0.491  10.772  18.872  0.00  0.00    +0.000 C 
BRANCH  18  19
ATOM     19  C   UNL     1      -1.826  10.780  18.132  0.00  0.00    +0.000 A 
ATOM     20  C   UNL     1      -2.924  11.546  18.564  0.00  0.00    +0.000 A 
ATOM     21  C   UNL     1      -4.109  11.579  17.827  0.00  0.00    +0.000 A 
ATOM     22  C   UNL     1      -4.226  10.832  16.658  0.00  0.00    +0.000 A 
ATOM     23  C   UNL     1      -3.161  10.040  16.233  0.00  0.00    +0.000 A 
ATOM     24  C   UNL     1      -1.973  10.009  16.965  0.00  0.00    +0.000 A 
ENDBRANCH  18  19
BRANCH  18  25
ATOM     25  C   UNL     1      -0.661  10.658  20.391  0.00  0.00    +0.000 A 
ATOM     26  C   UNL     1      -0.449   9.406  21.005  0.00  0.00    +0.000 A 
ATOM     27  C   UNL     1      -0.496   9.270  22.393  0.00  0.00    +0.000 A 
ATOM     28  C   UNL     1      -0.749  10.377  23.194  0.00  0.00    +0.000 A 
ATOM     29  C   UNL     1      -0.970  11.623  22.608  0.00  0.00    +0.000 A 
ATOM     30  C   UNL     1      -0.930  11.762  21.217  0.00  0.00    +0.000 A 
ENDBRANCH  18  25
ENDBRANCH   3  18
TORSDOF 7
ENDMDL
MODEL 2
REMARK VINA RESULT:      -8.9      0.581      1.396
REMARK  Name = 
REMARK  7 active torsions:
REMARK  status: ('A' for Active; 'I' for Inactive)
REMARK    1  A    between atoms: C_2  and  C_3
REMARK    2  A    between atoms: C_3  and  O_4
REMARK    3  A    between atoms: O_4  and  C_5
REMARK    4  A    between atoms: C_9  and  N_10
REMARK    5  A    between atoms: N_16  and  C_17
REMARK    6  A    between atoms: C_17  and  C_18
REMARK    7  A    between atoms: C_17  and  C_24
REMARK                            x       y       z     vdW  Elec       q    Type
REMARK                         _______ _______ _______ _____ _____    ______ ____
ROOT
ATOM      1  O   UNL     1       2.362  10.753  17.660  0.00  0.00    +0.000 OA
ATOM      2  C   UNL     1       1.922   9.638  17.941  0.00  0.00    +0.000 C 
ATOM      3  N   UNL     1       0.712   9.439  18.572  0.00  0.00    +0.000 N 
ATOM      4  H   UNL     1       0.319   8.512  18.619  0.00  0.00    +0.000 HD
ENDROOT
BRANCH   2   5
ATOM      5  C   UNL     1       2.720   8.360  17.660  0.00  0.00    +0.000 C 
BRANCH   5   6
ATOM      6  O   UNL     1       2.277   7.254  18.438  0.00  0.00    +0.000 OA
BRANCH   6   7
ATOM      7  C   UNL     1       2.743   6.020  18.053  0.00  0.00    +0.000 A 
ATOM      8  C   UNL     1       2.113   4.799  18.308  0.00  0.00    +0.000 A 
ATOM      9  C   UNL     1       2.647   3.610  17.805  0.00  0.00    +0.000 A 
ATOM     10  C   UNL     1       3.810   3.631  17.038  0.00  0.00    +0.000 A 
ATOM     11  C   UNL     1       4.464   4.846  16.792  0.00  0.00    +0.000 A 
ATOM     12  C   UNL     1       3.940   6.036  17.325  0.00  0.00    +0.000 A 
BRANCH  11  13
ATOM     13  N   UNL     1       5.614   4.857  15.967  0.00  0.00    +0.000 N 
ATOM     14  C   UNL     1       6.845   5.421  16.186  0.00  0.00    +0.000 A 
ATOM     15  N   UNL     1       7.593   5.266  15.117  0.00  0.00    +0.000 NA
ATOM     16  N   UNL     1       6.821   4.577  14.221  0.00  0.00    +0.000 NA
ATOM     17  N   UNL     1       5.627   4.306  14.730  0.00  0.00    +0.000 NA
ENDBRANCH  11  13
ENDBRANCH   6   7
ENDBRANCH   5   6
ENDBRANCH   2   5
BRANCH   3  18
ATOM     18  C   UNL     1      -0.109  10.546  19.046  0.00  0.00    +0.000 C 
BRANCH  18  19
ATOM     19  C   UNL     1      -1.418  10.613  18.263  0.00  0.00    +0.000 A 
ATOM     20  C   UNL     1      -1.673   9.796  17.148  0.00  0.00    +0.000 A 
ATOM     21  C   UNL     1      -2.907   9.839  16.495  0.00  0.00    +0.000 A 
ATOM     22  C   UNL     1      -3.898  10.713  16.932  0.00  0.00    +0.000 A 
ATOM     23  C   UNL     1      -3.652  11.555  18.014  0.00  0.00    +0.000 A 
ATOM     24  C   UNL     1      -2.421  11.510  18.672  0.00  0.00    +0.000 A 
ENDBRANCH  18  19
BRANCH  18  25
ATOM     25  C   UNL     1      -0.333  10.512  20.562  0.00  0.00    +0.000 A 
ATOM     26  C   UNL     1      -0.710  11.701  21.220  0.00  0.00    +0.000 A 
ATOM     27  C   UNL     1      -1.021  11.702  22.580  0.00  0.00    +0.000 A 
ATOM     28  C   UNL     1      -0.967  10.519  23.309  0.00  0.00    +0.000 A 
ATOM     29  C   UNL     1      -0.588   9.333  22.681  0.00  0.00    +0.000 A 
ATOM     30  C   UNL     1      -0.270   9.329  21.319  0.00  0.00    +0.000 A 
ENDBRANCH  18  25
ENDBRANCH   3  18
TORSDOF 7
ENDMDL
MODEL 3
REMARK VINA RESULT:      -8.7      2.819      9.338
REMARK  Name = 
REMARK  7 active torsions:
REMARK  status: ('A' for Active; 'I' for Inactive)
REMARK    1  A    between atoms: C_2  and  C_3
REMARK    2  A    between atoms: C_3  and  O_4
REMARK    3  A    between atoms: O_4  and  C_5
REMARK    4  A    between atoms: C_9  and  N_10
REMARK    5  A    between atoms: N_16  and  C_17
REMARK    6  A    between atoms: C_17  and  C_18
REMARK    7  A    between atoms: C_17  and  C_24
REMARK                            x       y       z     vdW  Elec       q    Type
REMARK                         _______ _______ _______ _____ _____    ______ ____
ROOT
ATOM      1  O   UNL     1       1.746   8.373  20.215  0.00  0.00    +0.000 OA
ATOM      2  C   UNL     1       1.804   8.379  18.985  0.00  0.00    +0.000 C 
ATOM      3  N   UNL     1       2.458   7.410  18.254  0.00  0.00    +0.000 N 
ATOM      4  H   UNL     1       2.327   7.364  17.255  0.00  0.00    +0.000 HD
ENDROOT
BRANCH   2   5
ATOM      5  C   UNL     1       1.194   9.513  18.154  0.00  0.00    +0.000 C 
BRANCH   5   6
ATOM      6  O   UNL     1       0.288  10.315  18.901  0.00  0.00    +0.000 OA
BRANCH   6   7
ATOM      7  C   UNL     1      -0.971  10.460  18.370  0.00  0.00    +0.000 A 
ATOM      8  C   UNL     1      -1.464   9.777  17.254  0.00  0.00    +0.000 A 
ATOM      9  C   UNL     1      -2.788   9.955  16.846  0.00  0.00    +0.000 A 
ATOM     10  C   UNL     1      -3.632  10.809  17.553  0.00  0.00    +0.000 A 
ATOM     11  C   UNL     1      -3.146  11.515  18.661  0.00  0.00    +0.000 A 
ATOM     12  C   UNL     1      -1.805  11.357  19.049  0.00  0.00    +0.000 A 
BRANCH  11  13
ATOM     13  N   UNL     1      -4.031  12.338  19.399  0.00  0.00    +0.000 N 
ATOM     14  C   UNL     1      -5.383  12.519  19.259  0.00  0.00    +0.000 A 
ATOM     15  N   UNL     1      -5.790  13.441  20.101  0.00  0.00    +0.000 NA
ATOM     16  N   UNL     1      -4.674  13.830  20.793  0.00  0.00    +0.000 NA
ATOM     17  N   UNL     1      -3.605  13.156  20.391  0.00  0.00    +0.000 NA
ENDBRANCH  11  13
ENDBRANCH   6   7
ENDBRANCH   5   6
ENDBRANCH   2   5
BRANCH   3  18
ATOM     18  C   UNL     1       3.220   6.340  18.886  0.00  0.00    +0.000 C 
BRANCH  18  19
ATOM     19  C   UNL     1       2.336   5.116  19.111  0.00  0.00    +0.000 A 
ATOM     20  C   UNL     1       1.928   4.276  18.060  0.00  0.00    +0.000 A 
ATOM     21  C   UNL     1       1.172   3.129  18.312  0.00  0.00    +0.000 A 
ATOM     22  C   UNL     1       0.795   2.814  19.614  0.00  0.00    +0.000 A 
ATOM     23  C   UNL     1       1.160   3.652  20.664  0.00  0.00    +0.000 A 
ATOM     24  C   UNL     1       1.920   4.797  20.416  0.00  0.00    +0.000 A 
ENDBRANCH  18  19
BRANCH  18  25
ATOM     25  C   UNL     1       4.509   6.002  18.127  0.00  0.00    +0.000 A 
ATOM     26  C   UNL     1       5.486   5.213  18.768  0.00  0.00    +0.000 A 
ATOM     27  C   UNL     1       6.631   4.796  18.088  0.00  0.00    +0.000 A 
ATOM     28  C   UNL     1       6.820   5.152  16.757  0.00  0.00    +0.000 A 
ATOM     29  C   UNL     1       5.871   5.938  16.107  0.00  0.00    +0.000 A 
ATOM     30  C   UNL     1       4.725   6.364  16.787  0.00  0.00    +0.000 A 
ENDBRANCH  18  25
ENDBRANCH   3  18
TORSDOF 7
ENDMDL
MODEL 4
REMARK VINA RESULT:      -8.7      3.166      9.209
REMARK  Name = 
REMARK  7 active torsions:
REMARK  status: ('A' for Active; 'I' for Inactive)
REMARK    1  A    between atoms: C_2  and  C_3
REMARK    2  A    between atoms: C_3  and  O_4
REMARK    3  A    between atoms: O_4  and  C_5
REMARK    4  A    between atoms: C_9  and  N_10
REMARK    5  A    between atoms: N_16  and  C_17
REMARK    6  A    between atoms: C_17  and  C_18
REMARK    7  A    between atoms: C_17  and  C_24
REMARK                            x       y       z     vdW  Elec       q    Type
REMARK                         _______ _______ _______ _____ _____    ______ ____
ROOT
ATOM      1  O   UNL     1       2.286   8.809  16.951  0.00  0.00    +0.000 OA
ATOM      2  C   UNL     1       2.202   8.700  18.174  0.00  0.00    +0.000 C 
ATOM      3  N   UNL     1       2.543   7.551  18.857  0.00  0.00    +0.000 N 
ATOM      4  H   UNL     1       2.624   7.572  19.861  0.00  0.00    +0.000 HD
ENDROOT
BRANCH   2   5
ATOM      5  C   UNL     1       1.649   9.830  19.050  0.00  0.00    +0.000 C 
BRANCH   5   6
ATOM      6  O   UNL     1       0.247   9.718  19.269  0.00  0.00    +0.000 OA
BRANCH   6   7
ATOM      7  C   UNL     1      -0.176   9.878  20.567  0.00  0.00    +0.000 A 
ATOM      8  C   UNL     1      -0.003   8.950  21.597  0.00  0.00    +0.000 A 
ATOM      9  C   UNL     1      -0.414   9.254  22.897  0.00  0.00    +0.000 A 
ATOM     10  C   UNL     1      -0.994  10.488  23.180  0.00  0.00    +0.000 A 
ATOM     11  C   UNL     1      -1.192  11.421  22.153  0.00  0.00    +0.000 A 
ATOM     12  C   UNL     1      -0.805  11.100  20.841  0.00  0.00    +0.000 A 
BRANCH  11  13
ATOM     13  N   UNL     1      -1.732  12.691  22.467  0.00  0.00    +0.000 N 
ATOM     14  C   UNL     1      -2.834  13.326  21.955  0.00  0.00    +0.000 A 
ATOM     15  N   UNL     1      -2.923  14.531  22.469  0.00  0.00    +0.000 NA
ATOM     16  N   UNL     1      -1.867  14.645  23.333  0.00  0.00    +0.000 NA
ATOM     17  N   UNL     1      -1.150  13.530  23.357  0.00  0.00    +0.000 NA
ENDBRANCH  11  13
ENDBRANCH   6   7
ENDBRANCH   5   6
ENDBRANCH   2   5
BRANCH   3  18
ATOM     18  C   UNL     1       2.946   6.330  18.171  0.00  0.00    +0.000 C 
BRANCH  18  19
ATOM     19  C   UNL     1       4.467   6.196  18.169  0.00  0.00    +0.000 A 
ATOM     20  C   UNL     1       5.164   5.495  19.169  0.00  0.00    +0.000 A 
ATOM     21  C   UNL     1       6.550   5.339  19.100  0.00  0.00    +0.000 A 
ATOM     22  C   UNL     1       7.264   5.896  18.043  0.00  0.00    +0.000 A 
ATOM     23  C   UNL     1       6.595   6.623  17.061  0.00  0.00    +0.000 A 
ATOM     24  C   UNL     1       5.209   6.776  17.125  0.00  0.00    +0.000 A 
ENDBRANCH  18  19
BRANCH  18  25
ATOM     25  C   UNL     1       2.247   5.082  18.723  0.00  0.00    +0.000 A 
ATOM     26  C   UNL     1       1.821   5.082  20.067  0.00  0.00    +0.000 A 
ATOM     27  C   UNL     1       1.094   4.011  20.590  0.00  0.00    +0.000 A 
ATOM     28  C   UNL     1       0.776   2.924  19.783  0.00  0.00    +0.000 A 
ATOM     29  C   UNL     1       1.195   2.900  18.453  0.00  0.00    +0.000 A 
ATOM     30  C   UNL     1       1.929   3.968  17.928  0.00  0.00    +0.000 A 
ENDBRANCH  18  25
ENDBRANCH   3  18
TORSDOF 7
ENDMDL
MODEL 5
REMARK VINA RESULT:      -8.7      2.490      8.955
REMARK  Name = 
REMARK  7 active torsions:
REMARK  status: ('A' for Active; 'I' for Inactive)
REMARK    1  A    between atoms: C_2  and  C_3
REMARK    2  A    between atoms: C_3  and  O_4
REMARK    3  A    between atoms: O_4  and  C_5
REMARK    4  A    between atoms: C_9  and  N_10
REMARK    5  A    between atoms: N_16  and  C_17
REMARK    6  A    between atoms: C_17  and  C_18
REMARK    7  A    between atoms: C_17  and  C_24
REMARK                            x       y       z     vdW  Elec       q    Type
REMARK                         _______ _______ _______ _____ _____    ______ ____
ROOT
ATOM      1  O   UNL     1       1.861   8.121  19.934  0.00  0.00    +0.000 OA
ATOM      2  C   UNL     1       2.055   8.132  18.718  0.00  0.00    +0.000 C 
ATOM      3  N   UNL     1       2.803   7.177  18.062  0.00  0.00    +0.000 N 
ATOM      4  H   UNL     1       2.783   7.131  17.055  0.00  0.00    +0.000 HD
ENDROOT
BRANCH   2   5
ATOM      5  C   UNL     1       1.521   9.257  17.825  0.00  0.00    +0.000 C 
BRANCH   5   6
ATOM      6  O   UNL     1       1.603  10.535  18.445  0.00  0.00    +0.000 OA
BRANCH   6   7
ATOM      7  C   UNL     1       0.465  10.974  19.078  0.00  0.00    +0.000 A 
ATOM      8  C   UNL     1       0.404  11.479  20.380  0.00  0.00    +0.000 A 
ATOM      9  C   UNL     1      -0.802  11.962  20.894  0.00  0.00    +0.000 A 
ATOM     10  C   UNL     1      -1.954  11.951  20.111  0.00  0.00    +0.000 A 
ATOM     11  C   UNL     1      -1.913  11.428  18.812  0.00  0.00    +0.000 A 
ATOM     12  C   UNL     1      -0.705  10.915  18.309  0.00  0.00    +0.000 A 
BRANCH  11  13
ATOM     13  N   UNL     1      -3.079  11.472  18.011  0.00  0.00    +0.000 N 
ATOM     14  C   UNL     1      -4.350  11.876  18.333  0.00  0.00    +0.000 A 
ATOM     15  N   UNL     1      -5.147  11.670  17.309  0.00  0.00    +0.000 NA
ATOM     16  N   UNL     1      -4.355  11.145  16.323  0.00  0.00    +0.000 NA
ATOM     17  N   UNL     1      -3.097  11.038  16.728  0.00  0.00    +0.000 NA
ENDBRANCH  11  13
ENDBRANCH   6   7
ENDBRANCH   5   6
ENDBRANCH   2   5
BRANCH   3  18
ATOM     18  C   UNL     1       3.508   6.118  18.773  0.00  0.00    +0.000 C 
BRANCH  18  19
ATOM     19  C   UNL     1       2.553   4.979  19.121  0.00  0.00    +0.000 A 
ATOM     20  C   UNL     1       2.014   4.122  18.145  0.00  0.00    +0.000 A 
ATOM     21  C   UNL     1       1.194   3.051  18.507  0.00  0.00    +0.000 A 
ATOM     22  C   UNL     1       0.882   2.831  19.846  0.00  0.00    +0.000 A 
ATOM     23  C   UNL     1       1.379   3.691  20.823  0.00  0.00    +0.000 A 
ATOM     24  C   UNL     1       2.203   4.759  20.465  0.00  0.00    +0.000 A 
ENDBRANCH  18  19
BRANCH  18  25
ATOM     25  C   UNL     1       4.755   5.631  18.026  0.00  0.00    +0.000 A 
ATOM     26  C   UNL     1       4.826   5.819  16.630  0.00  0.00    +0.000 A 
ATOM     27  C   UNL     1       5.978   5.483  15.918  0.00  0.00    +0.000 A 
ATOM     28  C   UNL     1       7.081   4.959  16.583  0.00  0.00    +0.000 A 
ATOM     29  C   UNL     1       7.029   4.757  17.961  0.00  0.00    +0.000 A 
ATOM     30  C   UNL     1       5.874   5.086  18.677  0.00  0.00    +0.000 A 
ENDBRANCH  18  25
ENDBRANCH   3  18
TORSDOF 7
ENDMDL
MODEL 6
REMARK VINA RESULT:      -8.7      2.718      9.179
REMARK  Name = 
REMARK  7 active torsions:
REMARK  status: ('A' for Active; 'I' for Inactive)
REMARK    1  A    between atoms: C_2  and  C_3
REMARK    2  A    between atoms: C_3  and  O_4
REMARK    3  A    between atoms: O_4  and  C_5
REMARK    4  A    between atoms: C_9  and  N_10
REMARK    5  A    between atoms: N_16  and  C_17
REMARK    6  A    between atoms: C_17  and  C_18
REMARK    7  A    between atoms: C_17  and  C_24
REMARK                            x       y       z     vdW  Elec       q    Type
REMARK                         _______ _______ _______ _____ _____    ______ ____
ROOT
ATOM      1  O   UNL     1       2.190   8.669  17.301  0.00  0.00    +0.000 OA
ATOM      2  C   UNL     1       2.123   8.319  18.479  0.00  0.00    +0.000 C 
ATOM      3  N   UNL     1       2.573   7.097  18.933  0.00  0.00    +0.000 N 
ATOM      4  H   UNL     1       2.656   6.932  19.924  0.00  0.00    +0.000 HD
ENDROOT
BRANCH   2   5
ATOM      5  C   UNL     1       1.471   9.203  19.548  0.00  0.00    +0.000 C 
BRANCH   5   6
ATOM      6  O   UNL     1       1.224  10.527  19.089  0.00  0.00    +0.000 OA
BRANCH   6   7
ATOM      7  C   UNL     1       0.078  11.125  19.556  0.00  0.00    +0.000 A 
ATOM      8  C   UNL     1      -0.033  11.847  20.747  0.00  0.00    +0.000 A 
ATOM      9  C   UNL     1      -1.236  12.471  21.085  0.00  0.00    +0.000 A 
ATOM     10  C   UNL     1      -2.335  12.385  20.234  0.00  0.00    +0.000 A 
ATOM     11  C   UNL     1      -2.245  11.647  19.046  0.00  0.00    +0.000 A 
ATOM     12  C   UNL     1      -1.042  10.995  18.725  0.00  0.00    +0.000 A 
BRANCH  11  13
ATOM     13  N   UNL     1      -3.354  11.613  18.167  0.00  0.00    +0.000 N 
ATOM     14  C   UNL     1      -4.680  11.857  18.417  0.00  0.00    +0.000 A 
ATOM     15  N   UNL     1      -5.380  11.628  17.330  0.00  0.00    +0.000 NA
ATOM     16  N   UNL     1      -4.472  11.252  16.377  0.00  0.00    +0.000 NA
ATOM     17  N   UNL     1      -3.239  11.258  16.865  0.00  0.00    +0.000 NA
ENDBRANCH  11  13
ENDBRANCH   6   7
ENDBRANCH   5   6
ENDBRANCH   2   5
BRANCH   3  18
ATOM     18  C   UNL     1       3.085   6.073  18.031  0.00  0.00    +0.000 C 
BRANCH  18  19
ATOM     19  C   UNL     1       4.611   6.036  18.077  0.00  0.00    +0.000 A 
ATOM     20  C   UNL     1       5.410   6.580  17.056  0.00  0.00    +0.000 A 
ATOM     21  C   UNL     1       6.802   6.585  17.162  0.00  0.00    +0.000 A 
ATOM     22  C   UNL     1       7.419   6.030  18.279  0.00  0.00    +0.000 A 
ATOM     23  C   UNL     1       6.646   5.456  19.285  0.00  0.00    +0.000 A 
ATOM     24  C   UNL     1       5.253   5.453  19.184  0.00  0.00    +0.000 A 
ENDBRANCH  18  19
BRANCH  18  25
ATOM     25  C   UNL     1       2.456   4.697  18.279  0.00  0.00    +0.000 A 
ATOM     26  C   UNL     1       2.819   3.624  17.438  0.00  0.00    +0.000 A 
ATOM     27  C   UNL     1       2.352   2.332  17.681  0.00  0.00    +0.000 A 
ATOM     28  C   UNL     1       1.520   2.084  18.767  0.00  0.00    +0.000 A 
ATOM     29  C   UNL     1       1.142   3.131  19.606  0.00  0.00    +0.000 A 
ATOM     30  C   UNL     1       1.603   4.428  19.362  0.00  0.00    +0.000 A 
ENDBRANCH  18  25
ENDBRANCH   3  18
TORSDOF 7
ENDMDL
MODEL 7
REMARK VINA RESULT:      -8.6      2.725      9.000
REMARK  Name = 
REMARK  7 active torsions:
REMARK  status: ('A' for Active; 'I' for Inactive)
REMARK    1  A    between atoms: C_2  and  C_3
REMARK    2  A    between atoms: C_3  and  O_4
REMARK    3  A    between atoms: O_4  and  C_5
REMARK    4  A    between atoms: C_9  and  N_10
REMARK    5  A    between atoms: N_16  and  C_17
REMARK    6  A    between atoms: C_17  and  C_18
REMARK    7  A    between atoms: C_17  and  C_24
REMARK                            x       y       z     vdW  Elec       q    Type
REMARK                         _______ _______ _______ _____ _____    ______ ____
ROOT
ATOM      1  O   UNL     1       1.888   8.671  17.636  0.00  0.00    +0.000 OA
ATOM      2  C   UNL     1       1.917   8.287  18.805  0.00  0.00    +0.000 C 
ATOM      3  N   UNL     1       2.458   7.079  19.191  0.00  0.00    +0.000 N 
ATOM      4  H   UNL     1       2.616   6.892  20.169  0.00  0.00    +0.000 HD
ENDROOT
BRANCH   2   5
ATOM      5  C   UNL     1       1.293   9.107  19.940  0.00  0.00    +0.000 C 
BRANCH   5   6
ATOM      6  O   UNL     1       1.304  10.505  19.677  0.00  0.00    +0.000 OA
BRANCH   6   7
ATOM      7  C   UNL     1       0.103  11.156  19.821  0.00  0.00    +0.000 A 
ATOM      8  C   UNL     1      -0.216  12.054  20.844  0.00  0.00    +0.000 A 
ATOM      9  C   UNL     1      -1.450  12.710  20.848  0.00  0.00    +0.000 A 
ATOM     10  C   UNL     1      -2.371  12.481  19.829  0.00  0.00    +0.000 A 
ATOM     11  C   UNL     1      -2.073  11.568  18.808  0.00  0.00    +0.000 A 
ATOM     12  C   UNL     1      -0.844  10.887  18.824  0.00  0.00    +0.000 A 
BRANCH  11  13
ATOM     13  N   UNL     1      -2.997  11.386  17.752  0.00  0.00    +0.000 N 
ATOM     14  C   UNL     1      -2.779  11.020  16.448  0.00  0.00    +0.000 A 
ATOM     15  N   UNL     1      -3.913  11.058  15.787  0.00  0.00    +0.000 NA
ATOM     16  N   UNL     1      -4.862  11.436  16.699  0.00  0.00    +0.000 NA
ATOM     17  N   UNL     1      -4.324  11.619  17.897  0.00  0.00    +0.000 NA
ENDBRANCH  11  13
ENDBRANCH   6   7
ENDBRANCH   5   6
ENDBRANCH   2   5
BRANCH   3  18
ATOM     18  C   UNL     1       2.960   6.108  18.228  0.00  0.00    +0.000 C 
BRANCH  18  19
ATOM     19  C   UNL     1       4.487   6.098  18.226  0.00  0.00    +0.000 A 
ATOM     20  C   UNL     1       5.239   5.423  19.204  0.00  0.00    +0.000 A 
ATOM     21  C   UNL     1       6.633   5.382  19.134  0.00  0.00    +0.000 A 
ATOM     22  C   UNL     1       7.300   6.031  18.099  0.00  0.00    +0.000 A 
ATOM     23  C   UNL     1       6.574   6.734  17.141  0.00  0.00    +0.000 A 
ATOM     24  C   UNL     1       5.180   6.773  17.205  0.00  0.00    +0.000 A 
ENDBRANCH  18  19
BRANCH  18  25
ATOM     25  C   UNL     1       2.365   4.710  18.429  0.00  0.00    +0.000 A 
ATOM     26  C   UNL     1       2.725   3.683  17.532  0.00  0.00    +0.000 A 
ATOM     27  C   UNL     1       2.289   2.372  17.728  0.00  0.00    +0.000 A 
ATOM     28  C   UNL     1       1.491   2.060  18.823  0.00  0.00    +0.000 A 
ATOM     29  C   UNL     1       1.115   3.061  19.717  0.00  0.00    +0.000 A 
ATOM     30  C   UNL     1       1.545   4.377  19.520  0.00  0.00    +0.000 A 
ENDBRANCH  18  25
ENDBRANCH   3  18
TORSDOF 7
ENDMDL
MODEL 8
REMARK VINA RESULT:      -8.6      2.813      9.368
REMARK  Name = 
REMARK  7 active torsions:
REMARK  status: ('A' for Active; 'I' for Inactive)
REMARK    1  A    between atoms: C_2  and  C_3
REMARK    2  A    between atoms: C_3  and  O_4
REMARK    3  A    between atoms: O_4  and  C_5
REMARK    4  A    between atoms: C_9  and  N_10
REMARK    5  A    between atoms: N_16  and  C_17
REMARK    6  A    between atoms: C_17  and  C_18
REMARK    7  A    between atoms: C_17  and  C_24
REMARK                            x       y       z     vdW  Elec       q    Type
REMARK                         _______ _______ _______ _____ _____    ______ ____
ROOT
ATOM      1  O   UNL     1       2.348   8.743  17.245  0.00  0.00    +0.000 OA
ATOM      2  C   UNL     1       2.089   8.377  18.392  0.00  0.00    +0.000 C 
ATOM      3  N   UNL     1       2.400   7.124  18.875  0.00  0.00    +0.000 N 
ATOM      4  H   UNL     1       2.327   6.937  19.863  0.00  0.00    +0.000 HD
ENDROOT
BRANCH   2   5
ATOM      5  C   UNL     1       1.336   9.279  19.376  0.00  0.00    +0.000 C 
BRANCH   5   6
ATOM      6  O   UNL     1       0.955  10.523  18.799  0.00  0.00    +0.000 OA
BRANCH   6   7
ATOM      7  C   UNL     1      -0.378  10.665  18.497  0.00  0.00    +0.000 A 
ATOM      8  C   UNL     1      -1.073   9.934  17.529  0.00  0.00    +0.000 A 
ATOM      9  C   UNL     1      -2.447  10.117  17.358  0.00  0.00    +0.000 A 
ATOM     10  C   UNL     1      -3.139  11.026  18.155  0.00  0.00    +0.000 A 
ATOM     11  C   UNL     1      -2.452  11.781  19.114  0.00  0.00    +0.000 A 
ATOM     12  C   UNL     1      -1.065  11.616  19.263  0.00  0.00    +0.000 A 
BRANCH  11  13
ATOM     13  N   UNL     1      -3.179  12.661  19.952  0.00  0.00    +0.000 N 
ATOM     14  C   UNL     1      -2.730  13.674  20.760  0.00  0.00    +0.000 A 
ATOM     15  N   UNL     1      -3.740  14.179  21.430  0.00  0.00    +0.000 NA
ATOM     16  N   UNL     1      -4.844  13.481  21.020  0.00  0.00    +0.000 NA
ATOM     17  N   UNL     1      -4.521  12.572  20.110  0.00  0.00    +0.000 NA
ENDBRANCH  11  13
ENDBRANCH   6   7
ENDBRANCH   5   6
ENDBRANCH   2   5
BRANCH   3  18
ATOM     18  C   UNL     1       2.982   6.087  18.032  0.00  0.00    +0.000 C 
BRANCH  18  19
ATOM     19  C   UNL     1       4.504   6.094  18.152  0.00  0.00    +0.000 A 
ATOM     20  C   UNL     1       5.180   5.472  19.216  0.00  0.00    +0.000 A 
ATOM     21  C   UNL     1       6.576   5.443  19.260  0.00  0.00    +0.000 A 
ATOM     22  C   UNL     1       7.318   6.052  18.252  0.00  0.00    +0.000 A 
ATOM     23  C   UNL     1       6.666   6.703  17.207  0.00  0.00    +0.000 A 
ATOM     24  C   UNL     1       5.271   6.729  17.159  0.00  0.00    +0.000 A 
ENDBRANCH  18  19
BRANCH  18  25
ATOM     25  C   UNL     1       2.379   4.702  18.292  0.00  0.00    +0.000 A 
ATOM     26  C   UNL     1       2.749   3.632  17.452  0.00  0.00    +0.000 A 
ATOM     27  C   UNL     1       2.306   2.333  17.706  0.00  0.00    +0.000 A 
ATOM     28  C   UNL     1       1.491   2.077  18.802  0.00  0.00    +0.000 A 
ATOM     29  C   UNL     1       1.105   3.121  19.641  0.00  0.00    +0.000 A 
ATOM     30  C   UNL     1       1.543   4.425  19.386  0.00  0.00    +0.000 A 
ENDBRANCH  18  25
ENDBRANCH   3  18
TORSDOF 7
ENDMDL
MODEL 9
REMARK VINA RESULT:      -8.6      3.309      9.019
REMARK  Name = 
REMARK  7 active torsions:
REMARK  status: ('A' for Active; 'I' for Inactive)
REMARK    1  A    between atoms: C_2  and  C_3
REMARK    2  A    between atoms: C_3  and  O_4
REMARK    3  A    between atoms: O_4  and  C_5
REMARK    4  A    between atoms: C_9  and  N_10
REMARK    5  A    between atoms: N_16  and  C_17
REMARK    6  A    between atoms: C_17  and  C_18
REMARK    7  A    between atoms: C_17  and  C_24
REMARK                            x       y       z     vdW  Elec       q    Type
REMARK                         _______ _______ _______ _____ _____    ______ ____
ROOT
ATOM      1  O   UNL     1       2.390   8.664  17.032  0.00  0.00    +0.000 OA
ATOM      2  C   UNL     1       2.174   8.405  18.216  0.00  0.00    +0.000 C 
ATOM      3  N   UNL     1       2.498   7.198  18.799  0.00  0.00    +0.000 N 
ATOM      4  H   UNL     1       2.464   7.102  19.802  0.00  0.00    +0.000 HD
ENDROOT
BRANCH   2   5
ATOM      5  C   UNL     1       1.462   9.397  19.142  0.00  0.00    +0.000 C 
BRANCH   5   6
ATOM      6  O   UNL     1       1.001   8.793  20.345  0.00  0.00    +0.000 OA
BRANCH   6   7
ATOM      7  C   UNL     1       0.323   9.614  21.213  0.00  0.00    +0.000 A 
ATOM      8  C   UNL     1      -0.362   9.197  22.358  0.00  0.00    +0.000 A 
ATOM      9  C   UNL     1      -0.957  10.134  23.205  0.00  0.00    +0.000 A 
ATOM     10  C   UNL     1      -0.868  11.495  22.921  0.00  0.00    +0.000 A 
ATOM     11  C   UNL     1      -0.202  11.927  21.766  0.00  0.00    +0.000 A 
ATOM     12  C   UNL     1       0.369  10.979  20.900  0.00  0.00    +0.000 A 
BRANCH  11  13
ATOM     13  N   UNL     1      -0.074  13.315  21.519  0.00  0.00    +0.000 N 
ATOM     14  C   UNL     1      -0.289  14.024  20.365  0.00  0.00    +0.000 A 
ATOM     15  N   UNL     1       0.034  15.283  20.559  0.00  0.00    +0.000 NA
ATOM     16  N   UNL     1       0.440  15.365  21.865  0.00  0.00    +0.000 NA
ATOM     17  N   UNL     1       0.361  14.184  22.463  0.00  0.00    +0.000 NA
ENDBRANCH  11  13
ENDBRANCH   6   7
ENDBRANCH   5   6
ENDBRANCH   2   5
BRANCH   3  18
ATOM     18  C   UNL     1       3.044   6.086  18.032  0.00  0.00    +0.000 C 
BRANCH  18  19
ATOM     19  C   UNL     1       4.567   6.057  18.143  0.00  0.00    +0.000 A 
ATOM     20  C   UNL     1       5.232   5.464  19.231  0.00  0.00    +0.000 A 
ATOM     21  C   UNL     1       6.627   5.399  19.269  0.00  0.00    +0.000 A 
ATOM     22  C   UNL     1       7.379   5.942  18.232  0.00  0.00    +0.000 A 
ATOM     23  C   UNL     1       6.739   6.565  17.162  0.00  0.00    +0.000 A 
ATOM     24  C   UNL     1       5.345   6.627  17.120  0.00  0.00    +0.000 A 
ENDBRANCH  18  19
BRANCH  18  25
ATOM     25  C   UNL     1       2.403   4.742  18.397  0.00  0.00    +0.000 A 
ATOM     26  C   UNL     1       2.634   3.631  17.560  0.00  0.00    +0.000 A 
ATOM     27  C   UNL     1       2.155   2.365  17.900  0.00  0.00    +0.000 A 
ATOM     28  C   UNL     1       1.442   2.182  19.079  0.00  0.00    +0.000 A 
ATOM     29  C   UNL     1       1.195   3.269  19.917  0.00  0.00    +0.000 A 
ATOM     30  C   UNL     1       1.668   4.540  19.577  0.00  0.00    +0.000 A 
ENDBRANCH  18  25
ENDBRANCH   3  18
TORSDOF 7
ENDMDL
