MODEL 1
REMARK VINA RESULT:      -8.6      0.000      0.000
REMARK  Name = 
REMARK  5 active torsions:
REMARK  status: ('A' for Active; 'I' for Inactive)
REMARK    1  A    between atoms: C_2  and  C_14
REMARK    2  A    between atoms: N_3  and  C_4
REMARK    3  A    between atoms: C_6  and  C_7
REMARK    4  A    between atoms: N_18  and  C_19
REMARK    5  A    between atoms: C_19  and  C_20
REMARK                            x       y       z     vdW  Elec       q    Type
REMARK                         _______ _______ _______ _____ _____    ______ ____
ROOT
ATOM      1  O   UNL     1       1.646   8.792  21.961  0.00  0.00    +0.000 OA
ATOM      2  C   UNL     1       1.449   8.574  20.766  0.00  0.00    +0.000 C 
ATOM      3  N   UNL     1       0.908   9.512  19.914  0.00  0.00    +0.000 N 
ATOM      4  H   UNL     1       0.795   9.274  18.930  0.00  0.00    +0.000 HD
ENDROOT
BRANCH   2   5
ATOM      5  C   UNL     1       1.770   7.252  20.159  0.00  0.00    +0.000 A 
ATOM      6  C   UNL     1       1.392   6.153  20.839  0.00  0.00    +0.000 A 
ATOM      7  C   UNL     1       1.688   4.831  20.354  0.00  0.00    +0.000 A 
ATOM      8  C   UNL     1       2.436   4.680  19.259  0.00  0.00    +0.000 A 
ATOM      9  N   UNL     1       2.883   5.776  18.536  0.00  0.00    +0.000 N 
ATOM     10  C   UNL     1       2.523   7.083  18.876  0.00  0.00    +0.000 A 
ATOM     11  O   UNL     1       2.811   8.068  18.194  0.00  0.00    +0.000 OA
BRANCH   9  12
ATOM     12  C   UNL     1       3.848   5.570  17.452  0.00  0.00    +0.000 C 
BRANCH  12  13
ATOM     13  C   UNL     1       5.244   5.967  17.891  0.00  0.00    +0.000 A 
ATOM     14  C   UNL     1       5.992   6.894  17.150  0.00  0.00    +0.000 A 
ATOM     15  C   UNL     1       7.322   7.160  17.482  0.00  0.00    +0.000 A 
ATOM     16  C   UNL     1       7.915   6.511  18.562  0.00  0.00    +0.000 A 
ATOM     17  C   UNL     1       7.175   5.611  19.325  0.00  0.00    +0.000 A 
ATOM     18  C   UNL     1       5.847   5.339  18.991  0.00  0.00    +0.000 A 
ENDBRANCH  12  13
ENDBRANCH   9  12
ENDBRANCH   2   5
BRANCH   3  19
ATOM     19  C   UNL     1       0.517  10.804  20.382  0.00  0.00    +0.000 C 
ATOM     20  C   UNL     1      -0.700  10.909  21.256  0.00  0.00    +0.000 C 
ATOM     21  C   UNL     1      -0.686  11.589  19.910  0.00  0.00    +0.000 C 
BRANCH  21  22
ATOM     22  C   UNL     1      -1.606  11.120  18.811  0.00  0.00    +0.000 A 
ATOM     23  C   UNL     1      -1.179  10.205  17.833  0.00  0.00    +0.000 A 
ATOM     24  C   UNL     1      -2.009   9.821  16.773  0.00  0.00    +0.000 A 
ATOM     25  C   UNL     1      -3.285  10.362  16.663  0.00  0.00    +0.000 A 
ATOM     26  C   UNL     1      -3.718  11.276  17.612  0.00  0.00    +0.000 A 
ATOM     27  F   UNL     1      -4.940  11.816  17.499  0.00  0.00    +0.000 F 
ATOM     28  C   UNL     1      -2.898  11.653  18.672  0.00  0.00    +0.000 A 
ENDBRANCH  21  22
ENDBRANCH   3  19
TORSDOF 5
ENDMDL
MODEL 2
REMARK VINA RESULT:      -8.4      3.089      8.371
REMARK  Name = 
REMARK  5 active torsions:
REMARK  status: ('A' for Active; 'I' for Inactive)
REMARK    1  A    between atoms: C_2  and  C_14
REMARK    2  A    between atoms: N_3  and  C_4
REMARK    3  A    between atoms: C_6  and  C_7
REMARK    4  A    between atoms: N_18  and  C_19
REMARK    5  A    between atoms: C_19  and  C_20
REMARK                            x       y       z     vdW  Elec       q    Type
REMARK                         _______ _______ _______ _____ _____    ______ ____
ROOT
ATOM      1  O   UNL     1       2.104   5.781  17.803  0.00  0.00    +0.000 OA
ATOM      2  C   UNL     1       2.311   6.037  18.990  0.00  0.00    +0.000 C 
ATOM      3  N   UNL     1       2.927   5.152  19.848  0.00  0.00    +0.000 N 
ATOM      4  H   UNL     1       3.090   5.437  20.813  0.00  0.00    +0.000 HD
ENDROOT
BRANCH   2   5
ATOM      5  C   UNL     1       1.883   7.332  19.587  0.00  0.00    +0.000 A 
ATOM      6  C   UNL     1       1.581   7.336  20.899  0.00  0.00    +0.000 A 
ATOM      7  C   UNL     1       1.124   8.530  21.561  0.00  0.00    +0.000 A 
ATOM      8  C   UNL     1       0.898   9.636  20.848  0.00  0.00    +0.000 A 
ATOM      9  N   UNL     1       1.159   9.681  19.487  0.00  0.00    +0.000 N 
ATOM     10  C   UNL     1       1.727   8.601  18.807  0.00  0.00    +0.000 A 
ATOM     11  O   UNL     1       2.073   8.645  17.624  0.00  0.00    +0.000 OA
BRANCH   9  12
ATOM     12  C   UNL     1       0.727  10.850  18.716  0.00  0.00    +0.000 C 
BRANCH  12  13
ATOM     13  C   UNL     1      -0.768  10.811  18.468  0.00  0.00    +0.000 A 
ATOM     14  C   UNL     1      -1.315   9.932  17.521  0.00  0.00    +0.000 A 
ATOM     15  C   UNL     1      -2.673   9.987  17.203  0.00  0.00    +0.000 A 
ATOM     16  C   UNL     1      -3.501  10.913  17.833  0.00  0.00    +0.000 A 
ATOM     17  C   UNL     1      -2.978  11.771  18.797  0.00  0.00    +0.000 A 
ATOM     18  C   UNL     1      -1.618  11.721  19.114  0.00  0.00    +0.000 A 
ENDBRANCH  12  13
ENDBRANCH   9  12
ENDBRANCH   2   5
BRANCH   3  19
ATOM     19  C   UNL     1       3.346   3.859  19.408  0.00  0.00    +0.000 C 
ATOM     20  C   UNL     1       4.555   3.243  20.052  0.00  0.00    +0.000 C 
ATOM     21  C   UNL     1       4.575   3.563  18.578  0.00  0.00    +0.000 C 
BRANCH  21  22
ATOM     22  C   UNL     1       5.495   4.631  18.044  0.00  0.00    +0.000 A 
ATOM     23  C   UNL     1       5.441   5.049  16.703  0.00  0.00    +0.000 A 
ATOM     24  C   UNL     1       6.339   5.990  16.188  0.00  0.00    +0.000 A 
ATOM     25  C   UNL     1       7.327   6.524  17.008  0.00  0.00    +0.000 A 
ATOM     26  C   UNL     1       7.405   6.113  18.332  0.00  0.00    +0.000 A 
ATOM     27  F   UNL     1       8.368   6.609  19.120  0.00  0.00    +0.000 F 
ATOM     28  C   UNL     1       6.507   5.184  18.848  0.00  0.00    +0.000 A 
ENDBRANCH  21  22
ENDBRANCH   3  19
TORSDOF 5
ENDMDL
MODEL 3
REMARK VINA RESULT:      -8.4      3.142      8.346
REMARK  Name = 
REMARK  5 active torsions:
REMARK  status: ('A' for Active; 'I' for Inactive)
REMARK    1  A    between atoms: C_2  and  C_14
REMARK    2  A    between atoms: N_3  and  C_4
REMARK    3  A    between atoms: C_6  and  C_7
REMARK    4  A    between atoms: N_18  and  C_19
REMARK    5  A    between atoms: C_19  and  C_20
REMARK                            x       y       z     vdW  Elec       q    Type
REMARK                         _______ _______ _______ _____ _____    ______ ____
ROOT
ATOM      1  O   UNL     1       2.981   5.245  20.206  0.00  0.00    +0.000 OA
ATOM      2  C   UNL     1       2.514   6.046  19.395  0.00  0.00    +0.000 C 
ATOM      3  N   UNL     1       2.479   5.801  18.040  0.00  0.00    +0.000 N 
ATOM      4  H   UNL     1       2.055   6.496  17.426  0.00  0.00    +0.000 HD
ENDROOT
BRANCH   2   5
ATOM      5  C   UNL     1       1.966   7.359  19.834  0.00  0.00    +0.000 A 
ATOM      6  C   UNL     1       1.538   7.454  21.107  0.00  0.00    +0.000 A 
ATOM      7  C   UNL     1       0.960   8.670  21.616  0.00  0.00    +0.000 A 
ATOM      8  C   UNL     1       0.749   9.698  20.792  0.00  0.00    +0.000 A 
ATOM      9  N   UNL     1       1.139   9.646  19.462  0.00  0.00    +0.000 N 
ATOM     10  C   UNL     1       1.824   8.548  18.934  0.00  0.00    +0.000 A 
ATOM     11  O   UNL     1       2.280   8.514  17.789  0.00  0.00    +0.000 OA
BRANCH   9  12
ATOM     12  C   UNL     1       0.726  10.720  18.554  0.00  0.00    +0.000 C 
BRANCH  12  13
ATOM     13  C   UNL     1      -0.777  10.705  18.349  0.00  0.00    +0.000 A 
ATOM     14  C   UNL     1      -1.368   9.806  17.449  0.00  0.00    +0.000 A 
ATOM     15  C   UNL     1      -2.733   9.880  17.166  0.00  0.00    +0.000 A 
ATOM     16  C   UNL     1      -3.523  10.846  17.784  0.00  0.00    +0.000 A 
ATOM     17  C   UNL     1      -2.954  11.726  18.702  0.00  0.00    +0.000 A 
ATOM     18  C   UNL     1      -1.588  11.657  18.984  0.00  0.00    +0.000 A 
ENDBRANCH  12  13
ENDBRANCH   9  12
ENDBRANCH   2   5
BRANCH   3  19
ATOM     19  C   UNL     1       3.012   4.596  17.487  0.00  0.00    +0.000 C 
ATOM     20  C   UNL     1       3.690   3.626  18.411  0.00  0.00    +0.000 C 
ATOM     21  C   UNL     1       4.480   4.281  17.306  0.00  0.00    +0.000 C 
BRANCH  21  22
ATOM     22  C   UNL     1       5.586   5.251  17.634  0.00  0.00    +0.000 A 
ATOM     23  C   UNL     1       5.786   6.423  16.882  0.00  0.00    +0.000 A 
ATOM     24  C   UNL     1       6.853   7.290  17.141  0.00  0.00    +0.000 A 
ATOM     25  C   UNL     1       7.757   6.991  18.155  0.00  0.00    +0.000 A 
ATOM     26  C   UNL     1       7.583   5.833  18.899  0.00  0.00    +0.000 A 
ATOM     27  F   UNL     1       8.462   5.530  19.864  0.00  0.00    +0.000 F 
ATOM     28  C   UNL     1       6.517   4.973  18.648  0.00  0.00    +0.000 A 
ENDBRANCH  21  22
ENDBRANCH   3  19
TORSDOF 5
ENDMDL
MODEL 4
REMARK VINA RESULT:      -8.4      2.997      8.508
REMARK  Name = 
REMARK  5 active torsions:
REMARK  status: ('A' for Active; 'I' for Inactive)
REMARK    1  A    between atoms: C_2  and  C_14
REMARK    2  A    between atoms: N_3  and  C_4
REMARK    3  A    between atoms: C_6  and  C_7
REMARK    4  A    between atoms: N_18  and  C_19
REMARK    5  A    between atoms: C_19  and  C_20
REMARK                            x       y       z     vdW  Elec       q    Type
REMARK                         _______ _______ _______ _____ _____    ______ ____
ROOT
ATOM      1  O   UNL     1       3.474   7.222  16.747  0.00  0.00    +0.000 OA
ATOM      2  C   UNL     1       2.961   6.817  17.791  0.00  0.00    +0.000 C 
ATOM      3  N   UNL     1       2.935   5.486  18.143  0.00  0.00    +0.000 N 
ATOM      4  H   UNL     1       2.516   5.222  19.034  0.00  0.00    +0.000 HD
ENDROOT
BRANCH   2   5
ATOM      5  C   UNL     1       2.309   7.756  18.746  0.00  0.00    +0.000 A 
ATOM      6  C   UNL     1       2.022   7.285  19.974  0.00  0.00    +0.000 A 
ATOM      7  C   UNL     1       1.360   8.104  20.955  0.00  0.00    +0.000 A 
ATOM      8  C   UNL     1       0.930   9.323  20.620  0.00  0.00    +0.000 A 
ATOM      9  N   UNL     1       1.168   9.848  19.359  0.00  0.00    +0.000 N 
ATOM     10  C   UNL     1       1.918   9.160  18.401  0.00  0.00    +0.000 A 
ATOM     11  O   UNL     1       2.241   9.642  17.313  0.00  0.00    +0.000 OA
BRANCH   9  12
ATOM     12  C   UNL     1       0.524  11.108  18.977  0.00  0.00    +0.000 C 
BRANCH  12  13
ATOM     13  C   UNL     1      -0.920  10.877  18.578  0.00  0.00    +0.000 A 
ATOM     14  C   UNL     1      -1.250   9.928  17.599  0.00  0.00    +0.000 A 
ATOM     15  C   UNL     1      -2.564   9.807  17.142  0.00  0.00    +0.000 A 
ATOM     16  C   UNL     1      -3.563  10.626  17.664  0.00  0.00    +0.000 A 
ATOM     17  C   UNL     1      -3.255  11.552  18.658  0.00  0.00    +0.000 A 
ATOM     18  C   UNL     1      -1.940  11.678  19.113  0.00  0.00    +0.000 A 
ENDBRANCH  12  13
ENDBRANCH   9  12
ENDBRANCH   2   5
BRANCH   3  19
ATOM     19  C   UNL     1       3.488   4.480  17.293  0.00  0.00    +0.000 C 
ATOM     20  C   UNL     1       4.137   3.285  17.929  0.00  0.00    +0.000 C 
ATOM     21  C   UNL     1       4.962   4.217  17.077  0.00  0.00    +0.000 C 
BRANCH  21  22
ATOM     22  C   UNL     1       6.054   5.049  17.699  0.00  0.00    +0.000 A 
ATOM     23  C   UNL     1       6.498   4.821  19.014  0.00  0.00    +0.000 A 
ATOM     24  C   UNL     1       7.463   5.635  19.617  0.00  0.00    +0.000 A 
ATOM     25  C   UNL     1       7.996   6.712  18.916  0.00  0.00    +0.000 A 
ATOM     26  C   UNL     1       7.561   6.960  17.622  0.00  0.00    +0.000 A 
ATOM     27  F   UNL     1       8.056   8.008  16.950  0.00  0.00    +0.000 F 
ATOM     28  C   UNL     1       6.607   6.146  17.017  0.00  0.00    +0.000 A 
ENDBRANCH  21  22
ENDBRANCH   3  19
TORSDOF 5
ENDMDL
MODEL 5
REMARK VINA RESULT:      -8.2      2.741      8.181
REMARK  Name = 
REMARK  5 active torsions:
REMARK  status: ('A' for Active; 'I' for Inactive)
REMARK    1  A    between atoms: C_2  and  C_14
REMARK    2  A    between atoms: N_3  and  C_4
REMARK    3  A    between atoms: C_6  and  C_7
REMARK    4  A    between atoms: N_18  and  C_19
REMARK    5  A    between atoms: C_19  and  C_20
REMARK                            x       y       z     vdW  Elec       q    Type
REMARK                         _______ _______ _______ _____ _____    ______ ____
ROOT
ATOM      1  O   UNL     1       1.912   5.457  17.894  0.00  0.00    +0.000 OA
ATOM      2  C   UNL     1       2.216   5.761  19.048  0.00  0.00    +0.000 C 
ATOM      3  N   UNL     1       2.879   4.902  19.897  0.00  0.00    +0.000 N 
ATOM      4  H   UNL     1       3.122   5.227  20.832  0.00  0.00    +0.000 HD
ENDROOT
BRANCH   2   5
ATOM      5  C   UNL     1       1.862   7.093  19.614  0.00  0.00    +0.000 A 
ATOM      6  C   UNL     1       1.558   7.143  20.925  0.00  0.00    +0.000 A 
ATOM      7  C   UNL     1       1.169   8.377  21.557  0.00  0.00    +0.000 A 
ATOM      8  C   UNL     1       1.009   9.478  20.819  0.00  0.00    +0.000 A 
ATOM      9  N   UNL     1       1.276   9.477  19.459  0.00  0.00    +0.000 N 
ATOM     10  C   UNL     1       1.782   8.350  18.805  0.00  0.00    +0.000 A 
ATOM     11  O   UNL     1       2.133   8.347  17.623  0.00  0.00    +0.000 OA
BRANCH   9  12
ATOM     12  C   UNL     1       0.914  10.651  18.660  0.00  0.00    +0.000 C 
BRANCH  12  13
ATOM     13  C   UNL     1      -0.587  10.730  18.465  0.00  0.00    +0.000 A 
ATOM     14  C   UNL     1      -1.235   9.893  17.544  0.00  0.00    +0.000 A 
ATOM     15  C   UNL     1      -2.595  10.055  17.274  0.00  0.00    +0.000 A 
ATOM     16  C   UNL     1      -3.324  11.047  17.925  0.00  0.00    +0.000 A 
ATOM     17  C   UNL     1      -2.700  11.865  18.864  0.00  0.00    +0.000 A 
ATOM     18  C   UNL     1      -1.338  11.709  19.133  0.00  0.00    +0.000 A 
ENDBRANCH  12  13
ENDBRANCH   9  12
ENDBRANCH   2   5
BRANCH   3  19
ATOM     19  C   UNL     1       3.236   3.581  19.489  0.00  0.00    +0.000 C 
ATOM     20  C   UNL     1       4.476   2.964  20.069  0.00  0.00    +0.000 C 
ATOM     21  C   UNL     1       4.392   3.217  18.584  0.00  0.00    +0.000 C 
BRANCH  21  22
ATOM     22  C   UNL     1       5.291   4.237  17.933  0.00  0.00    +0.000 A 
ATOM     23  C   UNL     1       6.363   4.825  18.628  0.00  0.00    +0.000 A 
ATOM     24  C   UNL     1       7.157   5.821  18.049  0.00  0.00    +0.000 A 
ATOM     25  C   UNL     1       6.881   6.263  16.760  0.00  0.00    +0.000 A 
ATOM     26  C   UNL     1       5.819   5.703  16.063  0.00  0.00    +0.000 A 
ATOM     27  F   UNL     1       5.538   6.140  14.828  0.00  0.00    +0.000 F 
ATOM     28  C   UNL     1       5.034   4.706  16.634  0.00  0.00    +0.000 A 
ENDBRANCH  21  22
ENDBRANCH   3  19
TORSDOF 5
ENDMDL
MODEL 6
REMARK VINA RESULT:      -8.1      3.183      8.257
REMARK  Name = 
REMARK  5 active torsions:
REMARK  status: ('A' for Active; 'I' for Inactive)
REMARK    1  A    between atoms: C_2  and  C_14
REMARK    2  A    between atoms: N_3  and  C_4
REMARK    3  A    between atoms: C_6  and  C_7
REMARK    4  A    between atoms: N_18  and  C_19
REMARK    5  A    between atoms: C_19  and  C_20
REMARK                            x       y       z     vdW  Elec       q    Type
REMARK                         _______ _______ _______ _____ _____    ______ ____
ROOT
ATOM      1  O   UNL     1       0.926   4.727  20.535  0.00  0.00    +0.000 OA
ATOM      2  C   UNL     1       1.686   5.538  20.006  0.00  0.00    +0.000 C 
ATOM      3  N   UNL     1       2.726   5.161  19.185  0.00  0.00    +0.000 N 
ATOM      4  H   UNL     1       3.302   5.886  18.758  0.00  0.00    +0.000 HD
ENDROOT
BRANCH   2   5
ATOM      5  C   UNL     1       1.538   7.002  20.240  0.00  0.00    +0.000 A 
ATOM      6  C   UNL     1       1.245   7.399  21.492  0.00  0.00    +0.000 A 
ATOM      7  C   UNL     1       1.047   8.789  21.812  0.00  0.00    +0.000 A 
ATOM      8  C   UNL     1       1.056   9.700  20.836  0.00  0.00    +0.000 A 
ATOM      9  N   UNL     1       1.320   9.345  19.522  0.00  0.00    +0.000 N 
ATOM     10  C   UNL     1       1.650   8.035  19.162  0.00  0.00    +0.000 A 
ATOM     11  O   UNL     1       1.995   7.707  18.025  0.00  0.00    +0.000 OA
BRANCH   9  12
ATOM     12  C   UNL     1       1.140  10.342  18.463  0.00  0.00    +0.000 C 
BRANCH  12  13
ATOM     13  C   UNL     1      -0.330  10.656  18.261  0.00  0.00    +0.000 A 
ATOM     14  C   UNL     1      -0.920  11.762  18.889  0.00  0.00    +0.000 A 
ATOM     15  C   UNL     1      -2.297  11.974  18.805  0.00  0.00    +0.000 A 
ATOM     16  C   UNL     1      -3.097  11.090  18.086  0.00  0.00    +0.000 A 
ATOM     17  C   UNL     1      -2.520  10.005  17.431  0.00  0.00    +0.000 A 
ATOM     18  C   UNL     1      -1.144   9.787  17.518  0.00  0.00    +0.000 A 
ENDBRANCH  12  13
ENDBRANCH   9  12
ENDBRANCH   2   5
BRANCH   3  19
ATOM     19  C   UNL     1       3.000   3.785  18.915  0.00  0.00    +0.000 C 
ATOM     20  C   UNL     1       4.182   3.148  19.588  0.00  0.00    +0.000 C 
ATOM     21  C   UNL     1       4.148   3.259  18.084  0.00  0.00    +0.000 C 
BRANCH  21  22
ATOM     22  C   UNL     1       5.130   4.148  17.365  0.00  0.00    +0.000 A 
ATOM     23  C   UNL     1       5.133   4.261  15.963  0.00  0.00    +0.000 A 
ATOM     24  C   UNL     1       6.087   5.032  15.289  0.00  0.00    +0.000 A 
ATOM     25  C   UNL     1       7.074   5.696  16.009  0.00  0.00    +0.000 A 
ATOM     26  C   UNL     1       7.095   5.585  17.393  0.00  0.00    +0.000 A 
ATOM     27  F   UNL     1       8.056   6.207  18.089  0.00  0.00    +0.000 F 
ATOM     28  C   UNL     1       6.141   4.826  18.065  0.00  0.00    +0.000 A 
ENDBRANCH  21  22
ENDBRANCH   3  19
TORSDOF 5
ENDMDL
MODEL 7
REMARK VINA RESULT:      -8.1      3.023      8.435
REMARK  Name = 
REMARK  5 active torsions:
REMARK  status: ('A' for Active; 'I' for Inactive)
REMARK    1  A    between atoms: C_2  and  C_14
REMARK    2  A    between atoms: N_3  and  C_4
REMARK    3  A    between atoms: C_6  and  C_7
REMARK    4  A    between atoms: N_18  and  C_19
REMARK    5  A    between atoms: C_19  and  C_20
REMARK                            x       y       z     vdW  Elec       q    Type
REMARK                         _______ _______ _______ _____ _____    ______ ____
ROOT
ATOM      1  O   UNL     1       2.360   9.429  17.448  0.00  0.00    +0.000 OA
ATOM      2  C   UNL     1       1.873   8.956  18.474  0.00  0.00    +0.000 C 
ATOM      3  N   UNL     1       2.343   7.802  19.061  0.00  0.00    +0.000 N 
ATOM      4  H   UNL     1       1.910   7.478  19.925  0.00  0.00    +0.000 HD
ENDROOT
BRANCH   2   5
ATOM      5  C   UNL     1       0.711   9.601  19.147  0.00  0.00    +0.000 A 
ATOM      6  C   UNL     1      -0.173  10.247  18.364  0.00  0.00    +0.000 A 
ATOM      7  C   UNL     1      -1.309  10.933  18.922  0.00  0.00    +0.000 A 
ATOM      8  C   UNL     1      -1.444  11.019  20.248  0.00  0.00    +0.000 A 
ATOM      9  N   UNL     1      -0.545  10.402  21.104  0.00  0.00    +0.000 N 
ATOM     10  C   UNL     1       0.504   9.611  20.630  0.00  0.00    +0.000 A 
ATOM     11  O   UNL     1       1.254   8.961  21.362  0.00  0.00    +0.000 OA
BRANCH   9  12
ATOM     12  C   UNL     1      -0.628  10.674  22.542  0.00  0.00    +0.000 C 
BRANCH  12  13
ATOM     13  C   UNL     1      -1.337  11.989  22.803  0.00  0.00    +0.000 A 
ATOM     14  C   UNL     1      -0.664  13.209  22.641  0.00  0.00    +0.000 A 
ATOM     15  C   UNL     1      -1.277  14.410  23.005  0.00  0.00    +0.000 A 
ATOM     16  C   UNL     1      -2.570  14.406  23.524  0.00  0.00    +0.000 A 
ATOM     17  C   UNL     1      -3.260  13.203  23.662  0.00  0.00    +0.000 A 
ATOM     18  C   UNL     1      -2.647  12.001  23.303  0.00  0.00    +0.000 A 
ENDBRANCH  12  13
ENDBRANCH   9  12
ENDBRANCH   2   5
BRANCH   3  19
ATOM     19  C   UNL     1       3.425   7.064  18.489  0.00  0.00    +0.000 C 
ATOM     20  C   UNL     1       3.152   6.215  17.281  0.00  0.00    +0.000 C 
ATOM     21  C   UNL     1       3.611   5.566  18.563  0.00  0.00    +0.000 C 
BRANCH  21  22
ATOM     22  C   UNL     1       2.687   4.650  19.325  0.00  0.00    +0.000 A 
ATOM     23  C   UNL     1       2.750   4.537  20.725  0.00  0.00    +0.000 A 
ATOM     24  C   UNL     1       1.941   3.638  21.429  0.00  0.00    +0.000 A 
ATOM     25  C   UNL     1       1.058   2.816  20.737  0.00  0.00    +0.000 A 
ATOM     26  C   UNL     1       0.991   2.904  19.354  0.00  0.00    +0.000 A 
ATOM     27  F   UNL     1       0.156   2.100  18.682  0.00  0.00    +0.000 F 
ATOM     28  C   UNL     1       1.789   3.804  18.653  0.00  0.00    +0.000 A 
ENDBRANCH  21  22
ENDBRANCH   3  19
TORSDOF 5
ENDMDL
MODEL 8
REMARK VINA RESULT:      -8.1      2.802      8.291
REMARK  Name = 
REMARK  5 active torsions:
REMARK  status: ('A' for Active; 'I' for Inactive)
REMARK    1  A    between atoms: C_2  and  C_14
REMARK    2  A    between atoms: N_3  and  C_4
REMARK    3  A    between atoms: C_6  and  C_7
REMARK    4  A    between atoms: N_18  and  C_19
REMARK    5  A    between atoms: C_19  and  C_20
REMARK                            x       y       z     vdW  Elec       q    Type
REMARK                         _______ _______ _______ _____ _____    ______ ____
ROOT
ATOM      1  O   UNL     1       3.212   4.863  19.853  0.00  0.00    +0.000 OA
ATOM      2  C   UNL     1       2.871   5.747  19.067  0.00  0.00    +0.000 C 
ATOM      3  N   UNL     1       3.044   5.643  17.705  0.00  0.00    +0.000 N 
ATOM      4  H   UNL     1       2.716   6.402  17.109  0.00  0.00    +0.000 HD
ENDROOT
BRANCH   2   5
ATOM      5  C   UNL     1       2.257   7.015  19.551  0.00  0.00    +0.000 A 
ATOM      6  C   UNL     1       1.734   7.013  20.792  0.00  0.00    +0.000 A 
ATOM      7  C   UNL     1       1.088   8.178  21.336  0.00  0.00    +0.000 A 
ATOM      8  C   UNL     1       0.912   9.256  20.569  0.00  0.00    +0.000 A 
ATOM      9  N   UNL     1       1.399   9.304  19.272  0.00  0.00    +0.000 N 
ATOM     10  C   UNL     1       2.151   8.260  18.725  0.00  0.00    +0.000 A 
ATOM     11  O   UNL     1       2.691   8.315  17.618  0.00  0.00    +0.000 OA
BRANCH   9  12
ATOM     12  C   UNL     1       1.026  10.429  18.410  0.00  0.00    +0.000 C 
BRANCH  12  13
ATOM     13  C   UNL     1      -0.480  10.587  18.351  0.00  0.00    +0.000 A 
ATOM     14  C   UNL     1      -1.255   9.770  17.514  0.00  0.00    +0.000 A 
ATOM     15  C   UNL     1      -2.623  10.003  17.364  0.00  0.00    +0.000 A 
ATOM     16  C   UNL     1      -3.234  11.046  18.056  0.00  0.00    +0.000 A 
ATOM     17  C   UNL     1      -2.483  11.846  18.913  0.00  0.00    +0.000 A 
ATOM     18  C   UNL     1      -1.113  11.619  19.061  0.00  0.00    +0.000 A 
ENDBRANCH  12  13
ENDBRANCH   9  12
ENDBRANCH   2   5
BRANCH   3  19
ATOM     19  C   UNL     1       3.660   4.495  17.119  0.00  0.00    +0.000 C 
ATOM     20  C   UNL     1       4.254   3.460  18.030  0.00  0.00    +0.000 C 
ATOM     21  C   UNL     1       5.145   4.214  17.075  0.00  0.00    +0.000 C 
BRANCH  21  22
ATOM     22  C   UNL     1       6.188   5.168  17.600  0.00  0.00    +0.000 A 
ATOM     23  C   UNL     1       6.941   4.876  18.751  0.00  0.00    +0.000 A 
ATOM     24  C   UNL     1       7.861   5.789  19.279  0.00  0.00    +0.000 A 
ATOM     25  C   UNL     1       8.033   7.028  18.670  0.00  0.00    +0.000 A 
ATOM     26  C   UNL     1       7.289   7.338  17.541  0.00  0.00    +0.000 A 
ATOM     27  F   UNL     1       7.437   8.538  16.963  0.00  0.00    +0.000 F 
ATOM     28  C   UNL     1       6.380   6.428  17.009  0.00  0.00    +0.000 A 
ENDBRANCH  21  22
ENDBRANCH   3  19
TORSDOF 5
ENDMDL
MODEL 9
REMARK VINA RESULT:      -8.1      3.572      8.072
REMARK  Name = 
REMARK  5 active torsions:
REMARK  status: ('A' for Active; 'I' for Inactive)
REMARK    1  A    between atoms: C_2  and  C_14
REMARK    2  A    between atoms: N_3  and  C_4
REMARK    3  A    between atoms: C_6  and  C_7
REMARK    4  A    between atoms: N_18  and  C_19
REMARK    5  A    between atoms: C_19  and  C_20
REMARK                            x       y       z     vdW  Elec       q    Type
REMARK                         _______ _______ _______ _____ _____    ______ ____
ROOT
ATOM      1  O   UNL     1       3.906   2.465  17.058  0.00  0.00    +0.000 OA
ATOM      2  C   UNL     1       3.638   3.629  17.357  0.00  0.00    +0.000 C 
ATOM      3  N   UNL     1       4.163   4.712  16.687  0.00  0.00    +0.000 N 
ATOM      4  H   UNL     1       3.880   5.649  16.970  0.00  0.00    +0.000 HD
ENDROOT
BRANCH   2   5
ATOM      5  C   UNL     1       2.729   3.944  18.493  0.00  0.00    +0.000 A 
ATOM      6  C   UNL     1       1.582   3.244  18.577  0.00  0.00    +0.000 A 
ATOM      7  C   UNL     1       0.621   3.500  19.619  0.00  0.00    +0.000 A 
ATOM      8  C   UNL     1       0.816   4.514  20.465  0.00  0.00    +0.000 A 
ATOM      9  N   UNL     1       1.963   5.290  20.405  0.00  0.00    +0.000 N 
ATOM     10  C   UNL     1       2.997   5.015  19.505  0.00  0.00    +0.000 A 
ATOM     11  O   UNL     1       4.074   5.616  19.499  0.00  0.00    +0.000 OA
BRANCH   9  12
ATOM     12  C   UNL     1       2.051   6.499  21.229  0.00  0.00    +0.000 C 
BRANCH  12  13
ATOM     13  C   UNL     1       1.461   7.692  20.503  0.00  0.00    +0.000 A 
ATOM     14  C   UNL     1       1.888   8.025  19.209  0.00  0.00    +0.000 A 
ATOM     15  C   UNL     1       1.439   9.195  18.593  0.00  0.00    +0.000 A 
ATOM     16  C   UNL     1       0.553  10.039  19.259  0.00  0.00    +0.000 A 
ATOM     17  C   UNL     1       0.098   9.705  20.533  0.00  0.00    +0.000 A 
ATOM     18  C   UNL     1       0.550   8.538  21.152  0.00  0.00    +0.000 A 
ENDBRANCH  12  13
ENDBRANCH   9  12
ENDBRANCH   2   5
BRANCH   3  19
ATOM     19  C   UNL     1       5.082   4.544  15.605  0.00  0.00    +0.000 C 
ATOM     20  C   UNL     1       6.171   3.520  15.746  0.00  0.00    +0.000 C 
ATOM     21  C   UNL     1       6.530   4.978  15.599  0.00  0.00    +0.000 C 
BRANCH  21  22
ATOM     22  C   UNL     1       7.180   5.720  16.740  0.00  0.00    +0.000 A 
ATOM     23  C   UNL     1       7.538   5.070  17.934  0.00  0.00    +0.000 A 
ATOM     24  C   UNL     1       8.078   5.769  19.019  0.00  0.00    +0.000 A 
ATOM     25  C   UNL     1       8.258   7.145  18.935  0.00  0.00    +0.000 A 
ATOM     26  C   UNL     1       7.899   7.806  17.768  0.00  0.00    +0.000 A 
ATOM     27  F   UNL     1       8.051   9.135  17.690  0.00  0.00    +0.000 F 
ATOM     28  C   UNL     1       7.369   7.111  16.685  0.00  0.00    +0.000 A 
ENDBRANCH  21  22
ENDBRANCH   3  19
TORSDOF 5
ENDMDL
