MODEL 1
REMARK VINA RESULT:      -8.8      0.000      0.000
REMARK  Name = 
REMARK  5 active torsions:
REMARK  status: ('A' for Active; 'I' for Inactive)
REMARK    1  A    between atoms: C_2  and  C_14
REMARK    2  A    between atoms: N_3  and  C_4
REMARK    3  A    between atoms: C_4  and  C_5
REMARK    4  A    between atoms: C_19  and  C_20
REMARK    5  A    between atoms: C_20  and  C_21
REMARK                            x       y       z     vdW  Elec       q    Type
REMARK                         _______ _______ _______ _____ _____    ______ ____
ROOT
ATOM      1  O   UNL     1       2.620   7.276  18.635  0.00  0.00    +0.000 OA
ATOM      2  C   UNL     1       2.218   6.773  19.678  0.00  0.00    +0.000 C 
ATOM      3  N   UNL     1       1.622   7.539  20.666  0.00  0.00    +0.000 N 
ATOM      4  H   UNL     1       1.160   7.111  21.462  0.00  0.00    +0.000 HD
ENDROOT
BRANCH   2   5
ATOM      5  C   UNL     1       2.365   5.306  19.967  0.00  0.00    +0.000 A 
ATOM      6  C   UNL     1       1.233   4.636  20.478  0.00  0.00    +0.000 A 
ATOM      7  C   UNL     1       1.262   3.270  20.764  0.00  0.00    +0.000 A 
ATOM      8  C   UNL     1       2.421   2.545  20.535  0.00  0.00    +0.000 A 
ATOM      9  C   UNL     1       3.564   3.197  20.072  0.00  0.00    +0.000 A 
ATOM     10  C   UNL     1       3.576   4.588  19.817  0.00  0.00    +0.000 A 
BRANCH  10  11
ATOM     11  C   UNL     1       4.918   5.199  19.455  0.00  0.00    +0.000 C 
BRANCH  11  12
ATOM     12  C   UNL     1       5.428   4.891  18.067  0.00  0.00    +0.000 A 
ATOM     13  C   UNL     1       6.803   4.755  17.837  0.00  0.00    +0.000 A 
ATOM     14  C   UNL     1       7.284   4.461  16.560  0.00  0.00    +0.000 A 
ATOM     15  C   UNL     1       6.397   4.299  15.497  0.00  0.00    +0.000 A 
ATOM     16  C   UNL     1       5.026   4.414  15.714  0.00  0.00    +0.000 A 
ATOM     17  C   UNL     1       4.543   4.707  16.992  0.00  0.00    +0.000 A 
ENDBRANCH  11  12
ENDBRANCH  10  11
ENDBRANCH   2   5
BRANCH   3  18
ATOM     18  C   UNL     1       1.529   8.974  20.539  0.00  0.00    +0.000 C 
BRANCH  18  19
ATOM     19  C   UNL     1       0.755   9.560  21.666  0.00  0.00    +0.000 A 
ATOM     20  N   UNL     1       0.872   9.288  22.953  0.00  0.00    +0.000 NA
ATOM     21  N   UNL     1      -0.035  10.066  23.646  0.00  0.00    +0.000 NA
ATOM     22  C   UNL     1      -0.689  10.796  22.769  0.00  0.00    +0.000 A 
ATOM     23  C   UNL     1      -1.726  11.764  22.897  0.00  0.00    +0.000 A 
ATOM     24  C   UNL     1      -2.217  12.360  21.791  0.00  0.00    +0.000 A 
ATOM     25  C   UNL     1      -1.708  12.042  20.464  0.00  0.00    +0.000 A 
ATOM     26  C   UNL     1      -0.729  11.129  20.344  0.00  0.00    +0.000 A 
ATOM     27  N   UNL     1      -0.227  10.512  21.491  0.00  0.00    +0.000 N 
ENDBRANCH  18  19
ENDBRANCH   3  18
TORSDOF 5
ENDMDL
MODEL 2
REMARK VINA RESULT:      -8.7      1.092      1.637
REMARK  Name = 
REMARK  5 active torsions:
REMARK  status: ('A' for Active; 'I' for Inactive)
REMARK    1  A    between atoms: C_2  and  C_14
REMARK    2  A    between atoms: N_3  and  C_4
REMARK    3  A    between atoms: C_4  and  C_5
REMARK    4  A    between atoms: C_19  and  C_20
REMARK    5  A    between atoms: C_20  and  C_21
REMARK                            x       y       z     vdW  Elec       q    Type
REMARK                         _______ _______ _______ _____ _____    ______ ____
ROOT
ATOM      1  O   UNL     1       2.301   7.137  18.330  0.00  0.00    +0.000 OA
ATOM      2  C   UNL     1       2.226   6.692  19.470  0.00  0.00    +0.000 C 
ATOM      3  N   UNL     1       1.834   7.489  20.532  0.00  0.00    +0.000 N 
ATOM      4  H   UNL     1       1.632   7.094  21.444  0.00  0.00    +0.000 HD
ENDROOT
BRANCH   2   5
ATOM      5  C   UNL     1       2.577   5.268  19.796  0.00  0.00    +0.000 A 
ATOM      6  C   UNL     1       2.086   4.749  21.013  0.00  0.00    +0.000 A 
ATOM      7  C   UNL     1       2.342   3.433  21.400  0.00  0.00    +0.000 A 
ATOM      8  C   UNL     1       3.088   2.607  20.574  0.00  0.00    +0.000 A 
ATOM      9  C   UNL     1       3.620   3.113  19.389  0.00  0.00    +0.000 A 
ATOM     10  C   UNL     1       3.415   4.456  18.994  0.00  0.00    +0.000 A 
BRANCH  10  11
ATOM     11  C   UNL     1       4.164   4.922  17.759  0.00  0.00    +0.000 C 
BRANCH  11  12
ATOM     12  C   UNL     1       5.493   5.596  18.010  0.00  0.00    +0.000 A 
ATOM     13  C   UNL     1       5.887   6.687  17.226  0.00  0.00    +0.000 A 
ATOM     14  C   UNL     1       7.108   7.324  17.456  0.00  0.00    +0.000 A 
ATOM     15  C   UNL     1       7.950   6.877  18.474  0.00  0.00    +0.000 A 
ATOM     16  C   UNL     1       7.563   5.804  19.273  0.00  0.00    +0.000 A 
ATOM     17  C   UNL     1       6.341   5.167  19.045  0.00  0.00    +0.000 A 
ENDBRANCH  11  12
ENDBRANCH  10  11
ENDBRANCH   2   5
BRANCH   3  18
ATOM     18  C   UNL     1       1.579   8.899  20.348  0.00  0.00    +0.000 C 
BRANCH  18  19
ATOM     19  C   UNL     1       0.868   9.469  21.523  0.00  0.00    +0.000 A 
ATOM     20  N   UNL     1       1.050   9.176  22.798  0.00  0.00    +0.000 NA
ATOM     21  N   UNL     1       0.184   9.946  23.549  0.00  0.00    +0.000 NA
ATOM     22  C   UNL     1      -0.512  10.693  22.720  0.00  0.00    +0.000 A 
ATOM     23  C   UNL     1      -1.536  11.662  22.916  0.00  0.00    +0.000 A 
ATOM     24  C   UNL     1      -2.081  12.278  21.848  0.00  0.00    +0.000 A 
ATOM     25  C   UNL     1      -1.644  11.980  20.491  0.00  0.00    +0.000 A 
ATOM     26  C   UNL     1      -0.676  11.065  20.305  0.00  0.00    +0.000 A 
ATOM     27  N   UNL     1      -0.118  10.428  21.414  0.00  0.00    +0.000 N 
ENDBRANCH  18  19
ENDBRANCH   3  18
TORSDOF 5
ENDMDL
MODEL 3
REMARK VINA RESULT:      -8.5      4.293      7.183
REMARK  Name = 
REMARK  5 active torsions:
REMARK  status: ('A' for Active; 'I' for Inactive)
REMARK    1  A    between atoms: C_2  and  C_14
REMARK    2  A    between atoms: N_3  and  C_4
REMARK    3  A    between atoms: C_4  and  C_5
REMARK    4  A    between atoms: C_19  and  C_20
REMARK    5  A    between atoms: C_20  and  C_21
REMARK                            x       y       z     vdW  Elec       q    Type
REMARK                         _______ _______ _______ _____ _____    ______ ____
ROOT
ATOM      1  O   UNL     1       5.248   3.502  19.305  0.00  0.00    +0.000 OA
ATOM      2  C   UNL     1       4.292   3.401  18.544  0.00  0.00    +0.000 C 
ATOM      3  N   UNL     1       4.460   3.415  17.170  0.00  0.00    +0.000 N 
ATOM      4  H   UNL     1       3.697   3.188  16.541  0.00  0.00    +0.000 HD
ENDROOT
BRANCH   2   5
ATOM      5  C   UNL     1       2.881   3.282  19.045  0.00  0.00    +0.000 A 
ATOM      6  C   UNL     1       2.110   2.211  18.544  0.00  0.00    +0.000 A 
ATOM      7  C   UNL     1       0.794   2.004  18.959  0.00  0.00    +0.000 A 
ATOM      8  C   UNL     1       0.225   2.859  19.889  0.00  0.00    +0.000 A 
ATOM      9  C   UNL     1       0.953   3.949  20.363  0.00  0.00    +0.000 A 
ATOM     10  C   UNL     1       2.274   4.209  19.926  0.00  0.00    +0.000 A 
BRANCH  10  11
ATOM     11  C   UNL     1       2.904   5.504  20.406  0.00  0.00    +0.000 C 
BRANCH  11  12
ATOM     12  C   UNL     1       2.600   6.731  19.579  0.00  0.00    +0.000 A 
ATOM     13  C   UNL     1       3.101   6.842  18.276  0.00  0.00    +0.000 A 
ATOM     14  C   UNL     1       2.818   7.967  17.499  0.00  0.00    +0.000 A 
ATOM     15  C   UNL     1       2.031   8.995  18.016  0.00  0.00    +0.000 A 
ATOM     16  C   UNL     1       1.512   8.891  19.304  0.00  0.00    +0.000 A 
ATOM     17  C   UNL     1       1.793   7.765  20.082  0.00  0.00    +0.000 A 
ENDBRANCH  11  12
ENDBRANCH  10  11
ENDBRANCH   2   5
BRANCH   3  18
ATOM     18  C   UNL     1       5.761   3.633  16.582  0.00  0.00    +0.000 C 
BRANCH  18  19
ATOM     19  C   UNL     1       6.037   5.086  16.424  0.00  0.00    +0.000 A 
ATOM     20  N   UNL     1       5.587   5.896  15.482  0.00  0.00    +0.000 NA
ATOM     21  N   UNL     1       6.085   7.161  15.723  0.00  0.00    +0.000 NA
ATOM     22  C   UNL     1       6.831   7.100  16.804  0.00  0.00    +0.000 A 
ATOM     23  C   UNL     1       7.587   8.075  17.515  0.00  0.00    +0.000 A 
ATOM     24  C   UNL     1       8.274   7.708  18.617  0.00  0.00    +0.000 A 
ATOM     25  C   UNL     1       8.258   6.336  19.103  0.00  0.00    +0.000 A 
ATOM     26  C   UNL     1       7.543   5.415  18.432  0.00  0.00    +0.000 A 
ATOM     27  N   UNL     1       6.837   5.799  17.291  0.00  0.00    +0.000 N 
ENDBRANCH  18  19
ENDBRANCH   3  18
TORSDOF 5
ENDMDL
MODEL 4
REMARK VINA RESULT:      -8.5      2.250      8.390
REMARK  Name = 
REMARK  5 active torsions:
REMARK  status: ('A' for Active; 'I' for Inactive)
REMARK    1  A    between atoms: C_2  and  C_14
REMARK    2  A    between atoms: N_3  and  C_4
REMARK    3  A    between atoms: C_4  and  C_5
REMARK    4  A    between atoms: C_19  and  C_20
REMARK    5  A    between atoms: C_20  and  C_21
REMARK                            x       y       z     vdW  Elec       q    Type
REMARK                         _______ _______ _______ _____ _____    ______ ____
ROOT
ATOM      1  O   UNL     1       1.532   9.237  18.912  0.00  0.00    +0.000 OA
ATOM      2  C   UNL     1       1.323   8.849  20.056  0.00  0.00    +0.000 C 
ATOM      3  N   UNL     1       1.835   7.647  20.515  0.00  0.00    +0.000 N 
ATOM      4  H   UNL     1       1.788   7.392  21.496  0.00  0.00    +0.000 HD
ENDROOT
BRANCH   2   5
ATOM      5  C   UNL     1       0.482   9.632  21.024  0.00  0.00    +0.000 A 
ATOM      6  C   UNL     1       0.334   9.099  22.323  0.00  0.00    +0.000 A 
ATOM      7  C   UNL     1      -0.413   9.758  23.300  0.00  0.00    +0.000 A 
ATOM      8  C   UNL     1      -1.020  10.967  23.001  0.00  0.00    +0.000 A 
ATOM      9  C   UNL     1      -0.924  11.489  21.711  0.00  0.00    +0.000 A 
ATOM     10  C   UNL     1      -0.211  10.820  20.689  0.00  0.00    +0.000 A 
BRANCH  10  11
ATOM     11  C   UNL     1      -0.301  11.419  19.296  0.00  0.00    +0.000 C 
BRANCH  11  12
ATOM     12  C   UNL     1      -1.557  11.095  18.521  0.00  0.00    +0.000 A 
ATOM     13  C   UNL     1      -2.741  11.796  18.777  0.00  0.00    +0.000 A 
ATOM     14  C   UNL     1      -3.905  11.511  18.059  0.00  0.00    +0.000 A 
ATOM     15  C   UNL     1      -3.898  10.523  17.077  0.00  0.00    +0.000 A 
ATOM     16  C   UNL     1      -2.722   9.829  16.799  0.00  0.00    +0.000 A 
ATOM     17  C   UNL     1      -1.557  10.114  17.516  0.00  0.00    +0.000 A 
ENDBRANCH  11  12
ENDBRANCH  10  11
ENDBRANCH   2   5
BRANCH   3  18
ATOM     18  C   UNL     1       2.565   6.765  19.635  0.00  0.00    +0.000 C 
BRANCH  18  19
ATOM     19  C   UNL     1       2.136   5.353  19.820  0.00  0.00    +0.000 A 
ATOM     20  N   UNL     1       1.261   4.882  20.690  0.00  0.00    +0.000 NA
ATOM     21  N   UNL     1       1.160   3.517  20.510  0.00  0.00    +0.000 NA
ATOM     22  C   UNL     1       1.978   3.179  19.537  0.00  0.00    +0.000 A 
ATOM     23  C   UNL     1       2.294   1.932  18.926  0.00  0.00    +0.000 A 
ATOM     24  C   UNL     1       3.199   1.892  17.927  0.00  0.00    +0.000 A 
ATOM     25  C   UNL     1       3.861   3.099  17.450  0.00  0.00    +0.000 A 
ATOM     26  C   UNL     1       3.562   4.277  18.026  0.00  0.00    +0.000 A 
ATOM     27  N   UNL     1       2.627   4.312  19.062  0.00  0.00    +0.000 N 
ENDBRANCH  18  19
ENDBRANCH   3  18
TORSDOF 5
ENDMDL
MODEL 5
REMARK VINA RESULT:      -8.4      0.588      1.012
REMARK  Name = 
REMARK  5 active torsions:
REMARK  status: ('A' for Active; 'I' for Inactive)
REMARK    1  A    between atoms: C_2  and  C_14
REMARK    2  A    between atoms: N_3  and  C_4
REMARK    3  A    between atoms: C_4  and  C_5
REMARK    4  A    between atoms: C_19  and  C_20
REMARK    5  A    between atoms: C_20  and  C_21
REMARK                            x       y       z     vdW  Elec       q    Type
REMARK                         _______ _______ _______ _____ _____    ______ ____
ROOT
ATOM      1  O   UNL     1       2.276   7.226  18.497  0.00  0.00    +0.000 OA
ATOM      2  C   UNL     1       2.052   6.738  19.599  0.00  0.00    +0.000 C 
ATOM      3  N   UNL     1       1.649   7.522  20.666  0.00  0.00    +0.000 N 
ATOM      4  H   UNL     1       1.324   7.109  21.534  0.00  0.00    +0.000 HD
ENDROOT
BRANCH   2   5
ATOM      5  C   UNL     1       2.221   5.270  19.873  0.00  0.00    +0.000 A 
ATOM      6  C   UNL     1       1.968   4.830  21.189  0.00  0.00    +0.000 A 
ATOM      7  C   UNL     1       2.082   3.485  21.542  0.00  0.00    +0.000 A 
ATOM      8  C   UNL     1       2.442   2.551  20.583  0.00  0.00    +0.000 A 
ATOM      9  C   UNL     1       2.740   2.971  19.287  0.00  0.00    +0.000 A 
ATOM     10  C   UNL     1       2.677   4.334  18.913  0.00  0.00    +0.000 A 
BRANCH  10  11
ATOM     11  C   UNL     1       3.162   4.677  17.516  0.00  0.00    +0.000 C 
BRANCH  11  12
ATOM     12  C   UNL     1       4.660   4.666  17.318  0.00  0.00    +0.000 A 
ATOM     13  C   UNL     1       5.510   5.046  18.364  0.00  0.00    +0.000 A 
ATOM     14  C   UNL     1       6.896   5.031  18.195  0.00  0.00    +0.000 A 
ATOM     15  C   UNL     1       7.449   4.634  16.978  0.00  0.00    +0.000 A 
ATOM     16  C   UNL     1       6.616   4.236  15.935  0.00  0.00    +0.000 A 
ATOM     17  C   UNL     1       5.229   4.250  16.103  0.00  0.00    +0.000 A 
ENDBRANCH  11  12
ENDBRANCH  10  11
ENDBRANCH   2   5
BRANCH   3  18
ATOM     18  C   UNL     1       1.560   8.958  20.542  0.00  0.00    +0.000 C 
BRANCH  18  19
ATOM     19  C   UNL     1       0.780   9.543  21.665  0.00  0.00    +0.000 A 
ATOM     20  N   UNL     1       0.891   9.271  22.953  0.00  0.00    +0.000 NA
ATOM     21  N   UNL     1      -0.020  10.047  23.642  0.00  0.00    +0.000 NA
ATOM     22  C   UNL     1      -0.671  10.777  22.762  0.00  0.00    +0.000 A 
ATOM     23  C   UNL     1      -1.709  11.744  22.885  0.00  0.00    +0.000 A 
ATOM     24  C   UNL     1      -2.195  12.340  21.777  0.00  0.00    +0.000 A 
ATOM     25  C   UNL     1      -1.680  12.023  20.452  0.00  0.00    +0.000 A 
ATOM     26  C   UNL     1      -0.699  11.110  20.336  0.00  0.00    +0.000 A 
ATOM     27  N   UNL     1      -0.202  10.494  21.486  0.00  0.00    +0.000 N 
ENDBRANCH  18  19
ENDBRANCH   3  18
TORSDOF 5
ENDMDL
MODEL 6
REMARK VINA RESULT:      -8.3      2.690      8.288
REMARK  Name = 
REMARK  5 active torsions:
REMARK  status: ('A' for Active; 'I' for Inactive)
REMARK    1  A    between atoms: C_2  and  C_14
REMARK    2  A    between atoms: N_3  and  C_4
REMARK    3  A    between atoms: C_4  and  C_5
REMARK    4  A    between atoms: C_19  and  C_20
REMARK    5  A    between atoms: C_20  and  C_21
REMARK                            x       y       z     vdW  Elec       q    Type
REMARK                         _______ _______ _______ _____ _____    ______ ____
ROOT
ATOM      1  O   UNL     1       1.921   9.563  18.124  0.00  0.00    +0.000 OA
ATOM      2  C   UNL     1       1.717   8.899  19.134  0.00  0.00    +0.000 C 
ATOM      3  N   UNL     1       2.194   7.605  19.255  0.00  0.00    +0.000 N 
ATOM      4  H   UNL     1       2.153   7.105  20.137  0.00  0.00    +0.000 HD
ENDROOT
BRANCH   2   5
ATOM      5  C   UNL     1       0.918   9.428  20.291  0.00  0.00    +0.000 A 
ATOM      6  C   UNL     1       0.961   8.688  21.492  0.00  0.00    +0.000 A 
ATOM      7  C   UNL     1       0.267   9.104  22.629  0.00  0.00    +0.000 A 
ATOM      8  C   UNL     1      -0.477  10.273  22.590  0.00  0.00    +0.000 A 
ATOM      9  C   UNL     1      -0.569  10.994  21.401  0.00  0.00    +0.000 A 
ATOM     10  C   UNL     1       0.087  10.572  20.221  0.00  0.00    +0.000 A 
BRANCH  10  11
ATOM     11  C   UNL     1      -0.208  11.365  18.960  0.00  0.00    +0.000 C 
BRANCH  11  12
ATOM     12  C   UNL     1      -1.532  11.072  18.293  0.00  0.00    +0.000 A 
ATOM     13  C   UNL     1      -1.629  10.047  17.344  0.00  0.00    +0.000 A 
ATOM     14  C   UNL     1      -2.850   9.762  16.728  0.00  0.00    +0.000 A 
ATOM     15  C   UNL     1      -3.988  10.497  17.055  0.00  0.00    +0.000 A 
ATOM     16  C   UNL     1      -3.910  11.508  18.010  0.00  0.00    +0.000 A 
ATOM     17  C   UNL     1      -2.689  11.794  18.628  0.00  0.00    +0.000 A 
ENDBRANCH  11  12
ENDBRANCH  10  11
ENDBRANCH   2   5
BRANCH   3  18
ATOM     18  C   UNL     1       2.880   6.960  18.159  0.00  0.00    +0.000 C 
BRANCH  18  19
ATOM     19  C   UNL     1       3.526   5.697  18.604  0.00  0.00    +0.000 A 
ATOM     20  N   UNL     1       4.775   5.524  19.000  0.00  0.00    +0.000 NA
ATOM     21  N   UNL     1       4.946   4.194  19.331  0.00  0.00    +0.000 NA
ATOM     22  C   UNL     1       3.801   3.580  19.129  0.00  0.00    +0.000 A 
ATOM     23  C   UNL     1       3.386   2.228  19.292  0.00  0.00    +0.000 A 
ATOM     24  C   UNL     1       2.117   1.882  18.993  0.00  0.00    +0.000 A 
ATOM     25  C   UNL     1       1.154   2.862  18.509  0.00  0.00    +0.000 A 
ATOM     26  C   UNL     1       1.546   4.139  18.356  0.00  0.00    +0.000 A 
ATOM     27  N   UNL     1       2.861   4.491  18.663  0.00  0.00    +0.000 N 
ENDBRANCH  18  19
ENDBRANCH   3  18
TORSDOF 5
ENDMDL
MODEL 7
REMARK VINA RESULT:      -8.3      3.904      8.633
REMARK  Name = 
REMARK  5 active torsions:
REMARK  status: ('A' for Active; 'I' for Inactive)
REMARK    1  A    between atoms: C_2  and  C_14
REMARK    2  A    between atoms: N_3  and  C_4
REMARK    3  A    between atoms: C_4  and  C_5
REMARK    4  A    between atoms: C_19  and  C_20
REMARK    5  A    between atoms: C_20  and  C_21
REMARK                            x       y       z     vdW  Elec       q    Type
REMARK                         _______ _______ _______ _____ _____    ______ ____
ROOT
ATOM      1  O   UNL     1       4.973   5.540  19.096  0.00  0.00    +0.000 OA
ATOM      2  C   UNL     1       4.132   5.855  18.262  0.00  0.00    +0.000 C 
ATOM      3  N   UNL     1       4.037   5.197  17.049  0.00  0.00    +0.000 N 
ATOM      4  H   UNL     1       3.257   5.355  16.420  0.00  0.00    +0.000 HD
ENDROOT
BRANCH   2   5
ATOM      5  C   UNL     1       3.169   6.987  18.487  0.00  0.00    +0.000 A 
ATOM      6  C   UNL     1       3.172   8.030  17.537  0.00  0.00    +0.000 A 
ATOM      7  C   UNL     1       2.305   9.118  17.648  0.00  0.00    +0.000 A 
ATOM      8  C   UNL     1       1.411   9.180  18.705  0.00  0.00    +0.000 A 
ATOM      9  C   UNL     1       1.423   8.182  19.679  0.00  0.00    +0.000 A 
ATOM     10  C   UNL     1       2.322   7.091  19.617  0.00  0.00    +0.000 A 
BRANCH  10  11
ATOM     11  C   UNL     1       2.331   6.152  20.810  0.00  0.00    +0.000 C 
BRANCH  11  12
ATOM     12  C   UNL     1       1.909   4.728  20.530  0.00  0.00    +0.000 A 
ATOM     13  C   UNL     1       2.162   3.722  21.470  0.00  0.00    +0.000 A 
ATOM     14  C   UNL     1       1.768   2.405  21.226  0.00  0.00    +0.000 A 
ATOM     15  C   UNL     1       1.113   2.079  20.039  0.00  0.00    +0.000 A 
ATOM     16  C   UNL     1       0.838   3.073  19.103  0.00  0.00    +0.000 A 
ATOM     17  C   UNL     1       1.232   4.391  19.346  0.00  0.00    +0.000 A 
ENDBRANCH  11  12
ENDBRANCH  10  11
ENDBRANCH   2   5
BRANCH   3  18
ATOM     18  C   UNL     1       4.983   4.167  16.685  0.00  0.00    +0.000 C 
BRANCH  18  19
ATOM     19  C   UNL     1       6.055   4.713  15.812  0.00  0.00    +0.000 A 
ATOM     20  N   UNL     1       7.010   5.564  16.141  0.00  0.00    +0.000 NA
ATOM     21  N   UNL     1       7.792   5.793  15.027  0.00  0.00    +0.000 NA
ATOM     22  C   UNL     1       7.300   5.080  14.038  0.00  0.00    +0.000 A 
ATOM     23  C   UNL     1       7.683   4.919  12.676  0.00  0.00    +0.000 A 
ATOM     24  C   UNL     1       6.966   4.102  11.877  0.00  0.00    +0.000 A 
ATOM     25  C   UNL     1       5.808   3.373  12.374  0.00  0.00    +0.000 A 
ATOM     26  C   UNL     1       5.447   3.524  13.661  0.00  0.00    +0.000 A 
ATOM     27  N   UNL     1       6.190   4.373  14.482  0.00  0.00    +0.000 N 
ENDBRANCH  18  19
ENDBRANCH   3  18
TORSDOF 5
ENDMDL
MODEL 8
REMARK VINA RESULT:      -8.2      4.191      8.592
REMARK  Name = 
REMARK  5 active torsions:
REMARK  status: ('A' for Active; 'I' for Inactive)
REMARK    1  A    between atoms: C_2  and  C_14
REMARK    2  A    between atoms: N_3  and  C_4
REMARK    3  A    between atoms: C_4  and  C_5
REMARK    4  A    between atoms: C_19  and  C_20
REMARK    5  A    between atoms: C_20  and  C_21
REMARK                            x       y       z     vdW  Elec       q    Type
REMARK                         _______ _______ _______ _____ _____    ______ ____
ROOT
ATOM      1  O   UNL     1       2.358   3.053  16.617  0.00  0.00    +0.000 OA
ATOM      2  C   UNL     1       3.148   3.276  17.528  0.00  0.00    +0.000 C 
ATOM      3  N   UNL     1       4.516   3.281  17.312  0.00  0.00    +0.000 N 
ATOM      4  H   UNL     1       5.162   3.605  18.024  0.00  0.00    +0.000 HD
ENDROOT
BRANCH   2   5
ATOM      5  C   UNL     1       2.691   3.532  18.937  0.00  0.00    +0.000 A 
ATOM      6  C   UNL     1       1.993   2.491  19.584  0.00  0.00    +0.000 A 
ATOM      7  C   UNL     1       1.540   2.623  20.897  0.00  0.00    +0.000 A 
ATOM      8  C   UNL     1       1.786   3.797  21.593  0.00  0.00    +0.000 A 
ATOM      9  C   UNL     1       2.435   4.854  20.957  0.00  0.00    +0.000 A 
ATOM     10  C   UNL     1       2.864   4.764  19.612  0.00  0.00    +0.000 A 
BRANCH  10  11
ATOM     11  C   UNL     1       3.428   6.031  18.994  0.00  0.00    +0.000 C 
BRANCH  11  12
ATOM     12  C   UNL     1       2.543   7.254  19.075  0.00  0.00    +0.000 A 
ATOM     13  C   UNL     1       2.294   8.019  17.930  0.00  0.00    +0.000 A 
ATOM     14  C   UNL     1       1.471   9.145  17.992  0.00  0.00    +0.000 A 
ATOM     15  C   UNL     1       0.886   9.519  19.201  0.00  0.00    +0.000 A 
ATOM     16  C   UNL     1       1.111   8.757  20.345  0.00  0.00    +0.000 A 
ATOM     17  C   UNL     1       1.934   7.629  20.284  0.00  0.00    +0.000 A 
ENDBRANCH  11  12
ENDBRANCH  10  11
ENDBRANCH   2   5
BRANCH   3  18
ATOM     18  C   UNL     1       5.066   2.940  16.021  0.00  0.00    +0.000 C 
BRANCH  18  19
ATOM     19  C   UNL     1       6.068   3.948  15.586  0.00  0.00    +0.000 A 
ATOM     20  N   UNL     1       6.725   4.812  16.339  0.00  0.00    +0.000 NA
ATOM     21  N   UNL     1       7.561   5.551  15.526  0.00  0.00    +0.000 NA
ATOM     22  C   UNL     1       7.397   5.128  14.292  0.00  0.00    +0.000 A 
ATOM     23  C   UNL     1       7.980   5.512  13.051  0.00  0.00    +0.000 A 
ATOM     24  C   UNL     1       7.603   4.886  11.918  0.00  0.00    +0.000 A 
ATOM     25  C   UNL     1       6.614   3.817  11.931  0.00  0.00    +0.000 A 
ATOM     26  C   UNL     1       6.064   3.453  13.103  0.00  0.00    +0.000 A 
ATOM     27  N   UNL     1       6.455   4.107  14.272  0.00  0.00    +0.000 N 
ENDBRANCH  18  19
ENDBRANCH   3  18
TORSDOF 5
ENDMDL
MODEL 9
REMARK VINA RESULT:      -8.1      1.674      4.410
REMARK  Name = 
REMARK  5 active torsions:
REMARK  status: ('A' for Active; 'I' for Inactive)
REMARK    1  A    between atoms: C_2  and  C_14
REMARK    2  A    between atoms: N_3  and  C_4
REMARK    3  A    between atoms: C_4  and  C_5
REMARK    4  A    between atoms: C_19  and  C_20
REMARK    5  A    between atoms: C_20  and  C_21
REMARK                            x       y       z     vdW  Elec       q    Type
REMARK                         _______ _______ _______ _____ _____    ______ ____
ROOT
ATOM      1  O   UNL     1       4.885   5.860  19.723  0.00  0.00    +0.000 OA
ATOM      2  C   UNL     1       4.226   5.913  18.691  0.00  0.00    +0.000 C 
ATOM      3  N   UNL     1       2.962   6.479  18.670  0.00  0.00    +0.000 N 
ATOM      4  H   UNL     1       2.476   6.655  17.797  0.00  0.00    +0.000 HD
ENDROOT
BRANCH   2   5
ATOM      5  C   UNL     1       4.729   5.350  17.392  0.00  0.00    +0.000 A 
ATOM      6  C   UNL     1       4.925   6.259  16.331  0.00  0.00    +0.000 A 
ATOM      7  C   UNL     1       5.404   5.838  15.090  0.00  0.00    +0.000 A 
ATOM      8  C   UNL     1       5.706   4.501  14.888  0.00  0.00    +0.000 A 
ATOM      9  C   UNL     1       5.478   3.579  15.909  0.00  0.00    +0.000 A 
ATOM     10  C   UNL     1       4.950   3.970  17.161  0.00  0.00    +0.000 A 
BRANCH  10  11
ATOM     11  C   UNL     1       4.614   2.854  18.135  0.00  0.00    +0.000 C 
BRANCH  11  12
ATOM     12  C   UNL     1       3.246   2.925  18.772  0.00  0.00    +0.000 A 
ATOM     13  C   UNL     1       2.099   2.962  17.971  0.00  0.00    +0.000 A 
ATOM     14  C   UNL     1       0.829   3.018  18.550  0.00  0.00    +0.000 A 
ATOM     15  C   UNL     1       0.692   3.038  19.937  0.00  0.00    +0.000 A 
ATOM     16  C   UNL     1       1.824   2.984  20.746  0.00  0.00    +0.000 A 
ATOM     17  C   UNL     1       3.095   2.927  20.168  0.00  0.00    +0.000 A 
ENDBRANCH  11  12
ENDBRANCH  10  11
ENDBRANCH   2   5
BRANCH   3  18
ATOM     18  C   UNL     1       2.339   6.952  19.883  0.00  0.00    +0.000 C 
BRANCH  18  19
ATOM     19  C   UNL     1       1.701   8.278  19.673  0.00  0.00    +0.000 A 
ATOM     20  N   UNL     1       1.655   8.985  18.557  0.00  0.00    +0.000 NA
ATOM     21  N   UNL     1       0.957  10.150  18.808  0.00  0.00    +0.000 NA
ATOM     22  C   UNL     1       0.592  10.134  20.072  0.00  0.00    +0.000 A 
ATOM     23  C   UNL     1      -0.136  11.053  20.880  0.00  0.00    +0.000 A 
ATOM     24  C   UNL     1      -0.359  10.762  22.178  0.00  0.00    +0.000 A 
ATOM     25  C   UNL     1       0.125   9.526  22.776  0.00  0.00    +0.000 A 
ATOM     26  C   UNL     1       0.812   8.658  22.013  0.00  0.00    +0.000 A 
ATOM     27  N   UNL     1       1.042   8.965  20.671  0.00  0.00    +0.000 N 
ENDBRANCH  18  19
ENDBRANCH   3  18
TORSDOF 5
ENDMDL
