MODEL 1
REMARK VINA RESULT:      -7.8      0.000      0.000
REMARK  Name = 
REMARK  4 active torsions:
REMARK  status: ('A' for Active; 'I' for Inactive)
REMARK    1  A    between atoms: C_2  and  C_15
REMARK    2  A    between atoms: N_3  and  C_4
REMARK    3  A    between atoms: C_7  and  C_8
REMARK    4  A    between atoms: C_20  and  C_21
REMARK                            x       y       z     vdW  Elec       q    Type
REMARK                         _______ _______ _______ _____ _____    ______ ____
ROOT
ATOM      1  O   UNL     1       4.818   6.077  19.200  0.00  0.00    +0.000 OA
ATOM      2  C   UNL     1       4.182   6.152  18.158  0.00  0.00    +0.000 C 
ATOM      3  N   UNL     1       3.047   6.898  17.898  0.00  0.00    +0.000 N 
ATOM      4  H   UNL     1       2.629   6.808  16.980  0.00  0.00    +0.000 HD
ENDROOT
BRANCH   3   5
ATOM      5  C   UNL     1       2.333   7.694  18.818  0.00  0.00    +0.000 A 
ATOM      6  C   UNL     1       2.057   7.299  20.124  0.00  0.00    +0.000 A 
ATOM      7  C   UNL     1       1.277   8.101  20.964  0.00  0.00    +0.000 A 
ATOM      8  C   UNL     1       0.753   9.320  20.516  0.00  0.00    +0.000 A 
ATOM      9  C   UNL     1       1.067   9.735  19.213  0.00  0.00    +0.000 A 
ATOM     10  C   UNL     1       1.856   8.933  18.375  0.00  0.00    +0.000 A 
BRANCH   8  11
ATOM     11  C   UNL     1      -0.120  10.129  21.378  0.00  0.00    +0.000 A 
ATOM     12  C   UNL     1      -0.379   9.955  22.769  0.00  0.00    +0.000 A 
ATOM     13  C   UNL     1      -1.274  10.937  23.107  0.00  0.00    +0.000 A 
ATOM     14  N   UNL     1      -1.501  11.633  21.961  0.00  0.00    +0.000 N 
ATOM     15  N   UNL     1      -0.812  11.182  20.906  0.00  0.00    +0.000 NA
ATOM     16  H   UNL     1      -2.117  12.428  21.825  0.00  0.00    +0.000 HD
ENDBRANCH   8  11
ENDBRANCH   3   5
BRANCH   2  17
ATOM     17  C   UNL     1       4.679   5.367  17.004  0.00  0.00    +0.000 A 
ATOM     18  C   UNL     1       5.462   6.040  16.049  0.00  0.00    +0.000 A 
ATOM     19  C   UNL     1       6.037   5.343  14.990  0.00  0.00    +0.000 A 
ATOM     20  C   UNL     1       5.863   3.967  14.893  0.00  0.00    +0.000 A 
ATOM     21  C   UNL     1       5.087   3.294  15.838  0.00  0.00    +0.000 A 
ATOM     22  C   UNL     1       4.459   3.984  16.897  0.00  0.00    +0.000 A 
BRANCH  22  23
ATOM     23  C   UNL     1       3.572   3.183  17.820  0.00  0.00    +0.000 C 
ATOM     24  F   UNL     1       3.814   3.294  19.150  0.00  0.00    +0.000 F 
ATOM     25  F   UNL     1       2.264   3.575  17.682  0.00  0.00    +0.000 F 
ATOM     26  F   UNL     1       3.571   1.854  17.525  0.00  0.00    +0.000 F 
ENDBRANCH  22  23
ENDBRANCH   2  17
TORSDOF 4
ENDMDL
MODEL 2
REMARK VINA RESULT:      -7.8      0.806      1.488
REMARK  Name = 
REMARK  4 active torsions:
REMARK  status: ('A' for Active; 'I' for Inactive)
REMARK    1  A    between atoms: C_2  and  C_15
REMARK    2  A    between atoms: N_3  and  C_4
REMARK    3  A    between atoms: C_7  and  C_8
REMARK    4  A    between atoms: C_20  and  C_21
REMARK                            x       y       z     vdW  Elec       q    Type
REMARK                         _______ _______ _______ _____ _____    ______ ____
ROOT
ATOM      1  O   UNL     1       4.724   5.893  19.320  0.00  0.00    +0.000 OA
ATOM      2  C   UNL     1       4.222   6.030  18.213  0.00  0.00    +0.000 C 
ATOM      3  N   UNL     1       3.128   6.798  17.856  0.00  0.00    +0.000 N 
ATOM      4  H   UNL     1       2.827   6.762  16.890  0.00  0.00    +0.000 HD
ENDROOT
BRANCH   3   5
ATOM      5  C   UNL     1       2.304   7.545  18.724  0.00  0.00    +0.000 A 
ATOM      6  C   UNL     1       1.786   8.797  18.403  0.00  0.00    +0.000 A 
ATOM      7  C   UNL     1       1.039   9.523  19.338  0.00  0.00    +0.000 A 
ATOM      8  C   UNL     1       0.791   9.011  20.618  0.00  0.00    +0.000 A 
ATOM      9  C   UNL     1       1.280   7.732  20.923  0.00  0.00    +0.000 A 
ATOM     10  C   UNL     1       2.022   7.003  19.983  0.00  0.00    +0.000 A 
BRANCH   8  11
ATOM     11  C   UNL     1       0.062   9.802  21.619  0.00  0.00    +0.000 A 
ATOM     12  C   UNL     1      -0.196  11.204  21.605  0.00  0.00    +0.000 A 
ATOM     13  C   UNL     1      -0.882  11.468  22.763  0.00  0.00    +0.000 A 
ATOM     14  N   UNL     1      -1.008  10.269  23.392  0.00  0.00    +0.000 N 
ATOM     15  N   UNL     1      -0.463   9.245  22.725  0.00  0.00    +0.000 NA
ATOM     16  H   UNL     1      -1.454  10.076  24.283  0.00  0.00    +0.000 HD
ENDBRANCH   8  11
ENDBRANCH   3   5
BRANCH   2  17
ATOM     17  C   UNL     1       4.859   5.308  17.086  0.00  0.00    +0.000 A 
ATOM     18  C   UNL     1       5.651   6.058  16.198  0.00  0.00    +0.000 A 
ATOM     19  C   UNL     1       6.352   5.426  15.175  0.00  0.00    +0.000 A 
ATOM     20  C   UNL     1       6.293   4.043  15.047  0.00  0.00    +0.000 A 
ATOM     21  C   UNL     1       5.508   3.294  15.926  0.00  0.00    +0.000 A 
ATOM     22  C   UNL     1       4.756   3.915  16.946  0.00  0.00    +0.000 A 
BRANCH  22  23
ATOM     23  C   UNL     1       3.872   3.030  17.793  0.00  0.00    +0.000 C 
ATOM     24  F   UNL     1       2.550   3.336  17.823  0.00  0.00    +0.000 F 
ATOM     25  F   UNL     1       3.907   1.739  17.332  0.00  0.00    +0.000 F 
ATOM     26  F   UNL     1       4.291   2.952  19.086  0.00  0.00    +0.000 F 
ENDBRANCH  22  23
ENDBRANCH   2  17
TORSDOF 4
ENDMDL
MODEL 3
REMARK VINA RESULT:      -7.8      2.267      2.969
REMARK  Name = 
REMARK  4 active torsions:
REMARK  status: ('A' for Active; 'I' for Inactive)
REMARK    1  A    between atoms: C_2  and  C_15
REMARK    2  A    between atoms: N_3  and  C_4
REMARK    3  A    between atoms: C_7  and  C_8
REMARK    4  A    between atoms: C_20  and  C_21
REMARK                            x       y       z     vdW  Elec       q    Type
REMARK                         _______ _______ _______ _____ _____    ______ ____
ROOT
ATOM      1  O   UNL     1       4.642   5.544  19.478  0.00  0.00    +0.000 OA
ATOM      2  C   UNL     1       4.364   5.893  18.339  0.00  0.00    +0.000 C 
ATOM      3  N   UNL     1       3.424   6.823  17.932  0.00  0.00    +0.000 N 
ATOM      4  H   UNL     1       3.302   6.959  16.936  0.00  0.00    +0.000 HD
ENDROOT
BRANCH   3   5
ATOM      5  C   UNL     1       2.525   7.529  18.758  0.00  0.00    +0.000 A 
ATOM      6  C   UNL     1       1.967   8.757  18.413  0.00  0.00    +0.000 A 
ATOM      7  C   UNL     1       1.141   9.444  19.310  0.00  0.00    +0.000 A 
ATOM      8  C   UNL     1       0.853   8.917  20.575  0.00  0.00    +0.000 A 
ATOM      9  C   UNL     1       1.383   7.660  20.903  0.00  0.00    +0.000 A 
ATOM     10  C   UNL     1       2.205   6.970  20.000  0.00  0.00    +0.000 A 
BRANCH   8  11
ATOM     11  C   UNL     1       0.039   9.670  21.539  0.00  0.00    +0.000 A 
ATOM     12  C   UNL     1      -0.456  11.001  21.413  0.00  0.00    +0.000 A 
ATOM     13  C   UNL     1      -1.131  11.260  22.578  0.00  0.00    +0.000 A 
ATOM     14  N   UNL     1      -1.025  10.125  23.319  0.00  0.00    +0.000 N 
ATOM     15  N   UNL     1      -0.339   9.145  22.718  0.00  0.00    +0.000 NA
ATOM     16  H   UNL     1      -1.395   9.949  24.248  0.00  0.00    +0.000 HD
ENDBRANCH   8  11
ENDBRANCH   3   5
BRANCH   2  17
ATOM     17  C   UNL     1       5.130   5.270  17.234  0.00  0.00    +0.000 A 
ATOM     18  C   UNL     1       4.565   4.146  16.605  0.00  0.00    +0.000 A 
ATOM     19  C   UNL     1       5.187   3.569  15.501  0.00  0.00    +0.000 A 
ATOM     20  C   UNL     1       6.357   4.126  14.998  0.00  0.00    +0.000 A 
ATOM     21  C   UNL     1       6.922   5.241  15.619  0.00  0.00    +0.000 A 
ATOM     22  C   UNL     1       6.333   5.819  16.764  0.00  0.00    +0.000 A 
BRANCH  22  23
ATOM     23  C   UNL     1       7.063   6.970  17.415  0.00  0.00    +0.000 C 
ATOM     24  F   UNL     1       6.351   8.106  17.623  0.00  0.00    +0.000 F 
ATOM     25  F   UNL     1       7.499   6.612  18.665  0.00  0.00    +0.000 F 
ATOM     26  F   UNL     1       8.190   7.327  16.740  0.00  0.00    +0.000 F 
ENDBRANCH  22  23
ENDBRANCH   2  17
TORSDOF 4
ENDMDL
MODEL 4
REMARK VINA RESULT:      -7.7      0.446      1.338
REMARK  Name = 
REMARK  4 active torsions:
REMARK  status: ('A' for Active; 'I' for Inactive)
REMARK    1  A    between atoms: C_2  and  C_15
REMARK    2  A    between atoms: N_3  and  C_4
REMARK    3  A    between atoms: C_7  and  C_8
REMARK    4  A    between atoms: C_20  and  C_21
REMARK                            x       y       z     vdW  Elec       q    Type
REMARK                         _______ _______ _______ _____ _____    ______ ____
ROOT
ATOM      1  O   UNL     1       4.823   5.969  19.149  0.00  0.00    +0.000 OA
ATOM      2  C   UNL     1       4.263   6.042  18.064  0.00  0.00    +0.000 C 
ATOM      3  N   UNL     1       3.138   6.773  17.727  0.00  0.00    +0.000 N 
ATOM      4  H   UNL     1       2.789   6.684  16.780  0.00  0.00    +0.000 HD
ENDROOT
BRANCH   3   5
ATOM      5  C   UNL     1       2.346   7.550  18.597  0.00  0.00    +0.000 A 
ATOM      6  C   UNL     1       1.855   8.811  18.271  0.00  0.00    +0.000 A 
ATOM      7  C   UNL     1       1.139   9.565  19.208  0.00  0.00    +0.000 A 
ATOM      8  C   UNL     1       0.896   9.072  20.496  0.00  0.00    +0.000 A 
ATOM      9  C   UNL     1       1.357   7.784  20.809  0.00  0.00    +0.000 A 
ATOM     10  C   UNL     1       2.067   7.028  19.866  0.00  0.00    +0.000 A 
BRANCH   8  11
ATOM     11  C   UNL     1       0.202   9.891  21.499  0.00  0.00    +0.000 A 
ATOM     12  C   UNL     1      -0.440   9.452  22.694  0.00  0.00    +0.000 A 
ATOM     13  C   UNL     1      -0.960  10.581  23.274  0.00  0.00    +0.000 A 
ATOM     14  N   UNL     1      -0.620  11.605  22.446  0.00  0.00    +0.000 N 
ATOM     15  N   UNL     1       0.090  11.226  21.377  0.00  0.00    +0.000 NA
ATOM     16  H   UNL     1      -0.842  12.590  22.548  0.00  0.00    +0.000 HD
ENDBRANCH   8  11
ENDBRANCH   3   5
BRANCH   2  17
ATOM     17  C   UNL     1       4.855   5.275  16.943  0.00  0.00    +0.000 A 
ATOM     18  C   UNL     1       5.597   5.990  15.986  0.00  0.00    +0.000 A 
ATOM     19  C   UNL     1       6.257   5.319  14.960  0.00  0.00    +0.000 A 
ATOM     20  C   UNL     1       6.209   3.931  14.899  0.00  0.00    +0.000 A 
ATOM     21  C   UNL     1       5.474   3.216  15.846  0.00  0.00    +0.000 A 
ATOM     22  C   UNL     1       4.762   3.876  16.871  0.00  0.00    +0.000 A 
BRANCH  22  23
ATOM     23  C   UNL     1       3.928   3.023  17.798  0.00  0.00    +0.000 C 
ATOM     24  F   UNL     1       3.830   1.705  17.493  0.00  0.00    +0.000 F 
ATOM     25  F   UNL     1       4.457   3.037  19.063  0.00  0.00    +0.000 F 
ATOM     26  F   UNL     1       2.659   3.493  17.944  0.00  0.00    +0.000 F 
ENDBRANCH  22  23
ENDBRANCH   2  17
TORSDOF 4
ENDMDL
MODEL 5
REMARK VINA RESULT:      -7.7      0.991      1.074
REMARK  Name = 
REMARK  4 active torsions:
REMARK  status: ('A' for Active; 'I' for Inactive)
REMARK    1  A    between atoms: C_2  and  C_15
REMARK    2  A    between atoms: N_3  and  C_4
REMARK    3  A    between atoms: C_7  and  C_8
REMARK    4  A    between atoms: C_20  and  C_21
REMARK                            x       y       z     vdW  Elec       q    Type
REMARK                         _______ _______ _______ _____ _____    ______ ____
ROOT
ATOM      1  O   UNL     1       3.879   5.877  19.677  0.00  0.00    +0.000 OA
ATOM      2  C   UNL     1       3.566   6.260  18.558  0.00  0.00    +0.000 C 
ATOM      3  N   UNL     1       2.726   7.303  18.213  0.00  0.00    +0.000 N 
ATOM      4  H   UNL     1       2.550   7.455  17.227  0.00  0.00    +0.000 HD
ENDROOT
BRANCH   3   5
ATOM      5  C   UNL     1       1.986   8.117  19.095  0.00  0.00    +0.000 A 
ATOM      6  C   UNL     1       1.716   7.771  20.417  0.00  0.00    +0.000 A 
ATOM      7  C   UNL     1       0.910   8.587  21.219  0.00  0.00    +0.000 A 
ATOM      8  C   UNL     1       0.356   9.771  20.717  0.00  0.00    +0.000 A 
ATOM      9  C   UNL     1       0.664  10.138  19.399  0.00  0.00    +0.000 A 
ATOM     10  C   UNL     1       1.477   9.323  18.598  0.00  0.00    +0.000 A 
BRANCH   8  11
ATOM     11  C   UNL     1      -0.542  10.592  21.541  0.00  0.00    +0.000 A 
ATOM     12  C   UNL     1      -1.260  11.761  21.153  0.00  0.00    +0.000 A 
ATOM     13  C   UNL     1      -1.931  12.176  22.274  0.00  0.00    +0.000 A 
ATOM     14  N   UNL     1      -1.610  11.278  23.243  0.00  0.00    +0.000 N 
ATOM     15  N   UNL     1      -0.788  10.305  22.832  0.00  0.00    +0.000 NA
ATOM     16  H   UNL     1      -1.916  11.268  24.211  0.00  0.00    +0.000 HD
ENDBRANCH   8  11
ENDBRANCH   3   5
BRANCH   2  17
ATOM     17  C   UNL     1       4.164   5.545  17.406  0.00  0.00    +0.000 A 
ATOM     18  C   UNL     1       5.176   6.205  16.686  0.00  0.00    +0.000 A 
ATOM     19  C   UNL     1       5.844   5.555  15.652  0.00  0.00    +0.000 A 
ATOM     20  C   UNL     1       5.530   4.235  15.349  0.00  0.00    +0.000 A 
ATOM     21  C   UNL     1       4.526   3.576  16.060  0.00  0.00    +0.000 A 
ATOM     22  C   UNL     1       3.807   4.226  17.085  0.00  0.00    +0.000 A 
BRANCH  22  23
ATOM     23  C   UNL     1       2.683   3.459  17.740  0.00  0.00    +0.000 C 
ATOM     24  F   UNL     1       2.801   3.215  19.069  0.00  0.00    +0.000 F 
ATOM     25  F   UNL     1       1.504   4.152  17.630  0.00  0.00    +0.000 F 
ATOM     26  F   UNL     1       2.442   2.262  17.136  0.00  0.00    +0.000 F 
ENDBRANCH  22  23
ENDBRANCH   2  17
TORSDOF 4
ENDMDL
MODEL 6
REMARK VINA RESULT:      -7.5      1.222      1.839
REMARK  Name = 
REMARK  4 active torsions:
REMARK  status: ('A' for Active; 'I' for Inactive)
REMARK    1  A    between atoms: C_2  and  C_15
REMARK    2  A    between atoms: N_3  and  C_4
REMARK    3  A    between atoms: C_7  and  C_8
REMARK    4  A    between atoms: C_20  and  C_21
REMARK                            x       y       z     vdW  Elec       q    Type
REMARK                         _______ _______ _______ _____ _____    ______ ____
ROOT
ATOM      1  O   UNL     1       3.167   6.014  19.808  0.00  0.00    +0.000 OA
ATOM      2  C   UNL     1       3.208   6.509  18.690  0.00  0.00    +0.000 C 
ATOM      3  N   UNL     1       2.605   7.671  18.244  0.00  0.00    +0.000 N 
ATOM      4  H   UNL     1       2.717   7.911  17.267  0.00  0.00    +0.000 HD
ENDROOT
BRANCH   3   5
ATOM      5  C   UNL     1       1.745   8.511  18.982  0.00  0.00    +0.000 A 
ATOM      6  C   UNL     1       1.059   9.588  18.427  0.00  0.00    +0.000 A 
ATOM      7  C   UNL     1       0.281  10.431  19.229  0.00  0.00    +0.000 A 
ATOM      8  C   UNL     1       0.169  10.213  20.608  0.00  0.00    +0.000 A 
ATOM      9  C   UNL     1       0.828   9.103  21.157  0.00  0.00    +0.000 A 
ATOM     10  C   UNL     1       1.601   8.256  20.351  0.00  0.00    +0.000 A 
BRANCH   8  11
ATOM     11  C   UNL     1      -0.595  11.137  21.458  0.00  0.00    +0.000 A 
ATOM     12  C   UNL     1      -1.542  12.120  21.048  0.00  0.00    +0.000 A 
ATOM     13  C   UNL     1      -1.958  12.740  22.199  0.00  0.00    +0.000 A 
ATOM     14  N   UNL     1      -1.280  12.127  23.207  0.00  0.00    +0.000 N 
ATOM     15  N   UNL     1      -0.463  11.150  22.797  0.00  0.00    +0.000 NA
ATOM     16  H   UNL     1      -1.326  12.327  24.201  0.00  0.00    +0.000 HD
ENDBRANCH   8  11
ENDBRANCH   3   5
BRANCH   2  17
ATOM     17  C   UNL     1       4.015   5.804  17.667  0.00  0.00    +0.000 A 
ATOM     18  C   UNL     1       5.155   6.462  17.171  0.00  0.00    +0.000 A 
ATOM     19  C   UNL     1       6.008   5.819  16.278  0.00  0.00    +0.000 A 
ATOM     20  C   UNL     1       5.748   4.508  15.897  0.00  0.00    +0.000 A 
ATOM     21  C   UNL     1       4.618   3.850  16.385  0.00  0.00    +0.000 A 
ATOM     22  C   UNL     1       3.716   4.494  17.259  0.00  0.00    +0.000 A 
BRANCH  22  23
ATOM     23  C   UNL     1       2.478   3.731  17.667  0.00  0.00    +0.000 C 
ATOM     24  F   UNL     1       1.290   4.367  17.516  0.00  0.00    +0.000 F 
ATOM     25  F   UNL     1       2.349   2.594  16.911  0.00  0.00    +0.000 F 
ATOM     26  F   UNL     1       2.532   3.291  18.954  0.00  0.00    +0.000 F 
ENDBRANCH  22  23
ENDBRANCH   2  17
TORSDOF 4
ENDMDL
MODEL 7
REMARK VINA RESULT:      -7.5      0.703      1.206
REMARK  Name = 
REMARK  4 active torsions:
REMARK  status: ('A' for Active; 'I' for Inactive)
REMARK    1  A    between atoms: C_2  and  C_15
REMARK    2  A    between atoms: N_3  and  C_4
REMARK    3  A    between atoms: C_7  and  C_8
REMARK    4  A    between atoms: C_20  and  C_21
REMARK                            x       y       z     vdW  Elec       q    Type
REMARK                         _______ _______ _______ _____ _____    ______ ____
ROOT
ATOM      1  O   UNL     1       3.886   5.870  19.596  0.00  0.00    +0.000 OA
ATOM      2  C   UNL     1       3.670   6.215  18.443  0.00  0.00    +0.000 C 
ATOM      3  N   UNL     1       2.867   7.247  17.992  0.00  0.00    +0.000 N 
ATOM      4  H   UNL     1       2.776   7.366  16.991  0.00  0.00    +0.000 HD
ENDROOT
BRANCH   3   5
ATOM      5  C   UNL     1       2.061   8.094  18.781  0.00  0.00    +0.000 A 
ATOM      6  C   UNL     1       1.506   9.282  18.314  0.00  0.00    +0.000 A 
ATOM      7  C   UNL     1       0.778  10.117  19.170  0.00  0.00    +0.000 A 
ATOM      8  C   UNL     1       0.587   9.780  20.516  0.00  0.00    +0.000 A 
ATOM      9  C   UNL     1       1.111   8.562  20.973  0.00  0.00    +0.000 A 
ATOM     10  C   UNL     1       1.834   7.723  20.112  0.00  0.00    +0.000 A 
BRANCH   8  11
ATOM     11  C   UNL     1      -0.122  10.689  21.428  0.00  0.00    +0.000 A 
ATOM     12  C   UNL     1      -0.697  10.381  22.695  0.00  0.00    +0.000 A 
ATOM     13  C   UNL     1      -1.264  11.548  23.140  0.00  0.00    +0.000 A 
ATOM     14  N   UNL     1      -1.011  12.468  22.170  0.00  0.00    +0.000 N 
ATOM     15  N   UNL     1      -0.315  11.987  21.133  0.00  0.00    +0.000 NA
ATOM     16  H   UNL     1      -1.287  13.444  22.149  0.00  0.00    +0.000 HD
ENDBRANCH   8  11
ENDBRANCH   3   5
BRANCH   2  17
ATOM     17  C   UNL     1       4.359   5.460  17.370  0.00  0.00    +0.000 A 
ATOM     18  C   UNL     1       5.443   6.084  16.729  0.00  0.00    +0.000 A 
ATOM     19  C   UNL     1       6.192   5.395  15.778  0.00  0.00    +0.000 A 
ATOM     20  C   UNL     1       5.885   4.072  15.484  0.00  0.00    +0.000 A 
ATOM     21  C   UNL     1       4.810   3.447  16.117  0.00  0.00    +0.000 A 
ATOM     22  C   UNL     1       4.011   4.137  17.054  0.00  0.00    +0.000 A 
BRANCH  22  23
ATOM     23  C   UNL     1       2.819   3.404  17.623  0.00  0.00    +0.000 C 
ATOM     24  F   UNL     1       2.840   3.143  18.954  0.00  0.00    +0.000 F 
ATOM     25  F   UNL     1       1.676   4.141  17.443  0.00  0.00    +0.000 F 
ATOM     26  F   UNL     1       2.577   2.223  16.991  0.00  0.00    +0.000 F 
ENDBRANCH  22  23
ENDBRANCH   2  17
TORSDOF 4
ENDMDL
MODEL 8
REMARK VINA RESULT:      -7.5      1.095      1.449
REMARK  Name = 
REMARK  4 active torsions:
REMARK  status: ('A' for Active; 'I' for Inactive)
REMARK    1  A    between atoms: C_2  and  C_15
REMARK    2  A    between atoms: N_3  and  C_4
REMARK    3  A    between atoms: C_7  and  C_8
REMARK    4  A    between atoms: C_20  and  C_21
REMARK                            x       y       z     vdW  Elec       q    Type
REMARK                         _______ _______ _______ _____ _____    ______ ____
ROOT
ATOM      1  O   UNL     1       2.930   5.779  19.940  0.00  0.00    +0.000 OA
ATOM      2  C   UNL     1       3.065   6.393  18.891  0.00  0.00    +0.000 C 
ATOM      3  N   UNL     1       2.599   7.654  18.568  0.00  0.00    +0.000 N 
ATOM      4  H   UNL     1       2.775   7.992  17.630  0.00  0.00    +0.000 HD
ENDROOT
BRANCH   3   5
ATOM      5  C   UNL     1       1.795   8.487  19.375  0.00  0.00    +0.000 A 
ATOM      6  C   UNL     1       1.525   8.229  20.716  0.00  0.00    +0.000 A 
ATOM      7  C   UNL     1       0.657   9.053  21.442  0.00  0.00    +0.000 A 
ATOM      8  C   UNL     1       0.040  10.157  20.841  0.00  0.00    +0.000 A 
ATOM      9  C   UNL     1       0.346  10.438  19.502  0.00  0.00    +0.000 A 
ATOM     10  C   UNL     1       1.222   9.616  18.778  0.00  0.00    +0.000 A 
BRANCH   8  11
ATOM     11  C   UNL     1      -0.922  10.982  21.587  0.00  0.00    +0.000 A 
ATOM     12  C   UNL     1      -1.199  10.952  22.985  0.00  0.00    +0.000 A 
ATOM     13  C   UNL     1      -2.184  11.884  23.190  0.00  0.00    +0.000 A 
ATOM     14  N   UNL     1      -2.441  12.416  21.965  0.00  0.00    +0.000 N 
ATOM     15  N   UNL     1      -1.690  11.906  20.982  0.00  0.00    +0.000 NA
ATOM     16  H   UNL     1      -3.120  13.132  21.725  0.00  0.00    +0.000 HD
ENDBRANCH   8  11
ENDBRANCH   3   5
BRANCH   2  17
ATOM     17  C   UNL     1       3.841   5.732  17.815  0.00  0.00    +0.000 A 
ATOM     18  C   UNL     1       4.935   6.433  17.277  0.00  0.00    +0.000 A 
ATOM     19  C   UNL     1       5.761   5.832  16.331  0.00  0.00    +0.000 A 
ATOM     20  C   UNL     1       5.522   4.521  15.938  0.00  0.00    +0.000 A 
ATOM     21  C   UNL     1       4.437   3.820  16.468  0.00  0.00    +0.000 A 
ATOM     22  C   UNL     1       3.562   4.420  17.398  0.00  0.00    +0.000 A 
BRANCH  22  23
ATOM     23  C   UNL     1       2.369   3.612  17.851  0.00  0.00    +0.000 C 
ATOM     24  F   UNL     1       1.156   4.214  17.770  0.00  0.00    +0.000 F 
ATOM     25  F   UNL     1       2.237   2.484  17.082  0.00  0.00    +0.000 F 
ATOM     26  F   UNL     1       2.499   3.153  19.126  0.00  0.00    +0.000 F 
ENDBRANCH  22  23
ENDBRANCH   2  17
TORSDOF 4
ENDMDL
MODEL 9
REMARK VINA RESULT:      -7.5      2.013      2.610
REMARK  Name = 
REMARK  4 active torsions:
REMARK  status: ('A' for Active; 'I' for Inactive)
REMARK    1  A    between atoms: C_2  and  C_15
REMARK    2  A    between atoms: N_3  and  C_4
REMARK    3  A    between atoms: C_7  and  C_8
REMARK    4  A    between atoms: C_20  and  C_21
REMARK                            x       y       z     vdW  Elec       q    Type
REMARK                         _______ _______ _______ _____ _____    ______ ____
ROOT
ATOM      1  O   UNL     1       5.268   8.038  17.442  0.00  0.00    +0.000 OA
ATOM      2  C   UNL     1       4.736   6.939  17.359  0.00  0.00    +0.000 C 
ATOM      3  N   UNL     1       3.510   6.540  17.860  0.00  0.00    +0.000 N 
ATOM      4  H   UNL     1       3.244   5.572  17.727  0.00  0.00    +0.000 HD
ENDROOT
BRANCH   3   5
ATOM      5  C   UNL     1       2.628   7.312  18.644  0.00  0.00    +0.000 A 
ATOM      6  C   UNL     1       2.076   8.518  18.219  0.00  0.00    +0.000 A 
ATOM      7  C   UNL     1       1.268   9.276  19.074  0.00  0.00    +0.000 A 
ATOM      8  C   UNL     1       0.992   8.843  20.377  0.00  0.00    +0.000 A 
ATOM      9  C   UNL     1       1.516   7.609  20.788  0.00  0.00    +0.000 A 
ATOM     10  C   UNL     1       2.319   6.847  19.927  0.00  0.00    +0.000 A 
BRANCH   8  11
ATOM     11  C   UNL     1       0.198   9.673  21.295  0.00  0.00    +0.000 A 
ATOM     12  C   UNL     1      -0.091   9.424  22.668  0.00  0.00    +0.000 A 
ATOM     13  C   UNL     1      -0.885  10.465  23.077  0.00  0.00    +0.000 A 
ATOM     14  N   UNL     1      -1.027  11.263  21.985  0.00  0.00    +0.000 N 
ATOM     15  N   UNL     1      -0.378  10.823  20.901  0.00  0.00    +0.000 NA
ATOM     16  H   UNL     1      -1.557  12.126  21.907  0.00  0.00    +0.000 HD
ENDBRANCH   8  11
ENDBRANCH   3   5
BRANCH   2  17
ATOM     17  C   UNL     1       5.468   5.887  16.616  0.00  0.00    +0.000 A 
ATOM     18  C   UNL     1       4.957   5.500  15.364  0.00  0.00    +0.000 A 
ATOM     19  C   UNL     1       5.647   4.585  14.574  0.00  0.00    +0.000 A 
ATOM     20  C   UNL     1       6.864   4.074  15.010  0.00  0.00    +0.000 A 
ATOM     21  C   UNL     1       7.375   4.454  16.252  0.00  0.00    +0.000 A 
ATOM     22  C   UNL     1       6.675   5.348  17.090  0.00  0.00    +0.000 A 
BRANCH  22  23
ATOM     23  C   UNL     1       7.267   5.634  18.450  0.00  0.00    +0.000 C 
ATOM     24  F   UNL     1       8.279   4.828  18.858  0.00  0.00    +0.000 F 
ATOM     25  F   UNL     1       7.807   6.894  18.479  0.00  0.00    +0.000 F 
ATOM     26  F   UNL     1       6.333   5.630  19.440  0.00  0.00    +0.000 F 
ENDBRANCH  22  23
ENDBRANCH   2  17
TORSDOF 4
ENDMDL
