MODEL 1
REMARK VINA RESULT:      -8.6      0.000      0.000
REMARK  Name = 
REMARK  7 active torsions:
REMARK  status: ('A' for Active; 'I' for Inactive)
REMARK    1  A    between atoms: C_1  and  C_2
REMARK    2  A    between atoms: C_5  and  N_6
REMARK    3  A    between atoms: N_6  and  S_7
REMARK    4  A    between atoms: S_7  and  C_10
REMARK    5  A    between atoms: C_13  and  N_14
REMARK    6  A    between atoms: N_17  and  C_18
REMARK    7  A    between atoms: C_27  and  C_28
REMARK                            x       y       z     vdW  Elec       q    Type
REMARK                         _______ _______ _______ _____ _____    ______ ____
ROOT
ATOM      1  C   UNL     1       6.544   5.663  17.419  0.00  0.00    +0.000 A 
ATOM      2  C   UNL     1       6.440   6.947  16.888  0.00  0.00    +0.000 A 
ATOM      3  C   UNL     1       7.236   7.974  17.396  0.00  0.00    +0.000 A 
ATOM      4  C   UNL     1       8.118   7.757  18.461  0.00  0.00    +0.000 A 
ATOM      5  C   UNL     1       8.194   6.465  19.007  0.00  0.00    +0.000 A 
ATOM      6  C   UNL     1       7.412   5.417  18.485  0.00  0.00    +0.000 A 
ENDROOT
BRANCH   4   7
ATOM      7  N   UNL     1       8.946   8.773  19.005  0.00  0.00    +0.000 N 
ATOM      8  C   UNL     1       9.017  10.083  18.552  0.00  0.00    +0.000 C 
ATOM      9  O   UNL     1       8.279  10.561  17.693  0.00  0.00    +0.000 OA
ATOM     10  N   UNL     1      10.059  10.796  19.127  0.00  0.00    +0.000 N 
ATOM     11  H   UNL     1       9.441   8.567  19.859  0.00  0.00    +0.000 HD
ATOM     12  H   UNL     1      10.875  10.243  19.347  0.00  0.00    +0.000 HD
BRANCH  10  13
ATOM     13  C   UNL     1      10.301  12.135  18.726  0.00  0.00    +0.000 A 
ATOM     14  C   UNL     1       9.661  13.215  19.354  0.00  0.00    +0.000 A 
ATOM     15  C   UNL     1       9.829  14.515  18.874  0.00  0.00    +0.000 A 
ATOM     16  C   UNL     1      10.628  14.731  17.761  0.00  0.00    +0.000 A 
ATOM     17  F   UNL     1      10.760  15.971  17.273  0.00  0.00    +0.000 F 
ATOM     18  C   UNL     1      11.289  13.677  17.143  0.00  0.00    +0.000 A 
ATOM     19  C   UNL     1      11.144  12.377  17.638  0.00  0.00    +0.000 A 
ENDBRANCH  10  13
ENDBRANCH   4   7
BRANCH   1  20
ATOM     20  S   UNL     1       5.523   4.372  16.721  0.00  0.00    +0.000 S 
ATOM     21  O   UNL     1       6.368   3.651  15.794  0.00  0.00    +0.000 OA
ATOM     22  O   UNL     1       4.270   4.967  16.321  0.00  0.00    +0.000 OA
BRANCH  20  23
ATOM     23  N   UNL     1       5.255   3.391  18.094  0.00  0.00    +0.000 N 
ATOM     24  H   UNL     1       5.241   2.412  17.828  0.00  0.00    +0.000 HD
BRANCH  23  29
ATOM     25  C   UNL     1       0.734   3.752  20.279  0.00  0.00    +0.000 C 
ATOM     26  C   UNL     1       2.135   3.936  19.821  0.00  0.00    +0.000 A 
ATOM     27  N   UNL     1       2.892   4.891  20.367  0.00  0.00    +0.000 NA
ATOM     28  O   UNL     1       4.109   4.821  19.716  0.00  0.00    +0.000 OA
ATOM     29  C   UNL     1       4.096   3.797  18.818  0.00  0.00    +0.000 A 
ATOM     30  C   UNL     1       2.846   3.203  18.826  0.00  0.00    +0.000 A 
ATOM     31  C   UNL     1       2.296   2.111  17.989  0.00  0.00    +0.000 C 
ENDBRANCH  23  29
ENDBRANCH  20  23
ENDBRANCH   1  20
TORSDOF 5
ENDMDL
MODEL 2
REMARK VINA RESULT:      -8.5      5.602      8.191
REMARK  Name = 
REMARK  7 active torsions:
REMARK  status: ('A' for Active; 'I' for Inactive)
REMARK    1  A    between atoms: C_1  and  C_2
REMARK    2  A    between atoms: C_5  and  N_6
REMARK    3  A    between atoms: N_6  and  S_7
REMARK    4  A    between atoms: S_7  and  C_10
REMARK    5  A    between atoms: C_13  and  N_14
REMARK    6  A    between atoms: N_17  and  C_18
REMARK    7  A    between atoms: C_27  and  C_28
REMARK                            x       y       z     vdW  Elec       q    Type
REMARK                         _______ _______ _______ _____ _____    ______ ____
ROOT
ATOM      1  C   UNL     1       2.286   4.488  18.873  0.00  0.00    +0.000 A 
ATOM      2  C   UNL     1       2.465   5.676  18.167  0.00  0.00    +0.000 A 
ATOM      3  C   UNL     1       2.345   6.900  18.827  0.00  0.00    +0.000 A 
ATOM      4  C   UNL     1       2.008   6.969  20.183  0.00  0.00    +0.000 A 
ATOM      5  C   UNL     1       1.802   5.766  20.878  0.00  0.00    +0.000 A 
ATOM      6  C   UNL     1       1.944   4.526  20.227  0.00  0.00    +0.000 A 
ENDROOT
BRANCH   4   7
ATOM      7  N   UNL     1       1.878   8.192  20.891  0.00  0.00    +0.000 N 
ATOM      8  C   UNL     1       0.686   8.860  21.132  0.00  0.00    +0.000 C 
ATOM      9  O   UNL     1      -0.427   8.413  20.865  0.00  0.00    +0.000 OA
ATOM     10  N   UNL     1       0.878  10.130  21.657  0.00  0.00    +0.000 N 
ATOM     11  H   UNL     1       2.697   8.553  21.355  0.00  0.00    +0.000 HD
ATOM     12  H   UNL     1       1.716  10.594  21.339  0.00  0.00    +0.000 HD
BRANCH  10  13
ATOM     13  C   UNL     1      -0.242  10.965  21.908  0.00  0.00    +0.000 A 
ATOM     14  C   UNL     1      -0.986  10.857  23.093  0.00  0.00    +0.000 A 
ATOM     15  C   UNL     1      -2.147  11.610  23.273  0.00  0.00    +0.000 A 
ATOM     16  C   UNL     1      -2.568  12.463  22.262  0.00  0.00    +0.000 A 
ATOM     17  F   UNL     1      -3.703  13.158  22.413  0.00  0.00    +0.000 F 
ATOM     18  C   UNL     1      -1.829  12.601  21.093  0.00  0.00    +0.000 A 
ATOM     19  C   UNL     1      -0.651  11.866  20.922  0.00  0.00    +0.000 A 
ENDBRANCH  10  13
ENDBRANCH   4   7
BRANCH   1  20
ATOM     20  S   UNL     1       2.474   2.943  17.994  0.00  0.00    +0.000 S 
ATOM     21  O   UNL     1       2.492   3.282  16.588  0.00  0.00    +0.000 OA
ATOM     22  O   UNL     1       1.530   2.002  18.549  0.00  0.00    +0.000 OA
BRANCH  20  23
ATOM     23  N   UNL     1       4.051   2.488  18.468  0.00  0.00    +0.000 N 
ATOM     24  H   UNL     1       4.019   1.959  19.333  0.00  0.00    +0.000 HD
BRANCH  23  29
ATOM     25  C   UNL     1       6.986   6.454  17.461  0.00  0.00    +0.000 C 
ATOM     26  C   UNL     1       6.176   5.379  18.092  0.00  0.00    +0.000 A 
ATOM     27  N   UNL     1       5.981   5.383  19.413  0.00  0.00    +0.000 NA
ATOM     28  O   UNL     1       5.227   4.257  19.683  0.00  0.00    +0.000 OA
ATOM     29  C   UNL     1       4.932   3.609  18.523  0.00  0.00    +0.000 A 
ATOM     30  C   UNL     1       5.532   4.271  17.467  0.00  0.00    +0.000 A 
ATOM     31  C   UNL     1       5.584   3.933  16.025  0.00  0.00    +0.000 C 
ENDBRANCH  23  29
ENDBRANCH  20  23
ENDBRANCH   1  20
TORSDOF 5
ENDMDL
MODEL 3
REMARK VINA RESULT:      -8.5      0.301      1.321
REMARK  Name = 
REMARK  7 active torsions:
REMARK  status: ('A' for Active; 'I' for Inactive)
REMARK    1  A    between atoms: C_1  and  C_2
REMARK    2  A    between atoms: C_5  and  N_6
REMARK    3  A    between atoms: N_6  and  S_7
REMARK    4  A    between atoms: S_7  and  C_10
REMARK    5  A    between atoms: C_13  and  N_14
REMARK    6  A    between atoms: N_17  and  C_18
REMARK    7  A    between atoms: C_27  and  C_28
REMARK                            x       y       z     vdW  Elec       q    Type
REMARK                         _______ _______ _______ _____ _____    ______ ____
ROOT
ATOM      1  C   UNL     1       6.623   5.810  17.533  0.00  0.00    +0.000 A 
ATOM      2  C   UNL     1       7.477   5.562  18.604  0.00  0.00    +0.000 A 
ATOM      3  C   UNL     1       8.273   6.591  19.110  0.00  0.00    +0.000 A 
ATOM      4  C   UNL     1       8.265   7.869  18.539  0.00  0.00    +0.000 A 
ATOM      5  C   UNL     1       7.420   8.100  17.441  0.00  0.00    +0.000 A 
ATOM      6  C   UNL     1       6.596   7.074  16.939  0.00  0.00    +0.000 A 
ENDROOT
BRANCH   4   7
ATOM      7  N   UNL     1       9.056   8.942  19.024  0.00  0.00    +0.000 N 
ATOM      8  C   UNL     1       9.029  10.244  18.544  0.00  0.00    +0.000 C 
ATOM      9  O   UNL     1       8.225  10.661  17.713  0.00  0.00    +0.000 OA
ATOM     10  N   UNL     1      10.053  11.028  19.054  0.00  0.00    +0.000 N 
ATOM     11  H   UNL     1       9.602   8.783  19.856  0.00  0.00    +0.000 HD
ATOM     12  H   UNL     1      10.910  10.528  19.245  0.00  0.00    +0.000 HD
BRANCH  10  13
ATOM     13  C   UNL     1      10.197  12.371  18.618  0.00  0.00    +0.000 A 
ATOM     14  C   UNL     1      10.914  12.691  17.456  0.00  0.00    +0.000 A 
ATOM     15  C   UNL     1      11.136  14.024  17.105  0.00  0.00    +0.000 A 
ATOM     16  C   UNL     1      10.648  15.034  17.922  0.00  0.00    +0.000 A 
ATOM     17  F   UNL     1      10.894  16.313  17.611  0.00  0.00    +0.000 F 
ATOM     18  C   UNL     1       9.915  14.734  19.064  0.00  0.00    +0.000 A 
ATOM     19  C   UNL     1       9.668  13.399  19.403  0.00  0.00    +0.000 A 
ENDBRANCH  10  13
ENDBRANCH   4   7
BRANCH   1  20
ATOM     20  S   UNL     1       5.603   4.469  16.933  0.00  0.00    +0.000 S 
ATOM     21  O   UNL     1       6.415   3.744  15.981  0.00  0.00    +0.000 OA
ATOM     22  O   UNL     1       4.312   5.017  16.589  0.00  0.00    +0.000 OA
BRANCH  20  23
ATOM     23  N   UNL     1       5.443   3.524  18.347  0.00  0.00    +0.000 N 
ATOM     24  H   UNL     1       5.566   2.542  18.128  0.00  0.00    +0.000 HD
BRANCH  23  29
ATOM     25  C   UNL     1       0.884   3.356  20.478  0.00  0.00    +0.000 C 
ATOM     26  C   UNL     1       2.249   3.714  20.017  0.00  0.00    +0.000 A 
ATOM     27  N   UNL     1       2.849   4.806  20.499  0.00  0.00    +0.000 NA
ATOM     28  O   UNL     1       4.072   4.874  19.860  0.00  0.00    +0.000 OA
ATOM     29  C   UNL     1       4.224   3.802  19.036  0.00  0.00    +0.000 A 
ATOM     30  C   UNL     1       3.077   3.030  19.078  0.00  0.00    +0.000 A 
ATOM     31  C   UNL     1       2.708   1.814  18.316  0.00  0.00    +0.000 C 
ENDBRANCH  23  29
ENDBRANCH  20  23
ENDBRANCH   1  20
TORSDOF 5
ENDMDL
MODEL 4
REMARK VINA RESULT:      -8.4      1.282      1.796
REMARK  Name = 
REMARK  7 active torsions:
REMARK  status: ('A' for Active; 'I' for Inactive)
REMARK    1  A    between atoms: C_1  and  C_2
REMARK    2  A    between atoms: C_5  and  N_6
REMARK    3  A    between atoms: N_6  and  S_7
REMARK    4  A    between atoms: S_7  and  C_10
REMARK    5  A    between atoms: C_13  and  N_14
REMARK    6  A    between atoms: N_17  and  C_18
REMARK    7  A    between atoms: C_27  and  C_28
REMARK                            x       y       z     vdW  Elec       q    Type
REMARK                         _______ _______ _______ _____ _____    ______ ____
ROOT
ATOM      1  C   UNL     1       6.372   5.374  17.342  0.00  0.00    +0.000 A 
ATOM      2  C   UNL     1       7.134   5.097  18.474  0.00  0.00    +0.000 A 
ATOM      3  C   UNL     1       7.929   6.096  19.038  0.00  0.00    +0.000 A 
ATOM      4  C   UNL     1       8.012   7.371  18.468  0.00  0.00    +0.000 A 
ATOM      5  C   UNL     1       7.261   7.631  17.311  0.00  0.00    +0.000 A 
ATOM      6  C   UNL     1       6.438   6.637  16.748  0.00  0.00    +0.000 A 
ENDROOT
BRANCH   4   7
ATOM      7  N   UNL     1       8.806   8.415  19.011  0.00  0.00    +0.000 N 
ATOM      8  C   UNL     1       8.805   9.735  18.582  0.00  0.00    +0.000 C 
ATOM      9  O   UNL     1       8.023  10.194  17.752  0.00  0.00    +0.000 OA
ATOM     10  N   UNL     1       9.827  10.485  19.144  0.00  0.00    +0.000 N 
ATOM     11  H   UNL     1       9.332   8.216  19.847  0.00  0.00    +0.000 HD
ATOM     12  H   UNL     1      10.673   9.967  19.332  0.00  0.00    +0.000 HD
BRANCH  10  13
ATOM     13  C   UNL     1       9.996  11.842  18.764  0.00  0.00    +0.000 A 
ATOM     14  C   UNL     1       9.317  12.877  19.423  0.00  0.00    +0.000 A 
ATOM     15  C   UNL     1       9.412  14.193  18.965  0.00  0.00    +0.000 A 
ATOM     16  C   UNL     1      10.179  14.467  17.841  0.00  0.00    +0.000 A 
ATOM     17  F   UNL     1      10.241  15.720  17.374  0.00  0.00    +0.000 F 
ATOM     18  C   UNL     1      10.878  13.457  17.191  0.00  0.00    +0.000 A 
ATOM     19  C   UNL     1      10.805  12.143  17.665  0.00  0.00    +0.000 A 
ENDBRANCH  10  13
ENDBRANCH   4   7
BRANCH   1  20
ATOM     20  S   UNL     1       5.349   4.072  16.668  0.00  0.00    +0.000 S 
ATOM     21  O   UNL     1       5.269   3.055  17.693  0.00  0.00    +0.000 OA
ATOM     22  O   UNL     1       5.820   3.787  15.333  0.00  0.00    +0.000 OA
BRANCH  20  23
ATOM     23  N   UNL     1       3.839   4.865  16.564  0.00  0.00    +0.000 N 
ATOM     24  H   UNL     1       3.962   5.867  16.657  0.00  0.00    +0.000 HD
BRANCH  23  29
ATOM     25  C   UNL     1       0.828   3.908  20.484  0.00  0.00    +0.000 C 
ATOM     26  C   UNL     1       1.532   3.932  19.177  0.00  0.00    +0.000 A 
ATOM     27  N   UNL     1       1.097   3.164  18.173  0.00  0.00    +0.000 NA
ATOM     28  O   UNL     1       1.968   3.391  17.125  0.00  0.00    +0.000 OA
ATOM     29  C   UNL     1       2.892   4.324  17.483  0.00  0.00    +0.000 A 
ATOM     30  C   UNL     1       2.676   4.695  18.798  0.00  0.00    +0.000 A 
ATOM     31  C   UNL     1       3.442   5.609  19.678  0.00  0.00    +0.000 C 
ENDBRANCH  23  29
ENDBRANCH  20  23
ENDBRANCH   1  20
TORSDOF 5
ENDMDL
MODEL 5
REMARK VINA RESULT:      -8.4      5.589      8.346
REMARK  Name = 
REMARK  7 active torsions:
REMARK  status: ('A' for Active; 'I' for Inactive)
REMARK    1  A    between atoms: C_1  and  C_2
REMARK    2  A    between atoms: C_5  and  N_6
REMARK    3  A    between atoms: N_6  and  S_7
REMARK    4  A    between atoms: S_7  and  C_10
REMARK    5  A    between atoms: C_13  and  N_14
REMARK    6  A    between atoms: N_17  and  C_18
REMARK    7  A    between atoms: C_27  and  C_28
REMARK                            x       y       z     vdW  Elec       q    Type
REMARK                         _______ _______ _______ _____ _____    ______ ____
ROOT
ATOM      1  C   UNL     1       2.363   4.488  18.872  0.00  0.00    +0.000 A 
ATOM      2  C   UNL     1       2.403   5.684  18.159  0.00  0.00    +0.000 A 
ATOM      3  C   UNL     1       2.239   6.897  18.830  0.00  0.00    +0.000 A 
ATOM      4  C   UNL     1       1.993   6.943  20.207  0.00  0.00    +0.000 A 
ATOM      5  C   UNL     1       1.927   5.730  20.910  0.00  0.00    +0.000 A 
ATOM      6  C   UNL     1       2.116   4.502  20.247  0.00  0.00    +0.000 A 
ENDROOT
BRANCH   4   7
ATOM      7  N   UNL     1       1.822   8.155  20.926  0.00  0.00    +0.000 N 
ATOM      8  C   UNL     1       0.616   8.814  21.119  0.00  0.00    +0.000 C 
ATOM      9  O   UNL     1      -0.480   8.366  20.790  0.00  0.00    +0.000 OA
ATOM     10  N   UNL     1       0.775  10.076  21.672  0.00  0.00    +0.000 N 
ATOM     11  H   UNL     1       2.615   8.512  21.435  0.00  0.00    +0.000 HD
ATOM     12  H   UNL     1       1.626  10.549  21.401  0.00  0.00    +0.000 HD
BRANCH  10  13
ATOM     13  C   UNL     1      -0.360  10.901  21.880  0.00  0.00    +0.000 A 
ATOM     14  C   UNL     1      -0.743  11.873  20.943  0.00  0.00    +0.000 A 
ATOM     15  C   UNL     1      -1.796  12.747  21.217  0.00  0.00    +0.000 A 
ATOM     16  C   UNL     1      -2.459  12.654  22.433  0.00  0.00    +0.000 A 
ATOM     17  F   UNL     1      -3.443  13.516  22.717  0.00  0.00    +0.000 F 
ATOM     18  C   UNL     1      -2.109  11.682  23.362  0.00  0.00    +0.000 A 
ATOM     19  C   UNL     1      -1.071  10.787  23.078  0.00  0.00    +0.000 A 
ENDBRANCH  10  13
ENDBRANCH   4   7
BRANCH   1  20
ATOM     20  S   UNL     1       2.604   2.959  17.977  0.00  0.00    +0.000 S 
ATOM     21  O   UNL     1       2.274   3.246  16.598  0.00  0.00    +0.000 OA
ATOM     22  O   UNL     1       1.957   1.905  18.722  0.00  0.00    +0.000 OA
BRANCH  20  23
ATOM     23  N   UNL     1       4.297   2.768  18.107  0.00  0.00    +0.000 N 
ATOM     24  H   UNL     1       4.563   2.651  19.078  0.00  0.00    +0.000 HD
BRANCH  23  29
ATOM     25  C   UNL     1       7.251   6.661  16.896  0.00  0.00    +0.000 C 
ATOM     26  C   UNL     1       6.335   5.492  16.905  0.00  0.00    +0.000 A 
ATOM     27  N   UNL     1       5.953   4.938  15.751  0.00  0.00    +0.000 NA
ATOM     28  O   UNL     1       5.095   3.911  16.096  0.00  0.00    +0.000 OA
ATOM     29  C   UNL     1       5.001   3.821  17.450  0.00  0.00    +0.000 A 
ATOM     30  C   UNL     1       5.760   4.824  18.026  0.00  0.00    +0.000 A 
ATOM     31  C   UNL     1       5.930   5.205  19.448  0.00  0.00    +0.000 C 
ENDBRANCH  23  29
ENDBRANCH  20  23
ENDBRANCH   1  20
TORSDOF 5
ENDMDL
MODEL 6
REMARK VINA RESULT:      -8.4      5.868      8.493
REMARK  Name = 
REMARK  7 active torsions:
REMARK  status: ('A' for Active; 'I' for Inactive)
REMARK    1  A    between atoms: C_1  and  C_2
REMARK    2  A    between atoms: C_5  and  N_6
REMARK    3  A    between atoms: N_6  and  S_7
REMARK    4  A    between atoms: S_7  and  C_10
REMARK    5  A    between atoms: C_13  and  N_14
REMARK    6  A    between atoms: N_17  and  C_18
REMARK    7  A    between atoms: C_27  and  C_28
REMARK                            x       y       z     vdW  Elec       q    Type
REMARK                         _______ _______ _______ _____ _____    ______ ____
ROOT
ATOM      1  C   UNL     1       2.390   4.988  18.946  0.00  0.00    +0.000 A 
ATOM      2  C   UNL     1       2.126   5.184  20.299  0.00  0.00    +0.000 A 
ATOM      3  C   UNL     1       1.890   6.473  20.780  0.00  0.00    +0.000 A 
ATOM      4  C   UNL     1       1.948   7.589  19.939  0.00  0.00    +0.000 A 
ATOM      5  C   UNL     1       2.242   7.382  18.582  0.00  0.00    +0.000 A 
ATOM      6  C   UNL     1       2.459   6.084  18.082  0.00  0.00    +0.000 A 
ENDROOT
BRANCH   4   7
ATOM      7  N   UNL     1       1.712   8.915  20.388  0.00  0.00    +0.000 N 
ATOM      8  C   UNL     1       0.511   9.392  20.894  0.00  0.00    +0.000 C 
ATOM      9  O   UNL     1      -0.471   8.691  21.128  0.00  0.00    +0.000 OA
ATOM     10  N   UNL     1       0.503  10.770  21.053  0.00  0.00    +0.000 N 
ATOM     11  H   UNL     1       2.504   9.535  20.453  0.00  0.00    +0.000 HD
ATOM     12  H   UNL     1       1.056  11.274  20.375  0.00  0.00    +0.000 HD
BRANCH  10  13
ATOM     13  C   UNL     1      -0.673  11.420  21.509  0.00  0.00    +0.000 A 
ATOM     14  C   UNL     1      -1.082  11.339  22.849  0.00  0.00    +0.000 A 
ATOM     15  C   UNL     1      -2.298  11.894  23.254  0.00  0.00    +0.000 A 
ATOM     16  C   UNL     1      -3.106  12.518  22.315  0.00  0.00    +0.000 A 
ATOM     17  F   UNL     1      -4.292  13.016  22.690  0.00  0.00    +0.000 F 
ATOM     18  C   UNL     1      -2.705  12.628  20.989  0.00  0.00    +0.000 A 
ATOM     19  C   UNL     1      -1.475  12.097  20.587  0.00  0.00    +0.000 A 
ENDBRANCH  10  13
ENDBRANCH   4   7
BRANCH   1  20
ATOM     20  S   UNL     1       2.662   3.318  18.368  0.00  0.00    +0.000 S 
ATOM     21  O   UNL     1       1.451   2.932  17.676  0.00  0.00    +0.000 OA
ATOM     22  O   UNL     1       3.200   2.553  19.467  0.00  0.00    +0.000 OA
BRANCH  20  23
ATOM     23  N   UNL     1       3.896   3.570  17.213  0.00  0.00    +0.000 N 
ATOM     24  H   UNL     1       4.119   2.700  16.743  0.00  0.00    +0.000 HD
BRANCH  23  29
ATOM     25  C   UNL     1       7.692   6.667  18.374  0.00  0.00    +0.000 C 
ATOM     26  C   UNL     1       6.666   5.594  18.330  0.00  0.00    +0.000 A 
ATOM     27  N   UNL     1       6.539   4.754  19.361  0.00  0.00    +0.000 NA
ATOM     28  O   UNL     1       5.537   3.873  19.003  0.00  0.00    +0.000 OA
ATOM     29  C   UNL     1       5.034   4.212  17.785  0.00  0.00    +0.000 A 
ATOM     30  C   UNL     1       5.734   5.300  17.292  0.00  0.00    +0.000 A 
ATOM     31  C   UNL     1       5.632   5.998  15.989  0.00  0.00    +0.000 C 
ENDBRANCH  23  29
ENDBRANCH  20  23
ENDBRANCH   1  20
TORSDOF 5
ENDMDL
MODEL 7
REMARK VINA RESULT:      -8.4      1.032      1.801
REMARK  Name = 
REMARK  7 active torsions:
REMARK  status: ('A' for Active; 'I' for Inactive)
REMARK    1  A    between atoms: C_1  and  C_2
REMARK    2  A    between atoms: C_5  and  N_6
REMARK    3  A    between atoms: N_6  and  S_7
REMARK    4  A    between atoms: S_7  and  C_10
REMARK    5  A    between atoms: C_13  and  N_14
REMARK    6  A    between atoms: N_17  and  C_18
REMARK    7  A    between atoms: C_27  and  C_28
REMARK                            x       y       z     vdW  Elec       q    Type
REMARK                         _______ _______ _______ _____ _____    ______ ____
ROOT
ATOM      1  C   UNL     1       6.600   5.779  17.552  0.00  0.00    +0.000 A 
ATOM      2  C   UNL     1       7.421   5.544  18.652  0.00  0.00    +0.000 A 
ATOM      3  C   UNL     1       8.222   6.570  19.153  0.00  0.00    +0.000 A 
ATOM      4  C   UNL     1       8.254   7.833  18.549  0.00  0.00    +0.000 A 
ATOM      5  C   UNL     1       7.444   8.051  17.423  0.00  0.00    +0.000 A 
ATOM      6  C   UNL     1       6.614   7.028  16.925  0.00  0.00    +0.000 A 
ENDROOT
BRANCH   4   7
ATOM      7  N   UNL     1       9.054   8.904  19.027  0.00  0.00    +0.000 N 
ATOM      8  C   UNL     1       9.031  10.204  18.543  0.00  0.00    +0.000 C 
ATOM      9  O   UNL     1       8.226  10.623  17.715  0.00  0.00    +0.000 OA
ATOM     10  N   UNL     1      10.062  10.984  19.047  0.00  0.00    +0.000 N 
ATOM     11  H   UNL     1       9.602   8.744  19.857  0.00  0.00    +0.000 HD
ATOM     12  H   UNL     1      10.916  10.480  19.236  0.00  0.00    +0.000 HD
BRANCH  10  13
ATOM     13  C   UNL     1      10.211  12.325  18.607  0.00  0.00    +0.000 A 
ATOM     14  C   UNL     1      10.921  12.638  17.438  0.00  0.00    +0.000 A 
ATOM     15  C   UNL     1      11.149  13.968  17.081  0.00  0.00    +0.000 A 
ATOM     16  C   UNL     1      10.674  14.983  17.900  0.00  0.00    +0.000 A 
ATOM     17  F   UNL     1      10.925  16.259  17.583  0.00  0.00    +0.000 F 
ATOM     18  C   UNL     1       9.947  14.690  19.048  0.00  0.00    +0.000 A 
ATOM     19  C   UNL     1       9.695  13.358  19.393  0.00  0.00    +0.000 A 
ENDBRANCH  10  13
ENDBRANCH   4   7
BRANCH   1  20
ATOM     20  S   UNL     1       5.571   4.443  16.960  0.00  0.00    +0.000 S 
ATOM     21  O   UNL     1       6.362   3.732  15.979  0.00  0.00    +0.000 OA
ATOM     22  O   UNL     1       4.271   4.990  16.652  0.00  0.00    +0.000 OA
BRANCH  20  23
ATOM     23  N   UNL     1       5.447   3.479  18.365  0.00  0.00    +0.000 N 
ATOM     24  H   UNL     1       6.127   2.728  18.336  0.00  0.00    +0.000 HD
BRANCH  23  29
ATOM     25  C   UNL     1       0.594   2.982  19.611  0.00  0.00    +0.000 C 
ATOM     26  C   UNL     1       1.971   2.824  19.077  0.00  0.00    +0.000 A 
ATOM     27  N   UNL     1       2.249   1.818  18.242  0.00  0.00    +0.000 NA
ATOM     28  O   UNL     1       3.596   1.931  17.958  0.00  0.00    +0.000 OA
ATOM     29  C   UNL     1       4.112   3.026  18.581  0.00  0.00    +0.000 A 
ATOM     30  C   UNL     1       3.119   3.629  19.332  0.00  0.00    +0.000 A 
ATOM     31  C   UNL     1       3.181   4.793  20.248  0.00  0.00    +0.000 C 
ENDBRANCH  23  29
ENDBRANCH  20  23
ENDBRANCH   1  20
TORSDOF 5
ENDMDL
MODEL 8
REMARK VINA RESULT:      -8.3      5.766      8.458
REMARK  Name = 
REMARK  7 active torsions:
REMARK  status: ('A' for Active; 'I' for Inactive)
REMARK    1  A    between atoms: C_1  and  C_2
REMARK    2  A    between atoms: C_5  and  N_6
REMARK    3  A    between atoms: N_6  and  S_7
REMARK    4  A    between atoms: S_7  and  C_10
REMARK    5  A    between atoms: C_13  and  N_14
REMARK    6  A    between atoms: N_17  and  C_18
REMARK    7  A    between atoms: C_27  and  C_28
REMARK                            x       y       z     vdW  Elec       q    Type
REMARK                         _______ _______ _______ _____ _____    ______ ____
ROOT
ATOM      1  C   UNL     1       2.509   4.782  19.015  0.00  0.00    +0.000 A 
ATOM      2  C   UNL     1       2.443   5.833  18.103  0.00  0.00    +0.000 A 
ATOM      3  C   UNL     1       2.194   7.130  18.556  0.00  0.00    +0.000 A 
ATOM      4  C   UNL     1       1.968   7.401  19.910  0.00  0.00    +0.000 A 
ATOM      5  C   UNL     1       2.009   6.329  20.817  0.00  0.00    +0.000 A 
ATOM      6  C   UNL     1       2.283   5.021  20.373  0.00  0.00    +0.000 A 
ENDROOT
BRANCH   4   7
ATOM      7  N   UNL     1       1.714   8.704  20.411  0.00  0.00    +0.000 N 
ATOM      8  C   UNL     1       0.491   9.162  20.880  0.00  0.00    +0.000 C 
ATOM      9  O   UNL     1      -0.503   8.456  21.033  0.00  0.00    +0.000 OA
ATOM     10  N   UNL     1       0.479  10.531  21.106  0.00  0.00    +0.000 N 
ATOM     11  H   UNL     1       2.503   9.316  20.544  0.00  0.00    +0.000 HD
ATOM     12  H   UNL     1       1.066  11.064  20.480  0.00  0.00    +0.000 HD
BRANCH  10  13
ATOM     13  C   UNL     1      -0.716  11.164  21.535  0.00  0.00    +0.000 A 
ATOM     14  C   UNL     1      -1.486  11.946  20.662  0.00  0.00    +0.000 A 
ATOM     15  C   UNL     1      -2.598  12.648  21.131  0.00  0.00    +0.000 A 
ATOM     16  C   UNL     1      -2.930  12.574  22.476  0.00  0.00    +0.000 A 
ATOM     17  F   UNL     1      -3.971  13.278  22.939  0.00  0.00    +0.000 F 
ATOM     18  C   UNL     1      -2.193  11.785  23.350  0.00  0.00    +0.000 A 
ATOM     19  C   UNL     1      -1.094  11.059  22.877  0.00  0.00    +0.000 A 
ENDBRANCH  10  13
ENDBRANCH   4   7
BRANCH   1  20
ATOM     20  S   UNL     1       2.854   3.142  18.395  0.00  0.00    +0.000 S 
ATOM     21  O   UNL     1       1.648   2.704  17.727  0.00  0.00    +0.000 OA
ATOM     22  O   UNL     1       3.462   2.385  19.464  0.00  0.00    +0.000 OA
BRANCH  20  23
ATOM     23  N   UNL     1       4.041   3.483  17.214  0.00  0.00    +0.000 N 
ATOM     24  H   UNL     1       4.304   2.634  16.726  0.00  0.00    +0.000 HD
BRANCH  23  29
ATOM     25  C   UNL     1       7.709   6.760  18.294  0.00  0.00    +0.000 C 
ATOM     26  C   UNL     1       6.728   5.644  18.277  0.00  0.00    +0.000 A 
ATOM     27  N   UNL     1       6.640   4.821  19.326  0.00  0.00    +0.000 NA
ATOM     28  O   UNL     1       5.674   3.892  18.991  0.00  0.00    +0.000 OA
ATOM     29  C   UNL     1       5.154   4.184  17.768  0.00  0.00    +0.000 A 
ATOM     30  C   UNL     1       5.806   5.288  17.249  0.00  0.00    +0.000 A 
ATOM     31  C   UNL     1       5.671   5.954  15.932  0.00  0.00    +0.000 C 
ENDBRANCH  23  29
ENDBRANCH  20  23
ENDBRANCH   1  20
TORSDOF 5
ENDMDL
MODEL 9
REMARK VINA RESULT:      -8.3      1.316      1.802
REMARK  Name = 
REMARK  7 active torsions:
REMARK  status: ('A' for Active; 'I' for Inactive)
REMARK    1  A    between atoms: C_1  and  C_2
REMARK    2  A    between atoms: C_5  and  N_6
REMARK    3  A    between atoms: N_6  and  S_7
REMARK    4  A    between atoms: S_7  and  C_10
REMARK    5  A    between atoms: C_13  and  N_14
REMARK    6  A    between atoms: N_17  and  C_18
REMARK    7  A    between atoms: C_27  and  C_28
REMARK                            x       y       z     vdW  Elec       q    Type
REMARK                         _______ _______ _______ _____ _____    ______ ____
ROOT
ATOM      1  C   UNL     1       6.306   5.253  17.289  0.00  0.00    +0.000 A 
ATOM      2  C   UNL     1       6.130   6.563  16.850  0.00  0.00    +0.000 A 
ATOM      3  C   UNL     1       6.931   7.582  17.367  0.00  0.00    +0.000 A 
ATOM      4  C   UNL     1       7.891   7.327  18.354  0.00  0.00    +0.000 A 
ATOM      5  C   UNL     1       8.041   6.007  18.809  0.00  0.00    +0.000 A 
ATOM      6  C   UNL     1       7.254   4.969  18.276  0.00  0.00    +0.000 A 
ENDROOT
BRANCH   4   7
ATOM      7  N   UNL     1       8.727   8.334  18.903  0.00  0.00    +0.000 N 
ATOM      8  C   UNL     1       8.720   9.673  18.540  0.00  0.00    +0.000 C 
ATOM      9  O   UNL     1       7.902  10.181  17.777  0.00  0.00    +0.000 OA
ATOM     10  N   UNL     1       9.781  10.383  19.082  0.00  0.00    +0.000 N 
ATOM     11  H   UNL     1       9.294   8.088  19.699  0.00  0.00    +0.000 HD
ATOM     12  H   UNL     1      10.629   9.847  19.199  0.00  0.00    +0.000 HD
BRANCH  10  13
ATOM     13  C   UNL     1       9.948  11.755  18.761  0.00  0.00    +0.000 A 
ATOM     14  C   UNL     1      10.545  12.159  17.557  0.00  0.00    +0.000 A 
ATOM     15  C   UNL     1      10.798  13.509  17.309  0.00  0.00    +0.000 A 
ATOM     16  C   UNL     1      10.464  14.452  18.270  0.00  0.00    +0.000 A 
ATOM     17  F   UNL     1      10.742  15.744  18.054  0.00  0.00    +0.000 F 
ATOM     18  C   UNL     1       9.850  14.072  19.457  0.00  0.00    +0.000 A 
ATOM     19  C   UNL     1       9.571  12.722  19.697  0.00  0.00    +0.000 A 
ENDBRANCH  10  13
ENDBRANCH   4   7
BRANCH   1  20
ATOM     20  S   UNL     1       5.275   3.975  16.582  0.00  0.00    +0.000 S 
ATOM     21  O   UNL     1       5.223   2.914  17.564  0.00  0.00    +0.000 OA
ATOM     22  O   UNL     1       5.717   3.751  15.226  0.00  0.00    +0.000 OA
BRANCH  20  23
ATOM     23  N   UNL     1       3.759   4.762  16.546  0.00  0.00    +0.000 N 
ATOM     24  H   UNL     1       3.881   5.763  16.655  0.00  0.00    +0.000 HD
BRANCH  23  29
ATOM     25  C   UNL     1       0.918   3.687  20.562  0.00  0.00    +0.000 C 
ATOM     26  C   UNL     1       1.560   3.756  19.224  0.00  0.00    +0.000 A 
ATOM     27  N   UNL     1       1.064   3.040  18.211  0.00  0.00    +0.000 NA
ATOM     28  O   UNL     1       1.889   3.297  17.133  0.00  0.00    +0.000 OA
ATOM     29  C   UNL     1       2.846   4.198  17.486  0.00  0.00    +0.000 A 
ATOM     30  C   UNL     1       2.698   4.516  18.824  0.00  0.00    +0.000 A 
ATOM     31  C   UNL     1       3.522   5.378  19.704  0.00  0.00    +0.000 C 
ENDBRANCH  23  29
ENDBRANCH  20  23
ENDBRANCH   1  20
TORSDOF 5
ENDMDL
