MODEL 1
REMARK VINA RESULT:      -7.6      0.000      0.000
REMARK  Name = 
REMARK  10 active torsions:
REMARK  status: ('A' for Active; 'I' for Inactive)
REMARK    1  A    between atoms: C_1  and  C_2
REMARK    2  A    between atoms: C_2  and  C_3
REMARK    3  A    between atoms: C_3  and  C_4
REMARK    4  A    between atoms: C_4  and  C_5
REMARK    5  A    between atoms: C_6  and  C_7
REMARK    6  A    between atoms: N_10  and  C_11
REMARK    7  A    between atoms: C_15  and  C_16
REMARK    8  A    between atoms: C_16  and  C_17
REMARK    9  A    between atoms: C_17  and  C_18
REMARK   10  A    between atoms: N_22  and  C_23
REMARK                            x       y       z     vdW  Elec       q    Type
REMARK                         _______ _______ _______ _____ _____    ______ ____
ROOT
ATOM      1  C   UNL     1       3.248   5.427  18.974  0.00  0.00    +0.000 A 
ATOM      2  C   UNL     1       2.990   4.453  19.935  0.00  0.00    +0.000 A 
ATOM      3  C   UNL     1       2.096   4.703  20.961  0.00  0.00    +0.000 A 
ATOM      4  C   UNL     1       1.457   5.938  21.047  0.00  0.00    +0.000 A 
ATOM      5  C   UNL     1       1.722   6.962  20.109  0.00  0.00    +0.000 A 
ATOM      6  C   UNL     1       2.545   6.626  19.036  0.00  0.00    +0.000 A 
ENDROOT
BRANCH   1  10
ATOM      7  C   UNL     1       5.593   4.559  16.282  0.00  0.00    +0.000 C 
ATOM      8  C   UNL     1       6.164   5.619  16.840  0.00  0.00    +0.000 C 
ATOM      9  C   UNL     1       5.420   6.153  18.005  0.00  0.00    +0.000 C 
ATOM     10  N   UNL     1       4.269   5.283  18.022  0.00  0.00    +0.000 N 
ATOM     11  C   UNL     1       4.374   4.273  17.077  0.00  0.00    +0.000 C 
ATOM     12  O   UNL     1       3.618   3.322  16.878  0.00  0.00    +0.000 OA
BRANCH   7  14
ATOM     13  C   UNL     1       5.879   4.341  13.855  0.00  0.00    +0.000 C 
ATOM     14  C   UNL     1       6.014   3.854  15.102  0.00  0.00    +0.000 C 
BRANCH  13  15
ATOM     15  C   UNL     1       6.361   3.611  12.633  0.00  0.00    +0.000 C 
BRANCH  15  16
ATOM     16  C   UNL     1       5.225   2.854  11.941  0.00  0.00    +0.000 C 
BRANCH  16  18
ATOM     17  C   UNL     1       3.180   3.042  10.484  0.00  0.00    +0.000 C 
ATOM     18  C   UNL     1       4.315   3.800  11.154  0.00  0.00    +0.000 C 
ENDBRANCH  16  18
ENDBRANCH  15  16
ENDBRANCH  13  15
ENDBRANCH   7  14
ENDBRANCH   1  10
BRANCH   5  19
ATOM     19  C   UNL     1       1.253   8.462  20.362  0.00  0.00    +0.000 C 
ATOM     20  C   UNL     1       1.838   9.026  21.695  0.00  0.00    +0.000 C 
ATOM     21  O   UNL     1       0.635   9.806  21.911  0.00  0.00    +0.000 OA
ATOM     22  C   UNL     1      -0.087   8.847  21.066  0.00  0.00    +0.000 C 
BRANCH  19  23
ATOM     23  C   UNL     1       1.454   9.274  19.056  0.00  0.00    +0.000 C 
BRANCH  23  24
ATOM     24  C   UNL     1       0.377  10.259  18.696  0.00  0.00    +0.000 A 
ATOM     25  N   UNL     1      -0.742  10.014  18.054  0.00  0.00    +0.000 NA
ATOM     26  N   UNL     1      -1.451  11.194  17.965  0.00  0.00    +0.000 NA
ATOM     27  C   UNL     1      -0.757  12.122  18.558  0.00  0.00    +0.000 A 
ATOM     28  N   UNL     1       0.427  11.608  19.001  0.00  0.00    +0.000 N 
ATOM     29  C   UNL     1       1.477  12.349  19.633  0.00  0.00    +0.000 C 
ENDBRANCH  23  24
ENDBRANCH  19  23
ENDBRANCH   5  19
TORSDOF 8
ENDMDL
MODEL 2
REMARK VINA RESULT:      -7.6      2.839      8.879
REMARK  Name = 
REMARK  10 active torsions:
REMARK  status: ('A' for Active; 'I' for Inactive)
REMARK    1  A    between atoms: C_1  and  C_2
REMARK    2  A    between atoms: C_2  and  C_3
REMARK    3  A    between atoms: C_3  and  C_4
REMARK    4  A    between atoms: C_4  and  C_5
REMARK    5  A    between atoms: C_6  and  C_7
REMARK    6  A    between atoms: N_10  and  C_11
REMARK    7  A    between atoms: C_15  and  C_16
REMARK    8  A    between atoms: C_16  and  C_17
REMARK    9  A    between atoms: C_17  and  C_18
REMARK   10  A    between atoms: N_22  and  C_23
REMARK                            x       y       z     vdW  Elec       q    Type
REMARK                         _______ _______ _______ _____ _____    ______ ____
ROOT
ATOM      1  C   UNL     1       2.903   5.563  18.381  0.00  0.00    +0.000 A 
ATOM      2  C   UNL     1       2.173   4.383  18.497  0.00  0.00    +0.000 A 
ATOM      3  C   UNL     1       2.663   3.204  17.962  0.00  0.00    +0.000 A 
ATOM      4  C   UNL     1       3.884   3.195  17.291  0.00  0.00    +0.000 A 
ATOM      5  C   UNL     1       4.633   4.382  17.124  0.00  0.00    +0.000 A 
ATOM      6  C   UNL     1       4.152   5.518  17.773  0.00  0.00    +0.000 A 
ENDROOT
BRANCH   1  10
ATOM      7  C   UNL     1       1.352   8.535  19.888  0.00  0.00    +0.000 C 
ATOM      8  C   UNL     1       1.744   8.978  18.699  0.00  0.00    +0.000 C 
ATOM      9  C   UNL     1       2.381   7.938  17.856  0.00  0.00    +0.000 C 
ATOM     10  N   UNL     1       2.370   6.808  18.753  0.00  0.00    +0.000 N 
ATOM     11  C   UNL     1       1.693   7.092  19.930  0.00  0.00    +0.000 C 
ATOM     12  O   UNL     1       1.427   6.340  20.868  0.00  0.00    +0.000 OA
BRANCH   7  14
ATOM     13  C   UNL     1       0.778   8.896  22.245  0.00  0.00    +0.000 C 
ATOM     14  C   UNL     1       0.775   9.297  20.961  0.00  0.00    +0.000 C 
BRANCH  13  15
ATOM     15  C   UNL     1       0.207   9.722  23.363  0.00  0.00    +0.000 C 
BRANCH  15  16
ATOM     16  C   UNL     1      -1.104  10.398  22.954  0.00  0.00    +0.000 C 
BRANCH  16  18
ATOM     17  C   UNL     1      -2.223  12.642  23.185  0.00  0.00    +0.000 C 
ATOM     18  C   UNL     1      -0.938  11.914  22.823  0.00  0.00    +0.000 C 
ENDBRANCH  16  18
ENDBRANCH  15  16
ENDBRANCH  13  15
ENDBRANCH   7  14
ENDBRANCH   1  10
BRANCH   5  19
ATOM     19  C   UNL     1       5.855   4.457  16.108  0.00  0.00    +0.000 C 
ATOM     20  C   UNL     1       5.565   5.451  14.939  0.00  0.00    +0.000 C 
ATOM     21  O   UNL     1       6.319   4.616  14.023  0.00  0.00    +0.000 OA
ATOM     22  C   UNL     1       6.051   3.476  14.908  0.00  0.00    +0.000 C 
BRANCH  19  23
ATOM     23  C   UNL     1       7.168   4.620  16.918  0.00  0.00    +0.000 C 
BRANCH  23  24
ATOM     24  C   UNL     1       7.538   6.016  17.337  0.00  0.00    +0.000 A 
ATOM     25  N   UNL     1       7.591   7.085  16.577  0.00  0.00    +0.000 NA
ATOM     26  N   UNL     1       7.944   8.158  17.370  0.00  0.00    +0.000 NA
ATOM     27  C   UNL     1       8.087   7.721  18.588  0.00  0.00    +0.000 A 
ATOM     28  N   UNL     1       7.889   6.371  18.627  0.00  0.00    +0.000 N 
ATOM     29  C   UNL     1       8.037   5.536  19.781  0.00  0.00    +0.000 C 
ENDBRANCH  23  24
ENDBRANCH  19  23
ENDBRANCH   5  19
TORSDOF 8
ENDMDL
MODEL 3
REMARK VINA RESULT:      -7.5      3.840      6.142
REMARK  Name = 
REMARK  10 active torsions:
REMARK  status: ('A' for Active; 'I' for Inactive)
REMARK    1  A    between atoms: C_1  and  C_2
REMARK    2  A    between atoms: C_2  and  C_3
REMARK    3  A    between atoms: C_3  and  C_4
REMARK    4  A    between atoms: C_4  and  C_5
REMARK    5  A    between atoms: C_6  and  C_7
REMARK    6  A    between atoms: N_10  and  C_11
REMARK    7  A    between atoms: C_15  and  C_16
REMARK    8  A    between atoms: C_16  and  C_17
REMARK    9  A    between atoms: C_17  and  C_18
REMARK   10  A    between atoms: N_22  and  C_23
REMARK                            x       y       z     vdW  Elec       q    Type
REMARK                         _______ _______ _______ _____ _____    ______ ____
ROOT
ATOM      1  C   UNL     1       0.364   9.528  20.944  0.00  0.00    +0.000 A 
ATOM      2  C   UNL     1       0.530   8.959  22.204  0.00  0.00    +0.000 A 
ATOM      3  C   UNL     1      -0.091   9.516  23.309  0.00  0.00    +0.000 A 
ATOM      4  C   UNL     1      -0.876  10.658  23.168  0.00  0.00    +0.000 A 
ATOM      5  C   UNL     1      -1.037  11.281  21.910  0.00  0.00    +0.000 A 
ATOM      6  C   UNL     1      -0.483  10.623  20.813  0.00  0.00    +0.000 A 
ENDROOT
BRANCH   1  10
ATOM      7  C   UNL     1       2.423   7.904  18.370  0.00  0.00    +0.000 C 
ATOM      8  C   UNL     1       2.099   9.060  17.802  0.00  0.00    +0.000 C 
ATOM      9  C   UNL     1       1.282   9.941  18.670  0.00  0.00    +0.000 C 
ATOM     10  N   UNL     1       1.109   9.104  19.832  0.00  0.00    +0.000 N 
ATOM     11  C   UNL     1       1.839   7.929  19.732  0.00  0.00    +0.000 C 
ATOM     12  O   UNL     1       1.982   7.037  20.569  0.00  0.00    +0.000 OA
BRANCH   7  14
ATOM     13  C   UNL     1       4.360   6.922  17.229  0.00  0.00    +0.000 C 
ATOM     14  C   UNL     1       3.137   6.807  17.778  0.00  0.00    +0.000 C 
BRANCH  13  15
ATOM     15  C   UNL     1       5.113   5.758  16.651  0.00  0.00    +0.000 C 
BRANCH  15  16
ATOM     16  C   UNL     1       5.401   4.689  17.707  0.00  0.00    +0.000 C 
BRANCH  16  18
ATOM     17  C   UNL     1       7.614   5.588  18.504  0.00  0.00    +0.000 C 
ATOM     18  C   UNL     1       6.180   5.264  18.893  0.00  0.00    +0.000 C 
ENDBRANCH  16  18
ENDBRANCH  15  16
ENDBRANCH  13  15
ENDBRANCH   7  14
ENDBRANCH   1  10
BRANCH   5  19
ATOM     19  C   UNL     1      -1.660  12.740  21.778  0.00  0.00    +0.000 C 
ATOM     20  C   UNL     1      -2.694  12.815  20.611  0.00  0.00    +0.000 C 
ATOM     21  O   UNL     1      -2.304  14.184  20.333  0.00  0.00    +0.000 OA
ATOM     22  C   UNL     1      -1.006  13.895  20.955  0.00  0.00    +0.000 C 
BRANCH  19  23
ATOM     23  C   UNL     1      -2.089  13.228  23.187  0.00  0.00    +0.000 C 
BRANCH  23  24
ATOM     24  C   UNL     1      -3.538  13.061  23.552  0.00  0.00    +0.000 A 
ATOM     25  N   UNL     1      -4.114  11.988  24.044  0.00  0.00    +0.000 NA
ATOM     26  N   UNL     1      -5.446  12.279  24.259  0.00  0.00    +0.000 NA
ATOM     27  C   UNL     1      -5.646  13.515  23.904  0.00  0.00    +0.000 A 
ATOM     28  N   UNL     1      -4.493  14.051  23.407  0.00  0.00    +0.000 N 
ATOM     29  C   UNL     1      -4.351  15.363  22.851  0.00  0.00    +0.000 C 
ENDBRANCH  23  24
ENDBRANCH  19  23
ENDBRANCH   5  19
TORSDOF 8
ENDMDL
MODEL 4
REMARK VINA RESULT:      -7.5      2.827      8.119
REMARK  Name = 
REMARK  10 active torsions:
REMARK  status: ('A' for Active; 'I' for Inactive)
REMARK    1  A    between atoms: C_1  and  C_2
REMARK    2  A    between atoms: C_2  and  C_3
REMARK    3  A    between atoms: C_3  and  C_4
REMARK    4  A    between atoms: C_4  and  C_5
REMARK    5  A    between atoms: C_6  and  C_7
REMARK    6  A    between atoms: N_10  and  C_11
REMARK    7  A    between atoms: C_15  and  C_16
REMARK    8  A    between atoms: C_16  and  C_17
REMARK    9  A    between atoms: C_17  and  C_18
REMARK   10  A    between atoms: N_22  and  C_23
REMARK                            x       y       z     vdW  Elec       q    Type
REMARK                         _______ _______ _______ _____ _____    ______ ____
ROOT
ATOM      1  C   UNL     1       2.803   5.268  18.764  0.00  0.00    +0.000 A 
ATOM      2  C   UNL     1       2.057   4.093  18.721  0.00  0.00    +0.000 A 
ATOM      3  C   UNL     1       2.518   2.999  18.010  0.00  0.00    +0.000 A 
ATOM      4  C   UNL     1       3.726   3.072  17.320  0.00  0.00    +0.000 A 
ATOM      5  C   UNL     1       4.490   4.261  17.312  0.00  0.00    +0.000 A 
ATOM      6  C   UNL     1       4.040   5.296  18.129  0.00  0.00    +0.000 A 
ENDROOT
BRANCH   1  10
ATOM      7  C   UNL     1       1.496   8.588  19.645  0.00  0.00    +0.000 C 
ATOM      8  C   UNL     1       1.532   7.965  20.816  0.00  0.00    +0.000 C 
ATOM      9  C   UNL     1       2.072   6.586  20.742  0.00  0.00    +0.000 C 
ATOM     10  N   UNL     1       2.296   6.452  19.324  0.00  0.00    +0.000 N 
ATOM     11  C   UNL     1       2.052   7.640  18.650  0.00  0.00    +0.000 C 
ATOM     12  O   UNL     1       2.221   7.899  17.458  0.00  0.00    +0.000 OA
BRANCH   7  14
ATOM     13  C   UNL     1      -0.218  10.101  18.757  0.00  0.00    +0.000 C 
ATOM     14  C   UNL     1       0.966   9.893  19.361  0.00  0.00    +0.000 C 
BRANCH  13  15
ATOM     15  C   UNL     1      -0.780  11.472  18.504  0.00  0.00    +0.000 C 
BRANCH  15  16
ATOM     16  C   UNL     1      -2.287  11.523  18.768  0.00  0.00    +0.000 C 
BRANCH  16  18
ATOM     17  C   UNL     1      -2.933  10.136  16.769  0.00  0.00    +0.000 C 
ATOM     18  C   UNL     1      -3.089  11.478  17.465  0.00  0.00    +0.000 C 
ENDBRANCH  16  18
ENDBRANCH  15  16
ENDBRANCH  13  15
ENDBRANCH   7  14
ENDBRANCH   1  10
BRANCH   5  19
ATOM     19  C   UNL     1       5.694   4.468  16.292  0.00  0.00    +0.000 C 
ATOM     20  C   UNL     1       5.354   5.550  15.219  0.00  0.00    +0.000 C 
ATOM     21  O   UNL     1       6.121   4.827  14.224  0.00  0.00    +0.000 OA
ATOM     22  C   UNL     1       5.905   3.604  15.007  0.00  0.00    +0.000 C 
BRANCH  19  23
ATOM     23  C   UNL     1       7.012   4.605  17.098  0.00  0.00    +0.000 C 
BRANCH  23  24
ATOM     24  C   UNL     1       7.470   6.000  17.419  0.00  0.00    +0.000 A 
ATOM     25  N   UNL     1       7.587   7.009  16.586  0.00  0.00    +0.000 NA
ATOM     26  N   UNL     1       8.009   8.109  17.304  0.00  0.00    +0.000 NA
ATOM     27  C   UNL     1       8.129   7.751  18.550  0.00  0.00    +0.000 A 
ATOM     28  N   UNL     1       7.848   6.421  18.681  0.00  0.00    +0.000 N 
ATOM     29  C   UNL     1       7.948   5.661  19.891  0.00  0.00    +0.000 C 
ENDBRANCH  23  24
ENDBRANCH  19  23
ENDBRANCH   5  19
TORSDOF 8
ENDMDL
MODEL 5
REMARK VINA RESULT:      -7.5      2.844      9.458
REMARK  Name = 
REMARK  10 active torsions:
REMARK  status: ('A' for Active; 'I' for Inactive)
REMARK    1  A    between atoms: C_1  and  C_2
REMARK    2  A    between atoms: C_2  and  C_3
REMARK    3  A    between atoms: C_3  and  C_4
REMARK    4  A    between atoms: C_4  and  C_5
REMARK    5  A    between atoms: C_6  and  C_7
REMARK    6  A    between atoms: N_10  and  C_11
REMARK    7  A    between atoms: C_15  and  C_16
REMARK    8  A    between atoms: C_16  and  C_17
REMARK    9  A    between atoms: C_17  and  C_18
REMARK   10  A    between atoms: N_22  and  C_23
REMARK                            x       y       z     vdW  Elec       q    Type
REMARK                         _______ _______ _______ _____ _____    ______ ____
ROOT
ATOM      1  C   UNL     1       2.636   6.317  18.261  0.00  0.00    +0.000 A 
ATOM      2  C   UNL     1       1.833   5.186  18.138  0.00  0.00    +0.000 A 
ATOM      3  C   UNL     1       2.339   4.026  17.577  0.00  0.00    +0.000 A 
ATOM      4  C   UNL     1       3.654   3.988  17.121  0.00  0.00    +0.000 A 
ATOM      5  C   UNL     1       4.487   5.127  17.197  0.00  0.00    +0.000 A 
ATOM      6  C   UNL     1       3.967   6.234  17.867  0.00  0.00    +0.000 A 
ENDROOT
BRANCH   1  10
ATOM      7  C   UNL     1       1.233   9.306  19.872  0.00  0.00    +0.000 C 
ATOM      8  C   UNL     1       1.397   9.699  18.614  0.00  0.00    +0.000 C 
ATOM      9  C   UNL     1       1.926   8.639  17.724  0.00  0.00    +0.000 C 
ATOM     10  N   UNL     1       2.119   7.559  18.661  0.00  0.00    +0.000 N 
ATOM     11  C   UNL     1       1.640   7.882  19.922  0.00  0.00    +0.000 C 
ATOM     12  O   UNL     1       1.571   7.172  20.926  0.00  0.00    +0.000 OA
BRANCH   7  14
ATOM     13  C   UNL     1      -0.415  10.030  21.539  0.00  0.00    +0.000 C 
ATOM     14  C   UNL     1       0.812  10.103  20.991  0.00  0.00    +0.000 C 
BRANCH  13  15
ATOM     15  C   UNL     1      -0.829  10.839  22.735  0.00  0.00    +0.000 C 
BRANCH  15  16
ATOM     16  C   UNL     1      -0.700  12.342  22.474  0.00  0.00    +0.000 C 
BRANCH  16  18
ATOM     17  C   UNL     1      -3.015  12.150  23.444  0.00  0.00    +0.000 C 
ATOM     18  C   UNL     1      -1.947  13.102  22.930  0.00  0.00    +0.000 C 
ENDBRANCH  16  18
ENDBRANCH  15  16
ENDBRANCH  13  15
ENDBRANCH   7  14
ENDBRANCH   1  10
BRANCH   5  19
ATOM     19  C   UNL     1       5.868   5.202  16.410  0.00  0.00    +0.000 C 
ATOM     20  C   UNL     1       6.718   3.910  16.625  0.00  0.00    +0.000 C 
ATOM     21  O   UNL     1       7.941   4.688  16.572  0.00  0.00    +0.000 OA
ATOM     22  C   UNL     1       7.163   5.862  16.984  0.00  0.00    +0.000 C 
BRANCH  19  23
ATOM     23  C   UNL     1       5.590   5.681  14.961  0.00  0.00    +0.000 C 
BRANCH  23  24
ATOM     24  C   UNL     1       5.854   4.694  13.858  0.00  0.00    +0.000 A 
ATOM     25  N   UNL     1       5.075   3.711  13.469  0.00  0.00    +0.000 NA
ATOM     26  N   UNL     1       5.687   3.073  12.409  0.00  0.00    +0.000 NA
ATOM     27  C   UNL     1       6.812   3.684  12.173  0.00  0.00    +0.000 A 
ATOM     28  N   UNL     1       6.998   4.687  13.080  0.00  0.00    +0.000 N 
ATOM     29  C   UNL     1       8.157   5.524  13.177  0.00  0.00    +0.000 C 
ENDBRANCH  23  24
ENDBRANCH  19  23
ENDBRANCH   5  19
TORSDOF 8
ENDMDL
MODEL 6
REMARK VINA RESULT:      -7.5      2.780      8.590
REMARK  Name = 
REMARK  10 active torsions:
REMARK  status: ('A' for Active; 'I' for Inactive)
REMARK    1  A    between atoms: C_1  and  C_2
REMARK    2  A    between atoms: C_2  and  C_3
REMARK    3  A    between atoms: C_3  and  C_4
REMARK    4  A    between atoms: C_4  and  C_5
REMARK    5  A    between atoms: C_6  and  C_7
REMARK    6  A    between atoms: N_10  and  C_11
REMARK    7  A    between atoms: C_15  and  C_16
REMARK    8  A    between atoms: C_16  and  C_17
REMARK    9  A    between atoms: C_17  and  C_18
REMARK   10  A    between atoms: N_22  and  C_23
REMARK                            x       y       z     vdW  Elec       q    Type
REMARK                         _______ _______ _______ _____ _____    ______ ____
ROOT
ATOM      1  C   UNL     1       2.696   5.672  18.456  0.00  0.00    +0.000 A 
ATOM      2  C   UNL     1       1.871   4.551  18.430  0.00  0.00    +0.000 A 
ATOM      3  C   UNL     1       2.292   3.385  17.814  0.00  0.00    +0.000 A 
ATOM      4  C   UNL     1       3.543   3.332  17.203  0.00  0.00    +0.000 A 
ATOM      5  C   UNL     1       4.392   4.462  17.178  0.00  0.00    +0.000 A 
ATOM      6  C   UNL     1       3.969   5.574  17.904  0.00  0.00    +0.000 A 
ENDROOT
BRANCH   1  10
ATOM      7  C   UNL     1       1.627   9.133  19.069  0.00  0.00    +0.000 C 
ATOM      8  C   UNL     1       1.456   8.558  20.253  0.00  0.00    +0.000 C 
ATOM      9  C   UNL     1       1.861   7.133  20.287  0.00  0.00    +0.000 C 
ATOM     10  N   UNL     1       2.245   6.920  18.913  0.00  0.00    +0.000 N 
ATOM     11  C   UNL     1       2.205   8.097  18.180  0.00  0.00    +0.000 C 
ATOM     12  O   UNL     1       2.545   8.290  17.012  0.00  0.00    +0.000 OA
BRANCH   7  14
ATOM     13  C   UNL     1       0.111  11.061  19.033  0.00  0.00    +0.000 C 
ATOM     14  C   UNL     1       1.268  10.471  18.683  0.00  0.00    +0.000 C 
BRANCH  13  15
ATOM     15  C   UNL     1      -0.234  12.475  18.658  0.00  0.00    +0.000 C 
BRANCH  15  16
ATOM     16  C   UNL     1      -1.145  13.130  19.699  0.00  0.00    +0.000 C 
BRANCH  16  18
ATOM     17  C   UNL     1      -2.401  12.757  21.849  0.00  0.00    +0.000 C 
ATOM     18  C   UNL     1      -1.761  12.092  20.641  0.00  0.00    +0.000 C 
ENDBRANCH  16  18
ENDBRANCH  15  16
ENDBRANCH  13  15
ENDBRANCH   7  14
ENDBRANCH   1  10
BRANCH   5  19
ATOM     19  C   UNL     1       5.669   4.521  16.231  0.00  0.00    +0.000 C 
ATOM     20  C   UNL     1       5.475   5.554  15.076  0.00  0.00    +0.000 C 
ATOM     21  O   UNL     1       6.249   4.718  14.178  0.00  0.00    +0.000 OA
ATOM     22  C   UNL     1       5.897   3.565  15.016  0.00  0.00    +0.000 C 
BRANCH  19  23
ATOM     23  C   UNL     1       6.941   4.619  17.113  0.00  0.00    +0.000 C 
BRANCH  23  24
ATOM     24  C   UNL     1       7.432   6.001  17.445  0.00  0.00    +0.000 A 
ATOM     25  N   UNL     1       7.524   7.028  16.632  0.00  0.00    +0.000 NA
ATOM     26  N   UNL     1       7.994   8.105  17.355  0.00  0.00    +0.000 NA
ATOM     27  C   UNL     1       8.166   7.715  18.585  0.00  0.00    +0.000 A 
ATOM     28  N   UNL     1       7.873   6.387  18.698  0.00  0.00    +0.000 N 
ATOM     29  C   UNL     1       8.019   5.596  19.884  0.00  0.00    +0.000 C 
ENDBRANCH  23  24
ENDBRANCH  19  23
ENDBRANCH   5  19
TORSDOF 8
ENDMDL
MODEL 7
REMARK VINA RESULT:      -7.4      2.968      9.726
REMARK  Name = 
REMARK  10 active torsions:
REMARK  status: ('A' for Active; 'I' for Inactive)
REMARK    1  A    between atoms: C_1  and  C_2
REMARK    2  A    between atoms: C_2  and  C_3
REMARK    3  A    between atoms: C_3  and  C_4
REMARK    4  A    between atoms: C_4  and  C_5
REMARK    5  A    between atoms: C_6  and  C_7
REMARK    6  A    between atoms: N_10  and  C_11
REMARK    7  A    between atoms: C_15  and  C_16
REMARK    8  A    between atoms: C_16  and  C_17
REMARK    9  A    between atoms: C_17  and  C_18
REMARK   10  A    between atoms: N_22  and  C_23
REMARK                            x       y       z     vdW  Elec       q    Type
REMARK                         _______ _______ _______ _____ _____    ______ ____
ROOT
ATOM      1  C   UNL     1       2.110   7.716  19.049  0.00  0.00    +0.000 A 
ATOM      2  C   UNL     1       2.858   8.336  18.052  0.00  0.00    +0.000 A 
ATOM      3  C   UNL     1       3.619   7.581  17.176  0.00  0.00    +0.000 A 
ATOM      4  C   UNL     1       3.650   6.193  17.296  0.00  0.00    +0.000 A 
ATOM      5  C   UNL     1       2.931   5.533  18.319  0.00  0.00    +0.000 A 
ATOM      6  C   UNL     1       2.097   6.327  19.105  0.00  0.00    +0.000 A 
ENDROOT
BRANCH   1  10
ATOM      7  C   UNL     1       0.288  10.033  21.243  0.00  0.00    +0.000 C 
ATOM      8  C   UNL     1       0.675   9.078  22.080  0.00  0.00    +0.000 C 
ATOM      9  C   UNL     1       1.483   8.014  21.437  0.00  0.00    +0.000 C 
ATOM     10  N   UNL     1       1.467   8.446  20.061  0.00  0.00    +0.000 N 
ATOM     11  C   UNL     1       0.847   9.679  19.916  0.00  0.00    +0.000 C 
ATOM     12  O   UNL     1       0.732  10.370  18.904  0.00  0.00    +0.000 OA
BRANCH   7  14
ATOM     13  C   UNL     1      -1.035  11.441  22.754  0.00  0.00    +0.000 C 
ATOM     14  C   UNL     1      -0.561  11.157  21.528  0.00  0.00    +0.000 C 
BRANCH  13  15
ATOM     15  C   UNL     1      -1.887  12.644  23.046  0.00  0.00    +0.000 C 
BRANCH  15  16
ATOM     16  C   UNL     1      -3.264  12.244  23.583  0.00  0.00    +0.000 C 
BRANCH  16  18
ATOM     17  C   UNL     1      -2.930  14.527  24.592  0.00  0.00    +0.000 C 
ATOM     18  C   UNL     1      -3.817  13.293  24.551  0.00  0.00    +0.000 C 
ENDBRANCH  16  18
ENDBRANCH  15  16
ENDBRANCH  13  15
ENDBRANCH   7  14
ENDBRANCH   1  10
BRANCH   5  19
ATOM     19  C   UNL     1       3.196   4.003  18.667  0.00  0.00    +0.000 C 
ATOM     20  C   UNL     1       1.958   3.117  18.319  0.00  0.00    +0.000 C 
ATOM     21  O   UNL     1       2.240   2.253  19.449  0.00  0.00    +0.000 OA
ATOM     22  C   UNL     1       2.949   3.375  20.076  0.00  0.00    +0.000 C 
BRANCH  19  23
ATOM     23  C   UNL     1       4.585   3.598  18.108  0.00  0.00    +0.000 C 
BRANCH  23  24
ATOM     24  C   UNL     1       5.766   4.400  18.578  0.00  0.00    +0.000 A 
ATOM     25  N   UNL     1       5.980   4.865  19.788  0.00  0.00    +0.000 NA
ATOM     26  N   UNL     1       7.196   5.516  19.787  0.00  0.00    +0.000 NA
ATOM     27  C   UNL     1       7.696   5.426  18.588  0.00  0.00    +0.000 A 
ATOM     28  N   UNL     1       6.823   4.773  17.767  0.00  0.00    +0.000 N 
ATOM     29  C   UNL     1       7.000   4.553  16.363  0.00  0.00    +0.000 C 
ENDBRANCH  23  24
ENDBRANCH  19  23
ENDBRANCH   5  19
TORSDOF 8
ENDMDL
MODEL 8
REMARK VINA RESULT:      -7.4      3.822      5.942
REMARK  Name = 
REMARK  10 active torsions:
REMARK  status: ('A' for Active; 'I' for Inactive)
REMARK    1  A    between atoms: C_1  and  C_2
REMARK    2  A    between atoms: C_2  and  C_3
REMARK    3  A    between atoms: C_3  and  C_4
REMARK    4  A    between atoms: C_4  and  C_5
REMARK    5  A    between atoms: C_6  and  C_7
REMARK    6  A    between atoms: N_10  and  C_11
REMARK    7  A    between atoms: C_15  and  C_16
REMARK    8  A    between atoms: C_16  and  C_17
REMARK    9  A    between atoms: C_17  and  C_18
REMARK   10  A    between atoms: N_22  and  C_23
REMARK                            x       y       z     vdW  Elec       q    Type
REMARK                         _______ _______ _______ _____ _____    ______ ____
ROOT
ATOM      1  C   UNL     1       0.361   9.530  20.913  0.00  0.00    +0.000 A 
ATOM      2  C   UNL     1       0.511   8.941  22.166  0.00  0.00    +0.000 A 
ATOM      3  C   UNL     1      -0.111   9.489  23.274  0.00  0.00    +0.000 A 
ATOM      4  C   UNL     1      -0.880  10.643  23.145  0.00  0.00    +0.000 A 
ATOM      5  C   UNL     1      -1.024  11.287  21.894  0.00  0.00    +0.000 A 
ATOM      6  C   UNL     1      -0.471  10.638  20.792  0.00  0.00    +0.000 A 
ENDROOT
BRANCH   1  10
ATOM      7  C   UNL     1       2.421   7.920  18.331  0.00  0.00    +0.000 C 
ATOM      8  C   UNL     1       2.106   9.083  17.773  0.00  0.00    +0.000 C 
ATOM      9  C   UNL     1       1.291   9.960  18.646  0.00  0.00    +0.000 C 
ATOM     10  N   UNL     1       1.108   9.113  19.799  0.00  0.00    +0.000 N 
ATOM     11  C   UNL     1       1.831   7.934  19.691  0.00  0.00    +0.000 C 
ATOM     12  O   UNL     1       1.966   7.033  20.520  0.00  0.00    +0.000 OA
BRANCH   7  14
ATOM     13  C   UNL     1       4.413   6.897  17.329  0.00  0.00    +0.000 C 
ATOM     14  C   UNL     1       3.131   6.823  17.731  0.00  0.00    +0.000 C 
BRANCH  13  15
ATOM     15  C   UNL     1       5.156   5.731  16.741  0.00  0.00    +0.000 C 
BRANCH  15  16
ATOM     16  C   UNL     1       4.267   4.490  16.631  0.00  0.00    +0.000 C 
BRANCH  16  18
ATOM     17  C   UNL     1       3.382   2.480  17.862  0.00  0.00    +0.000 C 
ATOM     18  C   UNL     1       4.460   3.551  17.824  0.00  0.00    +0.000 C 
ENDBRANCH  16  18
ENDBRANCH  15  16
ENDBRANCH  13  15
ENDBRANCH   7  14
ENDBRANCH   1  10
BRANCH   5  19
ATOM     19  C   UNL     1      -1.628  12.755  21.780  0.00  0.00    +0.000 C 
ATOM     20  C   UNL     1      -2.654  12.860  20.608  0.00  0.00    +0.000 C 
ATOM     21  O   UNL     1      -2.244  14.228  20.352  0.00  0.00    +0.000 OA
ATOM     22  C   UNL     1      -0.954  13.914  20.977  0.00  0.00    +0.000 C 
BRANCH  19  23
ATOM     23  C   UNL     1      -2.058  13.229  23.193  0.00  0.00    +0.000 C 
BRANCH  23  24
ATOM     24  C   UNL     1      -3.506  13.056  23.556  0.00  0.00    +0.000 A 
ATOM     25  N   UNL     1      -4.081  11.978  24.036  0.00  0.00    +0.000 NA
ATOM     26  N   UNL     1      -5.413  12.264  24.254  0.00  0.00    +0.000 NA
ATOM     27  C   UNL     1      -5.616  13.504  23.912  0.00  0.00    +0.000 A 
ATOM     28  N   UNL     1      -4.463  14.046  23.421  0.00  0.00    +0.000 N 
ATOM     29  C   UNL     1      -4.323  15.365  22.880  0.00  0.00    +0.000 C 
ENDBRANCH  23  24
ENDBRANCH  19  23
ENDBRANCH   5  19
TORSDOF 8
ENDMDL
MODEL 9
REMARK VINA RESULT:      -7.4      2.797      8.202
REMARK  Name = 
REMARK  10 active torsions:
REMARK  status: ('A' for Active; 'I' for Inactive)
REMARK    1  A    between atoms: C_1  and  C_2
REMARK    2  A    between atoms: C_2  and  C_3
REMARK    3  A    between atoms: C_3  and  C_4
REMARK    4  A    between atoms: C_4  and  C_5
REMARK    5  A    between atoms: C_6  and  C_7
REMARK    6  A    between atoms: N_10  and  C_11
REMARK    7  A    between atoms: C_15  and  C_16
REMARK    8  A    between atoms: C_16  and  C_17
REMARK    9  A    between atoms: C_17  and  C_18
REMARK   10  A    between atoms: N_22  and  C_23
REMARK                            x       y       z     vdW  Elec       q    Type
REMARK                         _______ _______ _______ _____ _____    ______ ____
ROOT
ATOM      1  C   UNL     1       2.711   5.149  18.638  0.00  0.00    +0.000 A 
ATOM      2  C   UNL     1       1.907   4.033  18.421  0.00  0.00    +0.000 A 
ATOM      3  C   UNL     1       2.344   3.006  17.604  0.00  0.00    +0.000 A 
ATOM      4  C   UNL     1       3.588   3.088  16.982  0.00  0.00    +0.000 A 
ATOM      5  C   UNL     1       4.414   4.222  17.152  0.00  0.00    +0.000 A 
ATOM      6  C   UNL     1       3.979   5.178  18.068  0.00  0.00    +0.000 A 
ENDROOT
BRANCH   1  10
ATOM      7  C   UNL     1       1.577   8.422  19.865  0.00  0.00    +0.000 C 
ATOM      8  C   UNL     1       1.443   7.645  20.933  0.00  0.00    +0.000 C 
ATOM      9  C   UNL     1       1.881   6.246  20.710  0.00  0.00    +0.000 C 
ATOM     10  N   UNL     1       2.241   6.286  19.314  0.00  0.00    +0.000 N 
ATOM     11  C   UNL     1       2.159   7.572  18.799  0.00  0.00    +0.000 C 
ATOM     12  O   UNL     1       2.470   7.975  17.677  0.00  0.00    +0.000 OA
BRANCH   7  14
ATOM     13  C   UNL     1       0.347  10.237  18.765  0.00  0.00    +0.000 C 
ATOM     14  C   UNL     1       1.179   9.796  19.725  0.00  0.00    +0.000 C 
BRANCH  13  15
ATOM     15  C   UNL     1      -0.093  11.670  18.654  0.00  0.00    +0.000 C 
BRANCH  15  16
ATOM     16  C   UNL     1       0.930  12.625  19.274  0.00  0.00    +0.000 C 
BRANCH  16  18
ATOM     17  C   UNL     1       3.082  13.794  18.690  0.00  0.00    +0.000 C 
ATOM     18  C   UNL     1       1.697  13.402  18.201  0.00  0.00    +0.000 C 
ENDBRANCH  16  18
ENDBRANCH  15  16
ENDBRANCH  13  15
ENDBRANCH   7  14
ENDBRANCH   1  10
BRANCH   5  19
ATOM     19  C   UNL     1       5.679   4.476  16.221  0.00  0.00    +0.000 C 
ATOM     20  C   UNL     1       5.397   5.593  15.168  0.00  0.00    +0.000 C 
ATOM     21  O   UNL     1       6.234   4.913  14.198  0.00  0.00    +0.000 OA
ATOM     22  C   UNL     1       5.981   3.661  14.922  0.00  0.00    +0.000 C 
BRANCH  19  23
ATOM     23  C   UNL     1       6.942   4.594  17.114  0.00  0.00    +0.000 C 
BRANCH  23  24
ATOM     24  C   UNL     1       7.420   5.983  17.433  0.00  0.00    +0.000 A 
ATOM     25  N   UNL     1       7.528   6.996  16.604  0.00  0.00    +0.000 NA
ATOM     26  N   UNL     1       7.976   8.087  17.318  0.00  0.00    +0.000 NA
ATOM     27  C   UNL     1       8.122   7.720  18.559  0.00  0.00    +0.000 A 
ATOM     28  N   UNL     1       7.830   6.392  18.689  0.00  0.00    +0.000 N 
ATOM     29  C   UNL     1       7.951   5.623  19.892  0.00  0.00    +0.000 C 
ENDBRANCH  23  24
ENDBRANCH  19  23
ENDBRANCH   5  19
TORSDOF 8
ENDMDL
