MODEL 1
REMARK VINA RESULT:      -9.3      0.000      0.000
REMARK  Name = 
REMARK  4 active torsions:
REMARK  status: ('A' for Active; 'I' for Inactive)
REMARK    1  A    between atoms: C_7  and  C_8
REMARK    2  A    between atoms: N_10  and  C_11
REMARK    3  A    between atoms: C_15  and  C_16
REMARK    4  A    between atoms: N_18  and  C_19
REMARK                            x       y       z     vdW  Elec       q    Type
REMARK                         _______ _______ _______ _____ _____    ______ ____
ROOT
ATOM      1  C   UNL     1       3.187   6.795  18.143  0.00  0.00    +0.000 C 
ATOM      2  O   UNL     1       2.696   5.668  18.134  0.00  0.00    +0.000 OA
ATOM      3  N   UNL     1       4.504   7.110  17.838  0.00  0.00    +0.000 N 
ATOM      4  H   UNL     1       4.827   8.041  18.063  0.00  0.00    +0.000 HD
ENDROOT
BRANCH   1  11
ATOM      5  O   UNL     1      -1.581  11.797  21.640  0.00  0.00    +0.000 OA
ATOM      6  C   UNL     1      -0.732  10.978  21.298  0.00  0.00    +0.000 C 
ATOM      7  C   UNL     1       0.119  10.222  22.296  0.00  0.00    +0.000 C 
ATOM      8  C   UNL     1       0.451   8.824  21.803  0.00  0.00    +0.000 C 
ATOM      9  C   UNL     1       0.979   8.871  20.395  0.00  0.00    +0.000 A 
ATOM     10  C   UNL     1       1.869   7.900  19.921  0.00  0.00    +0.000 A 
ATOM     11  C   UNL     1       2.293   7.902  18.580  0.00  0.00    +0.000 A 
ATOM     12  C   UNL     1       1.787   8.867  17.701  0.00  0.00    +0.000 A 
ATOM     13  C   UNL     1       0.874   9.825  18.168  0.00  0.00    +0.000 A 
ATOM     14  C   UNL     1       0.487   9.832  19.510  0.00  0.00    +0.000 A 
ATOM     15  N   UNL     1      -0.426  10.785  19.972  0.00  0.00    +0.000 N 
ATOM     16  H   UNL     1      -0.913  11.389  19.324  0.00  0.00    +0.000 HD
ENDBRANCH   1  11
BRANCH   3  17
ATOM     17  C   UNL     1       5.495   6.172  17.432  0.00  0.00    +0.000 A 
ATOM     18  C   UNL     1       6.312   5.495  18.344  0.00  0.00    +0.000 A 
ATOM     19  C   UNL     1       7.314   4.623  17.908  0.00  0.00    +0.000 A 
ATOM     20  C   UNL     1       7.500   4.393  16.549  0.00  0.00    +0.000 A 
ATOM     21  C   UNL     1       6.660   5.015  15.620  0.00  0.00    +0.000 A 
ATOM     22  C   UNL     1       5.665   5.912  16.065  0.00  0.00    +0.000 A 
BRANCH  21  23
ATOM     23  C   UNL     1       6.813   4.769  14.154  0.00  0.00    +0.000 C 
ATOM     24  O   UNL     1       7.547   5.493  13.490  0.00  0.00    +0.000 OA
ATOM     25  N   UNL     1       6.056   3.734  13.622  0.00  0.00    +0.000 N 
ATOM     26  H   UNL     1       5.358   3.289  14.204  0.00  0.00    +0.000 HD
BRANCH  25  27
ATOM     27  C   UNL     1       6.040   3.427  12.223  0.00  0.00    +0.000 C 
ATOM     28  C   UNL     1       4.740   3.177  11.502  0.00  0.00    +0.000 C 
ATOM     29  C   UNL     1       5.691   2.044  11.744  0.00  0.00    +0.000 C 
ENDBRANCH  25  27
ENDBRANCH  21  23
ENDBRANCH   3  17
TORSDOF 4
ENDMDL
MODEL 2
REMARK VINA RESULT:      -8.7      3.697      8.740
REMARK  Name = 
REMARK  4 active torsions:
REMARK  status: ('A' for Active; 'I' for Inactive)
REMARK    1  A    between atoms: C_7  and  C_8
REMARK    2  A    between atoms: N_10  and  C_11
REMARK    3  A    between atoms: C_15  and  C_16
REMARK    4  A    between atoms: N_18  and  C_19
REMARK                            x       y       z     vdW  Elec       q    Type
REMARK                         _______ _______ _______ _____ _____    ______ ____
ROOT
ATOM      1  C   UNL     1       2.213   8.283  18.322  0.00  0.00    +0.000 C 
ATOM      2  O   UNL     1       2.373   8.876  17.257  0.00  0.00    +0.000 OA
ATOM      3  N   UNL     1       1.462   8.734  19.399  0.00  0.00    +0.000 N 
ATOM      4  H   UNL     1       1.562   8.245  20.278  0.00  0.00    +0.000 HD
ENDROOT
BRANCH   1  11
ATOM      5  O   UNL     1       5.168   1.399  20.290  0.00  0.00    +0.000 OA
ATOM      6  C   UNL     1       4.496   2.399  20.046  0.00  0.00    +0.000 C 
ATOM      7  C   UNL     1       3.048   2.529  20.467  0.00  0.00    +0.000 C 
ATOM      8  C   UNL     1       2.689   3.967  20.801  0.00  0.00    +0.000 C 
ATOM      9  C   UNL     1       3.138   4.892  19.703  0.00  0.00    +0.000 A 
ATOM     10  C   UNL     1       2.470   6.096  19.451  0.00  0.00    +0.000 A 
ATOM     11  C   UNL     1       2.945   6.996  18.479  0.00  0.00    +0.000 A 
ATOM     12  C   UNL     1       4.122   6.698  17.784  0.00  0.00    +0.000 A 
ATOM     13  C   UNL     1       4.808   5.504  18.054  0.00  0.00    +0.000 A 
ATOM     14  C   UNL     1       4.308   4.603  18.997  0.00  0.00    +0.000 A 
ATOM     15  N   UNL     1       4.995   3.416  19.269  0.00  0.00    +0.000 N 
ATOM     16  H   UNL     1       5.919   3.257  18.889  0.00  0.00    +0.000 HD
ENDBRANCH   1  11
BRANCH   3  17
ATOM     17  C   UNL     1       0.726   9.952  19.428  0.00  0.00    +0.000 A 
ATOM     18  C   UNL     1       1.046  11.009  20.287  0.00  0.00    +0.000 A 
ATOM     19  C   UNL     1       0.268  12.169  20.330  0.00  0.00    +0.000 A 
ATOM     20  C   UNL     1      -0.835  12.304  19.491  0.00  0.00    +0.000 A 
ATOM     21  C   UNL     1      -1.143  11.285  18.584  0.00  0.00    +0.000 A 
ATOM     22  C   UNL     1      -0.367  10.107  18.562  0.00  0.00    +0.000 A 
BRANCH  21  23
ATOM     23  C   UNL     1      -2.303  11.408  17.650  0.00  0.00    +0.000 C 
ATOM     24  O   UNL     1      -3.379  11.822  18.068  0.00  0.00    +0.000 OA
ATOM     25  N   UNL     1      -2.087  10.992  16.343  0.00  0.00    +0.000 N 
ATOM     26  H   UNL     1      -1.222  10.517  16.118  0.00  0.00    +0.000 HD
BRANCH  25  27
ATOM     27  C   UNL     1      -3.122  10.981  15.354  0.00  0.00    +0.000 C 
ATOM     28  C   UNL     1      -4.000   9.769  15.169  0.00  0.00    +0.000 C 
ATOM     29  C   UNL     1      -2.995  10.132  14.118  0.00  0.00    +0.000 C 
ENDBRANCH  25  27
ENDBRANCH  21  23
ENDBRANCH   3  17
TORSDOF 4
ENDMDL
MODEL 3
REMARK VINA RESULT:      -8.6      5.555      7.809
REMARK  Name = 
REMARK  4 active torsions:
REMARK  status: ('A' for Active; 'I' for Inactive)
REMARK    1  A    between atoms: C_7  and  C_8
REMARK    2  A    between atoms: N_10  and  C_11
REMARK    3  A    between atoms: C_15  and  C_16
REMARK    4  A    between atoms: N_18  and  C_19
REMARK                            x       y       z     vdW  Elec       q    Type
REMARK                         _______ _______ _______ _____ _____    ______ ____
ROOT
ATOM      1  C   UNL     1       7.935   8.169  18.126  0.00  0.00    +0.000 C 
ATOM      2  O   UNL     1       8.504   7.362  18.857  0.00  0.00    +0.000 OA
ATOM      3  N   UNL     1       6.908   7.879  17.239  0.00  0.00    +0.000 N 
ATOM      4  H   UNL     1       6.655   8.590  16.565  0.00  0.00    +0.000 HD
ENDROOT
BRANCH   1  11
ATOM      5  O   UNL     1      11.278  15.017  19.508  0.00  0.00    +0.000 OA
ATOM      6  C   UNL     1      10.950  13.843  19.365  0.00  0.00    +0.000 C 
ATOM      7  C   UNL     1      11.787  12.693  19.885  0.00  0.00    +0.000 C 
ATOM      8  C   UNL     1      10.923  11.524  20.322  0.00  0.00    +0.000 C 
ATOM      9  C   UNL     1       9.925  11.175  19.251  0.00  0.00    +0.000 A 
ATOM     10  C   UNL     1       9.439   9.870  19.110  0.00  0.00    +0.000 A 
ATOM     11  C   UNL     1       8.444   9.568  18.163  0.00  0.00    +0.000 A 
ATOM     12  C   UNL     1       7.910  10.595  17.377  0.00  0.00    +0.000 A 
ATOM     13  C   UNL     1       8.377  11.909  17.535  0.00  0.00    +0.000 A 
ATOM     14  C   UNL     1       9.388  12.190  18.456  0.00  0.00    +0.000 A 
ATOM     15  N   UNL     1       9.850  13.500  18.616  0.00  0.00    +0.000 N 
ATOM     16  H   UNL     1       9.374  14.272  18.168  0.00  0.00    +0.000 HD
ENDBRANCH   1  11
BRANCH   3  17
ATOM     17  C   UNL     1       6.325   6.593  17.056  0.00  0.00    +0.000 A 
ATOM     18  C   UNL     1       6.909   5.605  16.256  0.00  0.00    +0.000 A 
ATOM     19  C   UNL     1       6.281   4.373  16.054  0.00  0.00    +0.000 A 
ATOM     20  C   UNL     1       5.065   4.096  16.671  0.00  0.00    +0.000 A 
ATOM     21  C   UNL     1       4.488   5.046  17.520  0.00  0.00    +0.000 A 
ATOM     22  C   UNL     1       5.116   6.297  17.702  0.00  0.00    +0.000 A 
BRANCH  21  23
ATOM     23  C   UNL     1       3.198   4.773  18.221  0.00  0.00    +0.000 C 
ATOM     24  O   UNL     1       2.136   4.971  17.639  0.00  0.00    +0.000 OA
ATOM     25  N   UNL     1       3.292   4.341  19.537  0.00  0.00    +0.000 N 
ATOM     26  H   UNL     1       4.195   4.355  19.993  0.00  0.00    +0.000 HD
BRANCH  25  27
ATOM     27  C   UNL     1       2.142   4.109  20.360  0.00  0.00    +0.000 C 
ATOM     28  C   UNL     1       2.230   3.222  21.575  0.00  0.00    +0.000 C 
ATOM     29  C   UNL     1       1.463   2.767  20.370  0.00  0.00    +0.000 C 
ENDBRANCH  25  27
ENDBRANCH  21  23
ENDBRANCH   3  17
TORSDOF 4
ENDMDL
MODEL 4
REMARK VINA RESULT:      -8.5      0.867      1.634
REMARK  Name = 
REMARK  4 active torsions:
REMARK  status: ('A' for Active; 'I' for Inactive)
REMARK    1  A    between atoms: C_7  and  C_8
REMARK    2  A    between atoms: N_10  and  C_11
REMARK    3  A    between atoms: C_15  and  C_16
REMARK    4  A    between atoms: N_18  and  C_19
REMARK                            x       y       z     vdW  Elec       q    Type
REMARK                         _______ _______ _______ _____ _____    ______ ____
ROOT
ATOM      1  C   UNL     1       3.400   6.118  18.739  0.00  0.00    +0.000 C 
ATOM      2  O   UNL     1       3.129   4.926  18.873  0.00  0.00    +0.000 OA
ATOM      3  N   UNL     1       4.563   6.629  18.180  0.00  0.00    +0.000 N 
ATOM      4  H   UNL     1       4.745   7.617  18.298  0.00  0.00    +0.000 HD
ENDROOT
BRANCH   1  11
ATOM      5  O   UNL     1      -1.350  11.989  20.459  0.00  0.00    +0.000 OA
ATOM      6  C   UNL     1      -0.647  11.111  19.965  0.00  0.00    +0.000 C 
ATOM      7  C   UNL     1      -0.369  11.030  18.479  0.00  0.00    +0.000 C 
ATOM      8  C   UNL     1       1.019  10.482  18.198  0.00  0.00    +0.000 C 
ATOM      9  C   UNL     1       1.255   9.217  18.978  0.00  0.00    +0.000 A 
ATOM     10  C   UNL     1       2.128   8.228  18.509  0.00  0.00    +0.000 A 
ATOM     11  C   UNL     1       2.409   7.087  19.282  0.00  0.00    +0.000 A 
ATOM     12  C   UNL     1       1.834   6.959  20.552  0.00  0.00    +0.000 A 
ATOM     13  C   UNL     1       0.980   7.962  21.035  0.00  0.00    +0.000 A 
ATOM     14  C   UNL     1       0.684   9.074  20.244  0.00  0.00    +0.000 A 
ATOM     15  N   UNL     1      -0.165  10.075  20.728  0.00  0.00    +0.000 N 
ATOM     16  H   UNL     1      -0.465  10.073  21.694  0.00  0.00    +0.000 HD
ENDBRANCH   1  11
BRANCH   3  17
ATOM     17  C   UNL     1       5.623   5.847  17.641  0.00  0.00    +0.000 A 
ATOM     18  C   UNL     1       6.600   5.244  18.441  0.00  0.00    +0.000 A 
ATOM     19  C   UNL     1       7.659   4.529  17.876  0.00  0.00    +0.000 A 
ATOM     20  C   UNL     1       7.746   4.382  16.495  0.00  0.00    +0.000 A 
ATOM     21  C   UNL     1       6.752   4.927  15.676  0.00  0.00    +0.000 A 
ATOM     22  C   UNL     1       5.698   5.668  16.252  0.00  0.00    +0.000 A 
BRANCH  21  23
ATOM     23  C   UNL     1       6.799   4.765  14.192  0.00  0.00    +0.000 C 
ATOM     24  O   UNL     1       7.503   5.512  13.520  0.00  0.00    +0.000 OA
ATOM     25  N   UNL     1       5.983   3.778  13.655  0.00  0.00    +0.000 N 
ATOM     26  H   UNL     1       5.316   3.313  14.258  0.00  0.00    +0.000 HD
BRANCH  25  27
ATOM     27  C   UNL     1       5.865   3.553  12.245  0.00  0.00    +0.000 C 
ATOM     28  C   UNL     1       4.525   3.259  11.620  0.00  0.00    +0.000 C 
ATOM     29  C   UNL     1       5.563   2.181  11.708  0.00  0.00    +0.000 C 
ENDBRANCH  25  27
ENDBRANCH  21  23
ENDBRANCH   3  17
TORSDOF 4
ENDMDL
MODEL 5
REMARK VINA RESULT:      -8.5      5.509      7.601
REMARK  Name = 
REMARK  4 active torsions:
REMARK  status: ('A' for Active; 'I' for Inactive)
REMARK    1  A    between atoms: C_7  and  C_8
REMARK    2  A    between atoms: N_10  and  C_11
REMARK    3  A    between atoms: C_15  and  C_16
REMARK    4  A    between atoms: N_18  and  C_19
REMARK                            x       y       z     vdW  Elec       q    Type
REMARK                         _______ _______ _______ _____ _____    ______ ____
ROOT
ATOM      1  C   UNL     1       7.932   8.044  18.067  0.00  0.00    +0.000 C 
ATOM      2  O   UNL     1       8.499   7.250  18.815  0.00  0.00    +0.000 OA
ATOM      3  N   UNL     1       6.962   7.724  17.127  0.00  0.00    +0.000 N 
ATOM      4  H   UNL     1       6.712   8.434  16.451  0.00  0.00    +0.000 HD
ENDROOT
BRANCH   1  11
ATOM      5  O   UNL     1      10.912  15.004  19.700  0.00  0.00    +0.000 OA
ATOM      6  C   UNL     1      10.641  13.819  19.525  0.00  0.00    +0.000 C 
ATOM      7  C   UNL     1      11.503  12.697  20.065  0.00  0.00    +0.000 C 
ATOM      8  C   UNL     1      10.671  11.485  20.445  0.00  0.00    +0.000 C 
ATOM      9  C   UNL     1       9.738  11.112  19.326  0.00  0.00    +0.000 A 
ATOM     10  C   UNL     1       9.315   9.790  19.144  0.00  0.00    +0.000 A 
ATOM     11  C   UNL     1       8.378   9.462  18.148  0.00  0.00    +0.000 A 
ATOM     12  C   UNL     1       7.835  10.479  17.353  0.00  0.00    +0.000 A 
ATOM     13  C   UNL     1       8.238  11.808  17.551  0.00  0.00    +0.000 A 
ATOM     14  C   UNL     1       9.194  12.116  18.522  0.00  0.00    +0.000 A 
ATOM     15  N   UNL     1       9.592  13.442  18.721  0.00  0.00    +0.000 N 
ATOM     16  H   UNL     1       9.103  14.200  18.264  0.00  0.00    +0.000 HD
ENDBRANCH   1  11
BRANCH   3  17
ATOM     17  C   UNL     1       6.444   6.418  16.899  0.00  0.00    +0.000 A 
ATOM     18  C   UNL     1       6.586   5.751  15.677  0.00  0.00    +0.000 A 
ATOM     19  C   UNL     1       6.017   4.492  15.469  0.00  0.00    +0.000 A 
ATOM     20  C   UNL     1       5.314   3.864  16.492  0.00  0.00    +0.000 A 
ATOM     21  C   UNL     1       5.205   4.485  17.741  0.00  0.00    +0.000 A 
ATOM     22  C   UNL     1       5.763   5.766  17.937  0.00  0.00    +0.000 A 
BRANCH  21  23
ATOM     23  C   UNL     1       4.482   3.827  18.870  0.00  0.00    +0.000 C 
ATOM     24  O   UNL     1       5.115   3.210  19.721  0.00  0.00    +0.000 OA
ATOM     25  N   UNL     1       3.097   3.926  18.854  0.00  0.00    +0.000 N 
ATOM     26  H   UNL     1       2.644   4.314  18.037  0.00  0.00    +0.000 HD
BRANCH  25  27
ATOM     27  C   UNL     1       2.264   3.285  19.828  0.00  0.00    +0.000 C 
ATOM     28  C   UNL     1       0.838   2.919  19.502  0.00  0.00    +0.000 C 
ATOM     29  C   UNL     1       1.124   4.027  20.470  0.00  0.00    +0.000 C 
ENDBRANCH  25  27
ENDBRANCH  21  23
ENDBRANCH   3  17
TORSDOF 4
ENDMDL
MODEL 6
REMARK VINA RESULT:      -8.5      3.865      9.541
REMARK  Name = 
REMARK  4 active torsions:
REMARK  status: ('A' for Active; 'I' for Inactive)
REMARK    1  A    between atoms: C_7  and  C_8
REMARK    2  A    between atoms: N_10  and  C_11
REMARK    3  A    between atoms: C_15  and  C_16
REMARK    4  A    between atoms: N_18  and  C_19
REMARK                            x       y       z     vdW  Elec       q    Type
REMARK                         _______ _______ _______ _____ _____    ______ ____
ROOT
ATOM      1  C   UNL     1       1.964   8.621  18.274  0.00  0.00    +0.000 C 
ATOM      2  O   UNL     1       2.238   9.282  17.274  0.00  0.00    +0.000 OA
ATOM      3  N   UNL     1       1.072   8.988  19.272  0.00  0.00    +0.000 N 
ATOM      4  H   UNL     1       1.076   8.448  20.127  0.00  0.00    +0.000 HD
ENDROOT
BRANCH   1  11
ATOM      5  O   UNL     1       5.045   1.831  20.369  0.00  0.00    +0.000 OA
ATOM      6  C   UNL     1       4.358   2.817  20.119  0.00  0.00    +0.000 C 
ATOM      7  C   UNL     1       2.932   2.962  20.606  0.00  0.00    +0.000 C 
ATOM      8  C   UNL     1       2.584   4.411  20.899  0.00  0.00    +0.000 C 
ATOM      9  C   UNL     1       2.973   5.292  19.744  0.00  0.00    +0.000 A 
ATOM     10  C   UNL     1       2.287   6.483  19.476  0.00  0.00    +0.000 A 
ATOM     11  C   UNL     1       2.709   7.343  18.446  0.00  0.00    +0.000 A 
ATOM     12  C   UNL     1       3.850   7.019  17.704  0.00  0.00    +0.000 A 
ATOM     13  C   UNL     1       4.555   5.839  17.988  0.00  0.00    +0.000 A 
ATOM     14  C   UNL     1       4.107   4.977  18.992  0.00  0.00    +0.000 A 
ATOM     15  N   UNL     1       4.812   3.803  19.276  0.00  0.00    +0.000 N 
ATOM     16  H   UNL     1       5.716   3.631  18.857  0.00  0.00    +0.000 HD
ENDBRANCH   1  11
BRANCH   3  17
ATOM     17  C   UNL     1       0.302  10.185  19.279  0.00  0.00    +0.000 A 
ATOM     18  C   UNL     1       0.639  11.295  20.060  0.00  0.00    +0.000 A 
ATOM     19  C   UNL     1      -0.170  12.435  20.087  0.00  0.00    +0.000 A 
ATOM     20  C   UNL     1      -1.323  12.494  19.309  0.00  0.00    +0.000 A 
ATOM     21  C   UNL     1      -1.652  11.419  18.477  0.00  0.00    +0.000 A 
ATOM     22  C   UNL     1      -0.843  10.262  18.472  0.00  0.00    +0.000 A 
BRANCH  21  23
ATOM     23  C   UNL     1      -2.866  11.459  17.608  0.00  0.00    +0.000 C 
ATOM     24  O   UNL     1      -2.767  11.202  16.412  0.00  0.00    +0.000 OA
ATOM     25  N   UNL     1      -4.051  11.838  18.224  0.00  0.00    +0.000 N 
ATOM     26  H   UNL     1      -4.019  12.185  19.173  0.00  0.00    +0.000 HD
BRANCH  25  27
ATOM     27  C   UNL     1      -5.281  11.993  17.506  0.00  0.00    +0.000 C 
ATOM     28  C   UNL     1      -6.285  13.041  17.914  0.00  0.00    +0.000 C 
ATOM     29  C   UNL     1      -6.590  11.590  18.128  0.00  0.00    +0.000 C 
ENDBRANCH  25  27
ENDBRANCH  21  23
ENDBRANCH   3  17
TORSDOF 4
ENDMDL
MODEL 7
REMARK VINA RESULT:      -8.0      2.465      3.784
REMARK  Name = 
REMARK  4 active torsions:
REMARK  status: ('A' for Active; 'I' for Inactive)
REMARK    1  A    between atoms: C_7  and  C_8
REMARK    2  A    between atoms: N_10  and  C_11
REMARK    3  A    between atoms: C_15  and  C_16
REMARK    4  A    between atoms: N_18  and  C_19
REMARK                            x       y       z     vdW  Elec       q    Type
REMARK                         _______ _______ _______ _____ _____    ______ ____
ROOT
ATOM      1  C   UNL     1       1.883   7.500  20.092  0.00  0.00    +0.000 C 
ATOM      2  O   UNL     1       2.338   7.645  18.959  0.00  0.00    +0.000 OA
ATOM      3  N   UNL     1       1.971   6.349  20.862  0.00  0.00    +0.000 N 
ATOM      4  H   UNL     1       1.398   6.296  21.693  0.00  0.00    +0.000 HD
ENDROOT
BRANCH   1  11
ATOM      5  O   UNL     1      -1.912  14.061  21.686  0.00  0.00    +0.000 OA
ATOM      6  C   UNL     1      -1.410  13.040  21.223  0.00  0.00    +0.000 C 
ATOM      7  C   UNL     1      -1.510  12.675  19.757  0.00  0.00    +0.000 C 
ATOM      8  C   UNL     1      -0.271  11.938  19.278  0.00  0.00    +0.000 C 
ATOM      9  C   UNL     1       0.067  10.809  20.212  0.00  0.00    +0.000 A 
ATOM     10  C   UNL     1       0.732   9.665  19.757  0.00  0.00    +0.000 A 
ATOM     11  C   UNL     1       1.120   8.650  20.650  0.00  0.00    +0.000 A 
ATOM     12  C   UNL     1       0.867   8.806  22.018  0.00  0.00    +0.000 A 
ATOM     13  C   UNL     1       0.224   9.964  22.481  0.00  0.00    +0.000 A 
ATOM     14  C   UNL     1      -0.185  10.949  21.579  0.00  0.00    +0.000 A 
ATOM     15  N   UNL     1      -0.823  12.105  22.041  0.00  0.00    +0.000 N 
ATOM     16  H   UNL     1      -0.877  12.301  23.032  0.00  0.00    +0.000 HD
ENDBRANCH   1  11
BRANCH   3  17
ATOM     17  C   UNL     1       2.636   5.153  20.470  0.00  0.00    +0.000 A 
ATOM     18  C   UNL     1       2.239   3.887  20.914  0.00  0.00    +0.000 A 
ATOM     19  C   UNL     1       2.949   2.738  20.554  0.00  0.00    +0.000 A 
ATOM     20  C   UNL     1       4.059   2.833  19.720  0.00  0.00    +0.000 A 
ATOM     21  C   UNL     1       4.443   4.081  19.218  0.00  0.00    +0.000 A 
ATOM     22  C   UNL     1       3.736   5.239  19.604  0.00  0.00    +0.000 A 
BRANCH  21  23
ATOM     23  C   UNL     1       5.613   4.216  18.298  0.00  0.00    +0.000 C 
ATOM     24  O   UNL     1       6.684   4.626  18.733  0.00  0.00    +0.000 OA
ATOM     25  N   UNL     1       5.387   3.900  16.965  0.00  0.00    +0.000 N 
ATOM     26  H   UNL     1       4.439   3.723  16.659  0.00  0.00    +0.000 HD
BRANCH  25  27
ATOM     27  C   UNL     1       6.389   4.051  15.954  0.00  0.00    +0.000 C 
ATOM     28  C   UNL     1       6.362   5.226  15.010  0.00  0.00    +0.000 C 
ATOM     29  C   UNL     1       6.051   3.851  14.502  0.00  0.00    +0.000 C 
ENDBRANCH  25  27
ENDBRANCH  21  23
ENDBRANCH   3  17
TORSDOF 4
ENDMDL
MODEL 8
REMARK VINA RESULT:      -8.0      2.663      9.230
REMARK  Name = 
REMARK  4 active torsions:
REMARK  status: ('A' for Active; 'I' for Inactive)
REMARK    1  A    between atoms: C_7  and  C_8
REMARK    2  A    between atoms: N_10  and  C_11
REMARK    3  A    between atoms: C_15  and  C_16
REMARK    4  A    between atoms: N_18  and  C_19
REMARK                            x       y       z     vdW  Elec       q    Type
REMARK                         _______ _______ _______ _____ _____    ______ ____
ROOT
ATOM      1  C   UNL     1       1.963   6.675  20.368  0.00  0.00    +0.000 C 
ATOM      2  O   UNL     1       1.016   6.000  20.769  0.00  0.00    +0.000 OA
ATOM      3  N   UNL     1       2.057   8.058  20.427  0.00  0.00    +0.000 N 
ATOM      4  H   UNL     1       2.796   8.501  19.899  0.00  0.00    +0.000 HD
ENDROOT
BRANCH   1  11
ATOM      5  O   UNL     1       7.879   4.009  16.141  0.00  0.00    +0.000 OA
ATOM      6  C   UNL     1       7.053   4.636  16.800  0.00  0.00    +0.000 C 
ATOM      7  C   UNL     1       7.097   6.143  16.940  0.00  0.00    +0.000 C 
ATOM      8  C   UNL     1       5.704   6.735  17.051  0.00  0.00    +0.000 C 
ATOM      9  C   UNL     1       4.900   6.004  18.091  0.00  0.00    +0.000 A 
ATOM     10  C   UNL     1       3.875   6.644  18.799  0.00  0.00    +0.000 A 
ATOM     11  C   UNL     1       3.072   5.933  19.709  0.00  0.00    +0.000 A 
ATOM     12  C   UNL     1       3.279   4.559  19.879  0.00  0.00    +0.000 A 
ATOM     13  C   UNL     1       4.287   3.910  19.151  0.00  0.00    +0.000 A 
ATOM     14  C   UNL     1       5.100   4.634  18.276  0.00  0.00    +0.000 A 
ATOM     15  N   UNL     1       6.102   3.985  17.547  0.00  0.00    +0.000 N 
ATOM     16  H   UNL     1       6.165   2.976  17.545  0.00  0.00    +0.000 HD
ENDBRANCH   1  11
BRANCH   3  17
ATOM     17  C   UNL     1       1.076   8.920  20.995  0.00  0.00    +0.000 A 
ATOM     18  C   UNL     1       0.862   9.015  22.374  0.00  0.00    +0.000 A 
ATOM     19  C   UNL     1      -0.147   9.830  22.896  0.00  0.00    +0.000 A 
ATOM     20  C   UNL     1      -0.947  10.586  22.044  0.00  0.00    +0.000 A 
ATOM     21  C   UNL     1      -0.716  10.551  20.665  0.00  0.00    +0.000 A 
ATOM     22  C   UNL     1       0.289   9.709  20.144  0.00  0.00    +0.000 A 
BRANCH  21  23
ATOM     23  C   UNL     1      -1.537  11.371  19.724  0.00  0.00    +0.000 C 
ATOM     24  O   UNL     1      -2.045  12.418  20.113  0.00  0.00    +0.000 OA
ATOM     25  N   UNL     1      -1.711  10.853  18.448  0.00  0.00    +0.000 N 
ATOM     26  H   UNL     1      -1.394   9.911  18.255  0.00  0.00    +0.000 HD
BRANCH  25  27
ATOM     27  C   UNL     1      -2.531  11.487  17.459  0.00  0.00    +0.000 C 
ATOM     28  C   UNL     1      -3.855  10.890  17.057  0.00  0.00    +0.000 C 
ATOM     29  C   UNL     1      -2.705  10.875  16.097  0.00  0.00    +0.000 C 
ENDBRANCH  25  27
ENDBRANCH  21  23
ENDBRANCH   3  17
TORSDOF 4
ENDMDL
MODEL 9
REMARK VINA RESULT:      -8.0      2.285      3.326
REMARK  Name = 
REMARK  4 active torsions:
REMARK  status: ('A' for Active; 'I' for Inactive)
REMARK    1  A    between atoms: C_7  and  C_8
REMARK    2  A    between atoms: N_10  and  C_11
REMARK    3  A    between atoms: C_15  and  C_16
REMARK    4  A    between atoms: N_18  and  C_19
REMARK                            x       y       z     vdW  Elec       q    Type
REMARK                         _______ _______ _______ _____ _____    ______ ____
ROOT
ATOM      1  C   UNL     1       2.039   7.730  19.464  0.00  0.00    +0.000 C 
ATOM      2  O   UNL     1       2.746   7.804  18.461  0.00  0.00    +0.000 OA
ATOM      3  N   UNL     1       1.926   6.627  20.299  0.00  0.00    +0.000 N 
ATOM      4  H   UNL     1       1.176   6.627  20.977  0.00  0.00    +0.000 HD
ENDROOT
BRANCH   1  11
ATOM      5  O   UNL     1      -2.655  13.218  22.263  0.00  0.00    +0.000 OA
ATOM      6  C   UNL     1      -1.837  12.329  22.039  0.00  0.00    +0.000 C 
ATOM      7  C   UNL     1      -1.119  11.586  23.146  0.00  0.00    +0.000 C 
ATOM      8  C   UNL     1      -0.841  10.143  22.763  0.00  0.00    +0.000 C 
ATOM      9  C   UNL     1      -0.201  10.071  21.404  0.00  0.00    +0.000 A 
ATOM     10  C   UNL     1       0.659   9.021  21.061  0.00  0.00    +0.000 A 
ATOM     11  C   UNL     1       1.187   8.914  19.762  0.00  0.00    +0.000 A 
ATOM     12  C   UNL     1       0.817   9.851  18.791  0.00  0.00    +0.000 A 
ATOM     13  C   UNL     1      -0.066  10.890  19.124  0.00  0.00    +0.000 A 
ATOM     14  C   UNL     1      -0.557  11.003  20.427  0.00  0.00    +0.000 A 
ATOM     15  N   UNL     1      -1.441  12.036  20.757  0.00  0.00    +0.000 N 
ATOM     16  H   UNL     1      -1.834  12.627  20.037  0.00  0.00    +0.000 HD
ENDBRANCH   1  11
BRANCH   3  17
ATOM     17  C   UNL     1       2.643   5.407  20.143  0.00  0.00    +0.000 A 
ATOM     18  C   UNL     1       2.280   4.227  20.801  0.00  0.00    +0.000 A 
ATOM     19  C   UNL     1       3.039   3.061  20.669  0.00  0.00    +0.000 A 
ATOM     20  C   UNL     1       4.166   3.048  19.853  0.00  0.00    +0.000 A 
ATOM     21  C   UNL     1       4.519   4.199  19.141  0.00  0.00    +0.000 A 
ATOM     22  C   UNL     1       3.761   5.379  19.296  0.00  0.00    +0.000 A 
BRANCH  21  23
ATOM     23  C   UNL     1       5.706   4.212  18.234  0.00  0.00    +0.000 C 
ATOM     24  O   UNL     1       6.812   4.492  18.685  0.00  0.00    +0.000 OA
ATOM     25  N   UNL     1       5.460   3.942  16.895  0.00  0.00    +0.000 N 
ATOM     26  H   UNL     1       4.502   3.878  16.577  0.00  0.00    +0.000 HD
BRANCH  25  27
ATOM     27  C   UNL     1       6.485   3.991  15.895  0.00  0.00    +0.000 C 
ATOM     28  C   UNL     1       6.616   5.184  14.983  0.00  0.00    +0.000 C 
ATOM     29  C   UNL     1       6.140   3.873  14.435  0.00  0.00    +0.000 C 
ENDBRANCH  25  27
ENDBRANCH  21  23
ENDBRANCH   3  17
TORSDOF 4
ENDMDL
