MODEL 1
REMARK VINA RESULT:      -9.2      0.000      0.000
REMARK  Name = 
REMARK  5 active torsions:
REMARK  status: ('A' for Active; 'I' for Inactive)
REMARK    1  A    between atoms: C_1  and  C_2
REMARK    2  A    between atoms: C_4  and  C_5
REMARK    3  A    between atoms: C_12  and  C_13
REMARK    4  A    between atoms: C_13  and  C_14
REMARK    5  A    between atoms: N_16  and  C_17
REMARK                            x       y       z     vdW  Elec       q    Type
REMARK                         _______ _______ _______ _____ _____    ______ ____
ROOT
ATOM      1  C   UNL     1       6.487   5.177  19.289  0.00  0.00    +0.000 C 
ENDROOT
BRANCH   1   7
ATOM      2  C   UNL     1       7.928   7.907  17.815  0.00  0.00    +0.000 C 
ATOM      3  C   UNL     1       7.436   6.606  17.327  0.00  0.00    +0.000 A 
ATOM      4  O   UNL     1       7.499   6.413  15.977  0.00  0.00    +0.000 OA
ATOM      5  C   UNL     1       6.970   5.171  15.775  0.00  0.00    +0.000 A 
ATOM      6  N   UNL     1       6.598   4.560  16.888  0.00  0.00    +0.000 NA
ATOM      7  C   UNL     1       6.874   5.477  17.889  0.00  0.00    +0.000 A 
BRANCH   5   8
ATOM      8  C   UNL     1       6.892   4.717  14.390  0.00  0.00    +0.000 A 
ATOM      9  C   UNL     1       5.937   3.767  13.986  0.00  0.00    +0.000 A 
ATOM     10  C   UNL     1       5.845   3.360  12.653  0.00  0.00    +0.000 A 
ATOM     11  C   UNL     1       6.712   3.897  11.703  0.00  0.00    +0.000 A 
ATOM     12  C   UNL     1       7.676   4.828  12.085  0.00  0.00    +0.000 A 
ATOM     13  C   UNL     1       7.766   5.233  13.422  0.00  0.00    +0.000 A 
ENDBRANCH   5   8
ENDBRANCH   1   7
BRANCH   1  14
ATOM     14  C   UNL     1       5.001   4.967  19.479  0.00  0.00    +0.000 C 
ATOM     15  O   UNL     1       4.240   5.923  19.635  0.00  0.00    +0.000 OA
ATOM     16  N   UNL     1       4.595   3.639  19.470  0.00  0.00    +0.000 N 
ATOM     17  H   UNL     1       5.273   2.963  19.816  0.00  0.00    +0.000 HD
BRANCH  16  18
ATOM     18  C   UNL     1       3.232   3.281  19.611  0.00  0.00    +0.000 A 
ATOM     19  C   UNL     1       2.643   3.081  20.862  0.00  0.00    +0.000 A 
ATOM     20  C   UNL     1       1.319   2.652  20.937  0.00  0.00    +0.000 A 
ATOM     21  F   UNL     1       0.749   2.474  22.136  0.00  0.00    +0.000 F 
ATOM     22  C   UNL     1       0.574   2.408  19.786  0.00  0.00    +0.000 A 
ATOM     23  C   UNL     1       1.151   2.634  18.538  0.00  0.00    +0.000 A 
ATOM     24  C   UNL     1       2.461   3.101  18.461  0.00  0.00    +0.000 A 
ATOM     25  F   UNL     1       3.007   3.304  17.255  0.00  0.00    +0.000 F 
ENDBRANCH  16  18
ENDBRANCH   1  14
TORSDOF 4
ENDMDL
MODEL 2
REMARK VINA RESULT:      -8.5      1.074      1.465
REMARK  Name = 
REMARK  5 active torsions:
REMARK  status: ('A' for Active; 'I' for Inactive)
REMARK    1  A    between atoms: C_1  and  C_2
REMARK    2  A    between atoms: C_4  and  C_5
REMARK    3  A    between atoms: C_12  and  C_13
REMARK    4  A    between atoms: C_13  and  C_14
REMARK    5  A    between atoms: N_16  and  C_17
REMARK                            x       y       z     vdW  Elec       q    Type
REMARK                         _______ _______ _______ _____ _____    ______ ____
ROOT
ATOM      1  C   UNL     1       6.694   5.332  19.283  0.00  0.00    +0.000 C 
ENDROOT
BRANCH   1   7
ATOM      2  C   UNL     1       7.929   8.116  17.726  0.00  0.00    +0.000 C 
ATOM      3  C   UNL     1       7.492   6.784  17.271  0.00  0.00    +0.000 A 
ATOM      4  O   UNL     1       7.516   6.576  15.922  0.00  0.00    +0.000 OA
ATOM      5  C   UNL     1       7.049   5.305  15.754  0.00  0.00    +0.000 A 
ATOM      6  N   UNL     1       6.751   4.690  16.887  0.00  0.00    +0.000 NA
ATOM      7  C   UNL     1       7.013   5.634  17.866  0.00  0.00    +0.000 A 
BRANCH   5   8
ATOM      8  C   UNL     1       6.945   4.829  14.378  0.00  0.00    +0.000 A 
ATOM      9  C   UNL     1       7.791   5.323  13.369  0.00  0.00    +0.000 A 
ATOM     10  C   UNL     1       7.708   4.841  12.061  0.00  0.00    +0.000 A 
ATOM     11  C   UNL     1       6.773   3.859  11.741  0.00  0.00    +0.000 A 
ATOM     12  C   UNL     1       5.914   3.368  12.723  0.00  0.00    +0.000 A 
ATOM     13  C   UNL     1       5.999   3.853  14.033  0.00  0.00    +0.000 A 
ENDBRANCH   5   8
ENDBRANCH   1   7
BRANCH   1  14
ATOM     14  C   UNL     1       5.468   4.466  19.461  0.00  0.00    +0.000 C 
ATOM     15  O   UNL     1       5.473   3.509  20.237  0.00  0.00    +0.000 OA
ATOM     16  N   UNL     1       4.377   4.836  18.685  0.00  0.00    +0.000 N 
ATOM     17  H   UNL     1       4.593   5.270  17.789  0.00  0.00    +0.000 HD
BRANCH  16  18
ATOM     18  C   UNL     1       3.146   4.139  18.757  0.00  0.00    +0.000 A 
ATOM     19  C   UNL     1       2.122   4.529  19.625  0.00  0.00    +0.000 A 
ATOM     20  C   UNL     1       0.965   3.758  19.711  0.00  0.00    +0.000 A 
ATOM     21  F   UNL     1      -0.023   4.139  20.532  0.00  0.00    +0.000 F 
ATOM     22  C   UNL     1       0.812   2.599  18.955  0.00  0.00    +0.000 A 
ATOM     23  C   UNL     1       1.820   2.223  18.068  0.00  0.00    +0.000 A 
ATOM     24  C   UNL     1       2.961   3.014  17.951  0.00  0.00    +0.000 A 
ATOM     25  F   UNL     1       3.927   2.636  17.103  0.00  0.00    +0.000 F 
ENDBRANCH  16  18
ENDBRANCH   1  14
TORSDOF 4
ENDMDL
MODEL 3
REMARK VINA RESULT:      -8.5      1.364      1.401
REMARK  Name = 
REMARK  5 active torsions:
REMARK  status: ('A' for Active; 'I' for Inactive)
REMARK    1  A    between atoms: C_1  and  C_2
REMARK    2  A    between atoms: C_4  and  C_5
REMARK    3  A    between atoms: C_12  and  C_13
REMARK    4  A    between atoms: C_13  and  C_14
REMARK    5  A    between atoms: N_16  and  C_17
REMARK                            x       y       z     vdW  Elec       q    Type
REMARK                         _______ _______ _______ _____ _____    ______ ____
ROOT
ATOM      1  C   UNL     1       4.450   7.417  17.834  0.00  0.00    +0.000 C 
ENDROOT
BRANCH   1   7
ATOM      2  C   UNL     1       7.833   6.993  18.107  0.00  0.00    +0.000 C 
ATOM      3  C   UNL     1       6.808   6.545  17.148  0.00  0.00    +0.000 A 
ATOM      4  O   UNL     1       7.265   5.838  16.073  0.00  0.00    +0.000 OA
ATOM      5  C   UNL     1       6.151   5.567  15.332  0.00  0.00    +0.000 A 
ATOM      6  N   UNL     1       5.031   6.030  15.861  0.00  0.00    +0.000 NA
ATOM      7  C   UNL     1       5.440   6.675  17.016  0.00  0.00    +0.000 A 
BRANCH   5   8
ATOM      8  C   UNL     1       6.363   4.829  14.090  0.00  0.00    +0.000 A 
ATOM      9  C   UNL     1       5.465   3.831  13.671  0.00  0.00    +0.000 A 
ATOM     10  C   UNL     1       5.655   3.152  12.467  0.00  0.00    +0.000 A 
ATOM     11  C   UNL     1       6.752   3.457  11.664  0.00  0.00    +0.000 A 
ATOM     12  C   UNL     1       7.663   4.432  12.068  0.00  0.00    +0.000 A 
ATOM     13  C   UNL     1       7.470   5.111  13.276  0.00  0.00    +0.000 A 
ENDBRANCH   5   8
ENDBRANCH   1   7
BRANCH   1  14
ATOM     14  C   UNL     1       3.345   6.548  18.392  0.00  0.00    +0.000 C 
ATOM     15  O   UNL     1       2.239   7.020  18.660  0.00  0.00    +0.000 OA
ATOM     16  N   UNL     1       3.690   5.215  18.575  0.00  0.00    +0.000 N 
ATOM     17  H   UNL     1       4.668   5.033  18.793  0.00  0.00    +0.000 HD
BRANCH  16  18
ATOM     18  C   UNL     1       2.756   4.269  19.065  0.00  0.00    +0.000 A 
ATOM     19  C   UNL     1       2.505   4.116  20.431  0.00  0.00    +0.000 A 
ATOM     20  C   UNL     1       1.636   3.115  20.860  0.00  0.00    +0.000 A 
ATOM     21  F   UNL     1       1.383   2.975  22.168  0.00  0.00    +0.000 F 
ATOM     22  C   UNL     1       1.020   2.256  19.953  0.00  0.00    +0.000 A 
ATOM     23  C   UNL     1       1.248   2.427  18.588  0.00  0.00    +0.000 A 
ATOM     24  C   UNL     1       2.085   3.452  18.154  0.00  0.00    +0.000 A 
ATOM     25  F   UNL     1       2.304   3.598  16.841  0.00  0.00    +0.000 F 
ENDBRANCH  16  18
ENDBRANCH   1  14
TORSDOF 4
ENDMDL
MODEL 4
REMARK VINA RESULT:      -8.4      2.609      5.125
REMARK  Name = 
REMARK  5 active torsions:
REMARK  status: ('A' for Active; 'I' for Inactive)
REMARK    1  A    between atoms: C_1  and  C_2
REMARK    2  A    between atoms: C_4  and  C_5
REMARK    3  A    between atoms: C_12  and  C_13
REMARK    4  A    between atoms: C_13  and  C_14
REMARK    5  A    between atoms: N_16  and  C_17
REMARK                            x       y       z     vdW  Elec       q    Type
REMARK                         _______ _______ _______ _____ _____    ______ ____
ROOT
ATOM      1  C   UNL     1       5.794   6.334  16.580  0.00  0.00    +0.000 C 
ENDROOT
BRANCH   1   7
ATOM      2  C   UNL     1       7.922   5.283  19.043  0.00  0.00    +0.000 C 
ATOM      3  C   UNL     1       7.693   6.564  18.350  0.00  0.00    +0.000 A 
ATOM      4  O   UNL     1       8.439   7.620  18.786  0.00  0.00    +0.000 OA
ATOM      5  C   UNL     1       8.033   8.676  18.022  0.00  0.00    +0.000 A 
ATOM      6  N   UNL     1       7.107   8.366  17.130  0.00  0.00    +0.000 NA
ATOM      7  C   UNL     1       6.867   7.019  17.342  0.00  0.00    +0.000 A 
BRANCH   5   8
ATOM      8  C   UNL     1       8.664   9.961  18.305  0.00  0.00    +0.000 A 
ATOM      9  C   UNL     1       8.362  11.106  17.546  0.00  0.00    +0.000 A 
ATOM     10  C   UNL     1       8.945  12.340  17.842  0.00  0.00    +0.000 A 
ATOM     11  C   UNL     1       9.844  12.447  18.901  0.00  0.00    +0.000 A 
ATOM     12  C   UNL     1      10.170  11.321  19.656  0.00  0.00    +0.000 A 
ATOM     13  C   UNL     1       9.584  10.085  19.357  0.00  0.00    +0.000 A 
ENDBRANCH   5   8
ENDBRANCH   1   7
BRANCH   1  14
ATOM     14  C   UNL     1       4.584   5.978  17.416  0.00  0.00    +0.000 C 
ATOM     15  O   UNL     1       3.760   6.836  17.736  0.00  0.00    +0.000 OA
ATOM     16  N   UNL     1       4.502   4.641  17.780  0.00  0.00    +0.000 N 
ATOM     17  H   UNL     1       5.389   4.156  17.900  0.00  0.00    +0.000 HD
BRANCH  16  18
ATOM     18  C   UNL     1       3.414   4.147  18.542  0.00  0.00    +0.000 A 
ATOM     19  C   UNL     1       3.329   4.337  19.923  0.00  0.00    +0.000 A 
ATOM     20  C   UNL     1       2.277   3.759  20.632  0.00  0.00    +0.000 A 
ATOM     21  F   UNL     1       2.187   3.952  21.954  0.00  0.00    +0.000 F 
ATOM     22  C   UNL     1       1.313   2.986  19.989  0.00  0.00    +0.000 A 
ATOM     23  C   UNL     1       1.381   2.820  18.607  0.00  0.00    +0.000 A 
ATOM     24  C   UNL     1       2.409   3.429  17.891  0.00  0.00    +0.000 A 
ATOM     25  F   UNL     1       2.468   3.252  16.565  0.00  0.00    +0.000 F 
ENDBRANCH  16  18
ENDBRANCH   1  14
TORSDOF 4
ENDMDL
MODEL 5
REMARK VINA RESULT:      -8.4      1.352      1.767
REMARK  Name = 
REMARK  5 active torsions:
REMARK  status: ('A' for Active; 'I' for Inactive)
REMARK    1  A    between atoms: C_1  and  C_2
REMARK    2  A    between atoms: C_4  and  C_5
REMARK    3  A    between atoms: C_12  and  C_13
REMARK    4  A    between atoms: C_13  and  C_14
REMARK    5  A    between atoms: N_16  and  C_17
REMARK                            x       y       z     vdW  Elec       q    Type
REMARK                         _______ _______ _______ _____ _____    ______ ____
ROOT
ATOM      1  C   UNL     1       6.565   5.412  19.311  0.00  0.00    +0.000 C 
ENDROOT
BRANCH   1   7
ATOM      2  C   UNL     1       7.923   8.113  17.710  0.00  0.00    +0.000 C 
ATOM      3  C   UNL     1       7.450   6.785  17.280  0.00  0.00    +0.000 A 
ATOM      4  O   UNL     1       7.492   6.543  15.937  0.00  0.00    +0.000 OA
ATOM      5  C   UNL     1       6.985   5.284  15.791  0.00  0.00    +0.000 A 
ATOM      6  N   UNL     1       6.645   4.709  16.933  0.00  0.00    +0.000 NA
ATOM      7  C   UNL     1       6.921   5.667  17.893  0.00  0.00    +0.000 A 
BRANCH   5   8
ATOM      8  C   UNL     1       6.890   4.778  14.425  0.00  0.00    +0.000 A 
ATOM      9  C   UNL     1       5.933   3.810  14.070  0.00  0.00    +0.000 A 
ATOM     10  C   UNL     1       5.827   3.353  12.755  0.00  0.00    +0.000 A 
ATOM     11  C   UNL     1       6.680   3.854  11.775  0.00  0.00    +0.000 A 
ATOM     12  C   UNL     1       7.646   4.802  12.109  0.00  0.00    +0.000 A 
ATOM     13  C   UNL     1       7.751   5.258  13.428  0.00  0.00    +0.000 A 
ENDBRANCH   5   8
ENDBRANCH   1   7
BRANCH   1  14
ATOM     14  C   UNL     1       5.374   4.496  19.485  0.00  0.00    +0.000 C 
ATOM     15  O   UNL     1       5.523   3.310  19.780  0.00  0.00    +0.000 OA
ATOM     16  N   UNL     1       4.140   5.101  19.280  0.00  0.00    +0.000 N 
ATOM     17  H   UNL     1       4.125   5.867  18.610  0.00  0.00    +0.000 HD
BRANCH  16  18
ATOM     18  C   UNL     1       2.929   4.382  19.431  0.00  0.00    +0.000 A 
ATOM     19  C   UNL     1       2.659   3.222  18.700  0.00  0.00    +0.000 A 
ATOM     20  C   UNL     1       1.418   2.602  18.832  0.00  0.00    +0.000 A 
ATOM     21  F   UNL     1       1.163   1.483  18.142  0.00  0.00    +0.000 F 
ATOM     22  C   UNL     1       0.437   3.123  19.671  0.00  0.00    +0.000 A 
ATOM     23  C   UNL     1       0.715   4.263  20.423  0.00  0.00    +0.000 A 
ATOM     24  C   UNL     1       1.968   4.862  20.324  0.00  0.00    +0.000 A 
ATOM     25  F   UNL     1       2.220   5.964  21.043  0.00  0.00    +0.000 F 
ENDBRANCH  16  18
ENDBRANCH   1  14
TORSDOF 4
ENDMDL
MODEL 6
REMARK VINA RESULT:      -8.3      2.765      5.389
REMARK  Name = 
REMARK  5 active torsions:
REMARK  status: ('A' for Active; 'I' for Inactive)
REMARK    1  A    between atoms: C_1  and  C_2
REMARK    2  A    between atoms: C_4  and  C_5
REMARK    3  A    between atoms: C_12  and  C_13
REMARK    4  A    between atoms: C_13  and  C_14
REMARK    5  A    between atoms: N_16  and  C_17
REMARK                            x       y       z     vdW  Elec       q    Type
REMARK                         _______ _______ _______ _____ _____    ______ ____
ROOT
ATOM      1  C   UNL     1       6.084   6.723  16.618  0.00  0.00    +0.000 C 
ENDROOT
BRANCH   1   7
ATOM      2  C   UNL     1       7.999   5.447  19.149  0.00  0.00    +0.000 C 
ATOM      3  C   UNL     1       7.884   6.767  18.502  0.00  0.00    +0.000 A 
ATOM      4  O   UNL     1       8.660   7.759  19.028  0.00  0.00    +0.000 OA
ATOM      5  C   UNL     1       8.359   8.868  18.291  0.00  0.00    +0.000 A 
ATOM      6  N   UNL     1       7.472   8.650  17.334  0.00  0.00    +0.000 NA
ATOM      7  C   UNL     1       7.146   7.311  17.471  0.00  0.00    +0.000 A 
BRANCH   5   8
ATOM      8  C   UNL     1       9.042  10.101  18.669  0.00  0.00    +0.000 A 
ATOM      9  C   UNL     1       9.378  10.370  20.008  0.00  0.00    +0.000 A 
ATOM     10  C   UNL     1      10.059  11.537  20.359  0.00  0.00    +0.000 A 
ATOM     11  C   UNL     1      10.413  12.457  19.374  0.00  0.00    +0.000 A 
ATOM     12  C   UNL     1      10.076  12.218  18.042  0.00  0.00    +0.000 A 
ATOM     13  C   UNL     1       9.392  11.047  17.694  0.00  0.00    +0.000 A 
ENDBRANCH   5   8
ENDBRANCH   1   7
BRANCH   1  14
ATOM     14  C   UNL     1       4.821   6.372  17.372  0.00  0.00    +0.000 C 
ATOM     15  O   UNL     1       3.958   7.223  17.596  0.00  0.00    +0.000 OA
ATOM     16  N   UNL     1       4.735   5.047  17.780  0.00  0.00    +0.000 N 
ATOM     17  H   UNL     1       5.619   4.586  17.985  0.00  0.00    +0.000 HD
BRANCH  16  18
ATOM     18  C   UNL     1       3.602   4.558  18.474  0.00  0.00    +0.000 A 
ATOM     19  C   UNL     1       3.421   4.773  19.843  0.00  0.00    +0.000 A 
ATOM     20  C   UNL     1       2.327   4.200  20.489  0.00  0.00    +0.000 A 
ATOM     21  F   UNL     1       2.145   4.418  21.798  0.00  0.00    +0.000 F 
ATOM     22  C   UNL     1       1.415   3.407  19.798  0.00  0.00    +0.000 A 
ATOM     23  C   UNL     1       1.579   3.214  18.427  0.00  0.00    +0.000 A 
ATOM     24  C   UNL     1       2.649   3.819  17.771  0.00  0.00    +0.000 A 
ATOM     25  F   UNL     1       2.800   3.617  16.456  0.00  0.00    +0.000 F 
ENDBRANCH  16  18
ENDBRANCH   1  14
TORSDOF 4
ENDMDL
MODEL 7
REMARK VINA RESULT:      -8.1      0.984      1.914
REMARK  Name = 
REMARK  5 active torsions:
REMARK  status: ('A' for Active; 'I' for Inactive)
REMARK    1  A    between atoms: C_1  and  C_2
REMARK    2  A    between atoms: C_4  and  C_5
REMARK    3  A    between atoms: C_12  and  C_13
REMARK    4  A    between atoms: C_13  and  C_14
REMARK    5  A    between atoms: N_16  and  C_17
REMARK                            x       y       z     vdW  Elec       q    Type
REMARK                         _______ _______ _______ _____ _____    ______ ____
ROOT
ATOM      1  C   UNL     1       6.766   5.161  19.181  0.00  0.00    +0.000 C 
ENDROOT
BRANCH   1   7
ATOM      2  C   UNL     1       7.935   8.003  17.678  0.00  0.00    +0.000 C 
ATOM      3  C   UNL     1       7.519   6.674  17.196  0.00  0.00    +0.000 A 
ATOM      4  O   UNL     1       7.534   6.498  15.842  0.00  0.00    +0.000 OA
ATOM      5  C   UNL     1       7.089   5.222  15.649  0.00  0.00    +0.000 A 
ATOM      6  N   UNL     1       6.813   4.576  16.770  0.00  0.00    +0.000 NA
ATOM      7  C   UNL     1       7.066   5.502  17.768  0.00  0.00    +0.000 A 
BRANCH   5   8
ATOM      8  C   UNL     1       6.981   4.776  14.264  0.00  0.00    +0.000 A 
ATOM      9  C   UNL     1       7.813   5.304  13.260  0.00  0.00    +0.000 A 
ATOM     10  C   UNL     1       7.726   4.851  11.942  0.00  0.00    +0.000 A 
ATOM     11  C   UNL     1       6.802   3.864  11.607  0.00  0.00    +0.000 A 
ATOM     12  C   UNL     1       5.957   3.339  12.583  0.00  0.00    +0.000 A 
ATOM     13  C   UNL     1       6.045   3.796  13.903  0.00  0.00    +0.000 A 
ENDBRANCH   5   8
ENDBRANCH   1   7
BRANCH   1  14
ATOM     14  C   UNL     1       5.297   4.923  19.452  0.00  0.00    +0.000 C 
ATOM     15  O   UNL     1       4.617   5.760  20.046  0.00  0.00    +0.000 OA
ATOM     16  N   UNL     1       4.810   3.707  18.988  0.00  0.00    +0.000 N 
ATOM     17  H   UNL     1       5.477   2.938  18.969  0.00  0.00    +0.000 HD
BRANCH  16  18
ATOM     18  C   UNL     1       3.449   3.348  19.142  0.00  0.00    +0.000 A 
ATOM     19  C   UNL     1       2.478   3.699  18.201  0.00  0.00    +0.000 A 
ATOM     20  C   UNL     1       1.142   3.387  18.444  0.00  0.00    +0.000 A 
ATOM     21  F   UNL     1       0.212   3.712  17.536  0.00  0.00    +0.000 F 
ATOM     22  C   UNL     1       0.754   2.740  19.614  0.00  0.00    +0.000 A 
ATOM     23  C   UNL     1       1.725   2.363  20.541  0.00  0.00    +0.000 A 
ATOM     24  C   UNL     1       3.065   2.638  20.282  0.00  0.00    +0.000 A 
ATOM     25  F   UNL     1       3.987   2.280  21.185  0.00  0.00    +0.000 F 
ENDBRANCH  16  18
ENDBRANCH   1  14
TORSDOF 4
ENDMDL
MODEL 8
REMARK VINA RESULT:      -8.0      2.805      5.301
REMARK  Name = 
REMARK  5 active torsions:
REMARK  status: ('A' for Active; 'I' for Inactive)
REMARK    1  A    between atoms: C_1  and  C_2
REMARK    2  A    between atoms: C_4  and  C_5
REMARK    3  A    between atoms: C_12  and  C_13
REMARK    4  A    between atoms: C_13  and  C_14
REMARK    5  A    between atoms: N_16  and  C_17
REMARK                            x       y       z     vdW  Elec       q    Type
REMARK                         _______ _______ _______ _____ _____    ______ ____
ROOT
ATOM      1  C   UNL     1       5.907   6.028  16.434  0.00  0.00    +0.000 C 
ENDROOT
BRANCH   1   7
ATOM      2  C   UNL     1       7.975   5.069  18.984  0.00  0.00    +0.000 C 
ATOM      3  C   UNL     1       7.717   6.340  18.282  0.00  0.00    +0.000 A 
ATOM      4  O   UNL     1       8.395   7.429  18.751  0.00  0.00    +0.000 OA
ATOM      5  C   UNL     1       7.973   8.467  17.971  0.00  0.00    +0.000 A 
ATOM      6  N   UNL     1       7.100   8.117  17.041  0.00  0.00    +0.000 NA
ATOM      7  C   UNL     1       6.914   6.759  17.241  0.00  0.00    +0.000 A 
BRANCH   5   8
ATOM      8  C   UNL     1       8.532   9.779  18.282  0.00  0.00    +0.000 A 
ATOM      9  C   UNL     1       8.263  10.897  17.473  0.00  0.00    +0.000 A 
ATOM     10  C   UNL     1       8.774  12.156  17.793  0.00  0.00    +0.000 A 
ATOM     11  C   UNL     1       9.568  12.315  18.926  0.00  0.00    +0.000 A 
ATOM     12  C   UNL     1       9.861  11.216  19.733  0.00  0.00    +0.000 A 
ATOM     13  C   UNL     1       9.347   9.955  19.409  0.00  0.00    +0.000 A 
ENDBRANCH   5   8
ENDBRANCH   1   7
BRANCH   1  14
ATOM     14  C   UNL     1       5.006   5.129  17.251  0.00  0.00    +0.000 C 
ATOM     15  O   UNL     1       5.342   3.978  17.530  0.00  0.00    +0.000 OA
ATOM     16  N   UNL     1       3.803   5.706  17.636  0.00  0.00    +0.000 N 
ATOM     17  H   UNL     1       3.419   6.404  17.001  0.00  0.00    +0.000 HD
BRANCH  16  18
ATOM     18  C   UNL     1       2.863   5.001  18.427  0.00  0.00    +0.000 A 
ATOM     19  C   UNL     1       2.241   3.834  17.976  0.00  0.00    +0.000 A 
ATOM     20  C   UNL     1       1.266   3.228  18.765  0.00  0.00    +0.000 A 
ATOM     21  F   UNL     1       0.679   2.101  18.340  0.00  0.00    +0.000 F 
ATOM     22  C   UNL     1       0.891   3.769  19.992  0.00  0.00    +0.000 A 
ATOM     23  C   UNL     1       1.531   4.917  20.457  0.00  0.00    +0.000 A 
ATOM     24  C   UNL     1       2.534   5.503  19.688  0.00  0.00    +0.000 A 
ATOM     25  F   UNL     1       3.133   6.612  20.141  0.00  0.00    +0.000 F 
ENDBRANCH  16  18
ENDBRANCH   1  14
TORSDOF 4
ENDMDL
MODEL 9
REMARK VINA RESULT:      -8.0      2.782      5.235
REMARK  Name = 
REMARK  5 active torsions:
REMARK  status: ('A' for Active; 'I' for Inactive)
REMARK    1  A    between atoms: C_1  and  C_2
REMARK    2  A    between atoms: C_4  and  C_5
REMARK    3  A    between atoms: C_12  and  C_13
REMARK    4  A    between atoms: C_13  and  C_14
REMARK    5  A    between atoms: N_16  and  C_17
REMARK                            x       y       z     vdW  Elec       q    Type
REMARK                         _______ _______ _______ _____ _____    ______ ____
ROOT
ATOM      1  C   UNL     1       5.599   6.550  16.332  0.00  0.00    +0.000 C 
ENDROOT
BRANCH   1   7
ATOM      2  C   UNL     1       7.731   5.148  18.610  0.00  0.00    +0.000 C 
ATOM      3  C   UNL     1       7.536   6.507  18.075  0.00  0.00    +0.000 A 
ATOM      4  O   UNL     1       8.327   7.480  18.615  0.00  0.00    +0.000 OA
ATOM      5  C   UNL     1       7.946   8.631  17.988  0.00  0.00    +0.000 A 
ATOM      6  N   UNL     1       6.993   8.459  17.086  0.00  0.00    +0.000 NA
ATOM      7  C   UNL     1       6.709   7.105  17.145  0.00  0.00    +0.000 A 
BRANCH   5   8
ATOM      8  C   UNL     1       8.628   9.853  18.405  0.00  0.00    +0.000 A 
ATOM      9  C   UNL     1       9.308   9.926  19.634  0.00  0.00    +0.000 A 
ATOM     10  C   UNL     1       9.985  11.087  20.013  0.00  0.00    +0.000 A 
ATOM     11  C   UNL     1       9.988  12.195  19.169  0.00  0.00    +0.000 A 
ATOM     12  C   UNL     1       9.306  12.149  17.954  0.00  0.00    +0.000 A 
ATOM     13  C   UNL     1       8.628  10.984  17.577  0.00  0.00    +0.000 A 
ENDBRANCH   5   8
ENDBRANCH   1   7
BRANCH   1  14
ATOM     14  C   UNL     1       4.927   5.348  16.958  0.00  0.00    +0.000 C 
ATOM     15  O   UNL     1       5.156   4.209  16.550  0.00  0.00    +0.000 OA
ATOM     16  N   UNL     1       4.050   5.645  17.993  0.00  0.00    +0.000 N 
ATOM     17  H   UNL     1       3.577   6.545  17.933  0.00  0.00    +0.000 HD
BRANCH  16  18
ATOM     18  C   UNL     1       3.363   4.626  18.697  0.00  0.00    +0.000 A 
ATOM     19  C   UNL     1       3.974   3.883  19.710  0.00  0.00    +0.000 A 
ATOM     20  C   UNL     1       3.274   2.840  20.313  0.00  0.00    +0.000 A 
ATOM     21  F   UNL     1       3.853   2.136  21.294  0.00  0.00    +0.000 F 
ATOM     22  C   UNL     1       1.978   2.517  19.917  0.00  0.00    +0.000 A 
ATOM     23  C   UNL     1       1.357   3.275  18.926  0.00  0.00    +0.000 A 
ATOM     24  C   UNL     1       2.040   4.344  18.350  0.00  0.00    +0.000 A 
ATOM     25  F   UNL     1       1.436   5.058  17.391  0.00  0.00    +0.000 F 
ENDBRANCH  16  18
ENDBRANCH   1  14
TORSDOF 4
ENDMDL
