MODEL 1
REMARK VINA RESULT:      -9.0      0.000      0.000
REMARK  Name = 
REMARK  6 active torsions:
REMARK  status: ('A' for Active; 'I' for Inactive)
REMARK    1  A    between atoms: C_1  and  C_2
REMARK    2  A    between atoms: C_5  and  C_6
REMARK    3  A    between atoms: C_11  and  C_13
REMARK    4  A    between atoms: C_13  and  N_14
REMARK    5  A    between atoms: C_15  and  C_16
REMARK    6  A    between atoms: C_27  and  C_28
REMARK                            x       y       z     vdW  Elec       q    Type
REMARK                         _______ _______ _______ _____ _____    ______ ____
ROOT
ATOM      1  C   UNL     1       2.514   7.494  18.430  0.00  0.00    +0.000 A 
ATOM      2  C   UNL     1       2.232   7.408  19.780  0.00  0.00    +0.000 A 
ATOM      3  S   UNL     1       1.224   8.694  20.252  0.00  0.00    +0.000 S 
ATOM      4  C   UNL     1       1.293   9.330  18.668  0.00  0.00    +0.000 A 
ATOM      5  N   UNL     1       0.647  10.500  18.347  0.00  0.00    +0.000 N 
ATOM      6  C   UNL     1       0.224  11.439  19.277  0.00  0.00    +0.000 C 
ATOM      7  O   UNL     1       0.513  11.461  20.473  0.00  0.00    +0.000 OA
ATOM      8  N   UNL     1       1.927   8.584  17.785  0.00  0.00    +0.000 NA
ATOM      9  H   UNL     1       0.641  10.734  17.358  0.00  0.00    +0.000 HD
ENDROOT
BRANCH   1  14
ATOM     10  C   UNL     1       5.952   3.737  15.663  0.00  0.00    +0.000 C 
ATOM     11  C   UNL     1       5.054   4.701  16.375  0.00  0.00    +0.000 A 
ATOM     12  C   UNL     1       5.346   6.061  16.399  0.00  0.00    +0.000 A 
ATOM     13  C   UNL     1       4.506   6.941  17.082  0.00  0.00    +0.000 A 
ATOM     14  C   UNL     1       3.341   6.497  17.745  0.00  0.00    +0.000 A 
ATOM     15  C   UNL     1       3.022   5.126  17.694  0.00  0.00    +0.000 A 
ATOM     16  C   UNL     1       1.788   4.514  18.303  0.00  0.00    +0.000 C 
ATOM     17  C   UNL     1       3.899   4.244  17.024  0.00  0.00    +0.000 A 
ENDBRANCH   1  14
BRANCH   6  18
ATOM     18  C   UNL     1      -0.594  12.591  18.703  0.00  0.00    +0.000 C 
BRANCH  18  19
ATOM     19  N   UNL     1      -1.970  12.480  19.175  0.00  0.00    +0.000 N 
ATOM     20  C   UNL     1      -2.477  13.138  20.278  0.00  0.00    +0.000 A 
ATOM     21  C   UNL     1      -1.590  13.965  21.184  0.00  0.00    +0.000 C 
ATOM     22  N   UNL     1      -3.729  13.090  20.621  0.00  0.00    +0.000 NA
ATOM     23  C   UNL     1      -4.631  12.396  19.814  0.00  0.00    +0.000 A 
ATOM     24  C   UNL     1      -5.996  12.464  20.103  0.00  0.00    +0.000 A 
ATOM     25  C   UNL     1      -6.931  11.843  19.269  0.00  0.00    +0.000 A 
ATOM     26  C   UNL     1      -6.505  11.136  18.146  0.00  0.00    +0.000 A 
ATOM     27  C   UNL     1      -5.144  11.039  17.863  0.00  0.00    +0.000 A 
ATOM     28  C   UNL     1      -4.221  11.675  18.699  0.00  0.00    +0.000 A 
ATOM     29  C   UNL     1      -2.785  11.664  18.393  0.00  0.00    +0.000 A 
ATOM     30  O   UNL     1      -2.363  10.985  17.459  0.00  0.00    +0.000 OA
ENDBRANCH  18  19
ENDBRANCH   6  18
TORSDOF 3
ENDMDL
MODEL 2
REMARK VINA RESULT:      -8.5      1.144      1.968
REMARK  Name = 
REMARK  6 active torsions:
REMARK  status: ('A' for Active; 'I' for Inactive)
REMARK    1  A    between atoms: C_1  and  C_2
REMARK    2  A    between atoms: C_5  and  C_6
REMARK    3  A    between atoms: C_11  and  C_13
REMARK    4  A    between atoms: C_13  and  N_14
REMARK    5  A    between atoms: C_15  and  C_16
REMARK    6  A    between atoms: C_27  and  C_28
REMARK                            x       y       z     vdW  Elec       q    Type
REMARK                         _______ _______ _______ _____ _____    ______ ____
ROOT
ATOM      1  C   UNL     1       2.473   7.494  18.424  0.00  0.00    +0.000 A 
ATOM      2  C   UNL     1       2.135   7.429  19.763  0.00  0.00    +0.000 A 
ATOM      3  S   UNL     1       1.136   8.741  20.180  0.00  0.00    +0.000 S 
ATOM      4  C   UNL     1       1.281   9.357  18.594  0.00  0.00    +0.000 A 
ATOM      5  N   UNL     1       0.671  10.536  18.234  0.00  0.00    +0.000 N 
ATOM      6  C   UNL     1       0.231  11.494  19.136  0.00  0.00    +0.000 C 
ATOM      7  O   UNL     1       0.474  11.524  20.343  0.00  0.00    +0.000 OA
ATOM      8  N   UNL     1       1.934   8.588  17.745  0.00  0.00    +0.000 NA
ATOM      9  H   UNL     1       0.709  10.758  17.244  0.00  0.00    +0.000 HD
ENDROOT
BRANCH   1  14
ATOM     10  C   UNL     1       5.939   3.638  15.836  0.00  0.00    +0.000 C 
ATOM     11  C   UNL     1       5.033   4.627  16.501  0.00  0.00    +0.000 A 
ATOM     12  C   UNL     1       5.346   5.983  16.513  0.00  0.00    +0.000 A 
ATOM     13  C   UNL     1       4.499   6.887  17.153  0.00  0.00    +0.000 A 
ATOM     14  C   UNL     1       3.305   6.473  17.784  0.00  0.00    +0.000 A 
ATOM     15  C   UNL     1       2.966   5.107  17.744  0.00  0.00    +0.000 A 
ATOM     16  C   UNL     1       1.702   4.525  18.321  0.00  0.00    +0.000 C 
ATOM     17  C   UNL     1       3.850   4.200  17.118  0.00  0.00    +0.000 A 
ENDBRANCH   1  14
BRANCH   6  18
ATOM     18  C   UNL     1      -0.539  12.655  18.518  0.00  0.00    +0.000 C 
BRANCH  18  19
ATOM     19  N   UNL     1      -1.967  12.452  18.741  0.00  0.00    +0.000 N 
ATOM     20  C   UNL     1      -2.783  11.674  17.944  0.00  0.00    +0.000 A 
ATOM     21  C   UNL     1      -2.272  11.041  16.667  0.00  0.00    +0.000 C 
ATOM     22  N   UNL     1      -4.030  11.439  18.218  0.00  0.00    +0.000 NA
ATOM     23  C   UNL     1      -4.573  11.936  19.404  0.00  0.00    +0.000 A 
ATOM     24  C   UNL     1      -5.869  11.565  19.769  0.00  0.00    +0.000 A 
ATOM     25  C   UNL     1      -6.413  11.985  20.986  0.00  0.00    +0.000 A 
ATOM     26  C   UNL     1      -5.667  12.793  21.843  0.00  0.00    +0.000 A 
ATOM     27  C   UNL     1      -4.383  13.193  21.477  0.00  0.00    +0.000 A 
ATOM     28  C   UNL     1      -3.848  12.755  20.262  0.00  0.00    +0.000 A 
ATOM     29  C   UNL     1      -2.471  13.087  19.875  0.00  0.00    +0.000 A 
ATOM     30  O   UNL     1      -1.811  13.863  20.563  0.00  0.00    +0.000 OA
ENDBRANCH  18  19
ENDBRANCH   6  18
TORSDOF 3
ENDMDL
MODEL 3
REMARK VINA RESULT:      -8.3      3.543     10.420
REMARK  Name = 
REMARK  6 active torsions:
REMARK  status: ('A' for Active; 'I' for Inactive)
REMARK    1  A    between atoms: C_1  and  C_2
REMARK    2  A    between atoms: C_5  and  C_6
REMARK    3  A    between atoms: C_11  and  C_13
REMARK    4  A    between atoms: C_13  and  N_14
REMARK    5  A    between atoms: C_15  and  C_16
REMARK    6  A    between atoms: C_27  and  C_28
REMARK                            x       y       z     vdW  Elec       q    Type
REMARK                         _______ _______ _______ _____ _____    ______ ____
ROOT
ATOM      1  C   UNL     1       0.184  10.899  20.860  0.00  0.00    +0.000 A 
ATOM      2  C   UNL     1       0.201  10.999  19.481  0.00  0.00    +0.000 A 
ATOM      3  S   UNL     1       0.851   9.582  18.800  0.00  0.00    +0.000 S 
ATOM      4  C   UNL     1       1.146   8.963  20.365  0.00  0.00    +0.000 A 
ATOM      5  N   UNL     1       1.745   7.738  20.539  0.00  0.00    +0.000 N 
ATOM      6  C   UNL     1       2.480   7.082  19.563  0.00  0.00    +0.000 C 
ATOM      7  O   UNL     1       2.854   7.557  18.490  0.00  0.00    +0.000 OA
ATOM      8  N   UNL     1       0.689   9.698  21.359  0.00  0.00    +0.000 NA
ATOM      9  H   UNL     1       1.767   7.400  21.497  0.00  0.00    +0.000 HD
ENDROOT
BRANCH   1  14
ATOM     10  C   UNL     1      -2.107  14.957  24.306  0.00  0.00    +0.000 C 
ATOM     11  C   UNL     1      -1.512  13.917  23.407  0.00  0.00    +0.000 A 
ATOM     12  C   UNL     1      -2.057  12.639  23.340  0.00  0.00    +0.000 A 
ATOM     13  C   UNL     1      -1.478  11.679  22.510  0.00  0.00    +0.000 A 
ATOM     14  C   UNL     1      -0.351  11.968  21.708  0.00  0.00    +0.000 A 
ATOM     15  C   UNL     1       0.182  13.270  21.745  0.00  0.00    +0.000 A 
ATOM     16  C   UNL     1       1.341  13.742  20.908  0.00  0.00    +0.000 C 
ATOM     17  C   UNL     1      -0.398  14.222  22.614  0.00  0.00    +0.000 A 
ENDBRANCH   1  14
BRANCH   6  18
ATOM     18  C   UNL     1       2.932   5.674  19.933  0.00  0.00    +0.000 C 
BRANCH  18  19
ATOM     19  N   UNL     1       3.560   5.054  18.771  0.00  0.00    +0.000 N 
ATOM     20  C   UNL     1       2.878   4.388  17.772  0.00  0.00    +0.000 A 
ATOM     21  C   UNL     1       1.387   4.139  17.862  0.00  0.00    +0.000 C 
ATOM     22  N   UNL     1       3.454   3.925  16.705  0.00  0.00    +0.000 NA
ATOM     23  C   UNL     1       4.816   4.156  16.510  0.00  0.00    +0.000 A 
ATOM     24  C   UNL     1       5.405   3.784  15.299  0.00  0.00    +0.000 A 
ATOM     25  C   UNL     1       6.749   4.071  15.045  0.00  0.00    +0.000 A 
ATOM     26  C   UNL     1       7.520   4.720  16.008  0.00  0.00    +0.000 A 
ATOM     27  C   UNL     1       6.951   5.071  17.230  0.00  0.00    +0.000 A 
ATOM     28  C   UNL     1       5.602   4.788  17.466  0.00  0.00    +0.000 A 
ATOM     29  C   UNL     1       4.943   5.212  18.708  0.00  0.00    +0.000 A 
ATOM     30  O   UNL     1       5.606   5.713  19.614  0.00  0.00    +0.000 OA
ENDBRANCH  18  19
ENDBRANCH   6  18
TORSDOF 3
ENDMDL
MODEL 4
REMARK VINA RESULT:      -8.2      1.376      1.610
REMARK  Name = 
REMARK  6 active torsions:
REMARK  status: ('A' for Active; 'I' for Inactive)
REMARK    1  A    between atoms: C_1  and  C_2
REMARK    2  A    between atoms: C_5  and  C_6
REMARK    3  A    between atoms: C_11  and  C_13
REMARK    4  A    between atoms: C_13  and  N_14
REMARK    5  A    between atoms: C_15  and  C_16
REMARK    6  A    between atoms: C_27  and  C_28
REMARK                            x       y       z     vdW  Elec       q    Type
REMARK                         _______ _______ _______ _____ _____    ______ ____
ROOT
ATOM      1  C   UNL     1       1.733   8.005  19.832  0.00  0.00    +0.000 A 
ATOM      2  C   UNL     1       1.577   7.862  21.199  0.00  0.00    +0.000 A 
ATOM      3  S   UNL     1       0.633   9.134  21.817  0.00  0.00    +0.000 S 
ATOM      4  C   UNL     1       0.561   9.838  20.263  0.00  0.00    +0.000 A 
ATOM      5  N   UNL     1      -0.099  11.026  20.054  0.00  0.00    +0.000 N 
ATOM      6  C   UNL     1      -0.422  11.926  21.059  0.00  0.00    +0.000 C 
ATOM      7  O   UNL     1      -0.022  11.893  22.222  0.00  0.00    +0.000 OA
ATOM      8  N   UNL     1       1.101   9.126  19.293  0.00  0.00    +0.000 NA
ATOM      9  H   UNL     1      -0.195  11.303  19.081  0.00  0.00    +0.000 HD
ENDROOT
BRANCH   1  14
ATOM     10  C   UNL     1       4.794   4.354  16.532  0.00  0.00    +0.000 C 
ATOM     11  C   UNL     1       3.994   5.289  17.386  0.00  0.00    +0.000 A 
ATOM     12  C   UNL     1       4.023   6.662  17.159  0.00  0.00    +0.000 A 
ATOM     13  C   UNL     1       3.285   7.518  17.977  0.00  0.00    +0.000 A 
ATOM     14  C   UNL     1       2.481   7.033  19.031  0.00  0.00    +0.000 A 
ATOM     15  C   UNL     1       2.420   5.641  19.242  0.00  0.00    +0.000 A 
ATOM     16  C   UNL     1       1.565   4.974  20.287  0.00  0.00    +0.000 C 
ATOM     17  C   UNL     1       3.197   4.791  18.424  0.00  0.00    +0.000 A 
ENDBRANCH   1  14
BRANCH   6  18
ATOM     18  C   UNL     1      -1.277  13.109  20.615  0.00  0.00    +0.000 C 
BRANCH  18  19
ATOM     19  N   UNL     1      -2.681  12.713  20.627  0.00  0.00    +0.000 N 
ATOM     20  C   UNL     1      -3.512  12.805  21.726  0.00  0.00    +0.000 A 
ATOM     21  C   UNL     1      -2.990  13.231  23.081  0.00  0.00    +0.000 C 
ATOM     22  N   UNL     1      -4.781  12.530  21.682  0.00  0.00    +0.000 NA
ATOM     23  C   UNL     1      -5.362  12.183  20.462  0.00  0.00    +0.000 A 
ATOM     24  C   UNL     1      -6.748  12.027  20.386  0.00  0.00    +0.000 A 
ATOM     25  C   UNL     1      -7.367  11.755  19.163  0.00  0.00    +0.000 A 
ATOM     26  C   UNL     1      -6.600  11.621  18.006  0.00  0.00    +0.000 A 
ATOM     27  C   UNL     1      -5.215  11.747  18.074  0.00  0.00    +0.000 A 
ATOM     28  C   UNL     1      -4.611  12.032  19.303  0.00  0.00    +0.000 A 
ATOM     29  C   UNL     1      -3.162  12.251  19.404  0.00  0.00    +0.000 A 
ATOM     30  O   UNL     1      -2.443  12.063  18.424  0.00  0.00    +0.000 OA
ENDBRANCH  18  19
ENDBRANCH   6  18
TORSDOF 3
ENDMDL
MODEL 5
REMARK VINA RESULT:      -8.2      6.433     10.530
REMARK  Name = 
REMARK  6 active torsions:
REMARK  status: ('A' for Active; 'I' for Inactive)
REMARK    1  A    between atoms: C_1  and  C_2
REMARK    2  A    between atoms: C_5  and  C_6
REMARK    3  A    between atoms: C_11  and  C_13
REMARK    4  A    between atoms: C_13  and  N_14
REMARK    5  A    between atoms: C_15  and  C_16
REMARK    6  A    between atoms: C_27  and  C_28
REMARK                            x       y       z     vdW  Elec       q    Type
REMARK                         _______ _______ _______ _____ _____    ______ ____
ROOT
ATOM      1  C   UNL     1       1.437  12.854  18.902  0.00  0.00    +0.000 A 
ATOM      2  C   UNL     1       1.585  13.450  20.140  0.00  0.00    +0.000 A 
ATOM      3  S   UNL     1       2.990  14.408  20.165  0.00  0.00    +0.000 S 
ATOM      4  C   UNL     1       3.359  13.910  18.573  0.00  0.00    +0.000 A 
ATOM      5  N   UNL     1       4.500  14.346  17.942  0.00  0.00    +0.000 N 
ATOM      6  C   UNL     1       5.600  14.879  18.599  0.00  0.00    +0.000 C 
ATOM      7  O   UNL     1       5.795  14.875  19.814  0.00  0.00    +0.000 OA
ATOM      8  N   UNL     1       2.443  13.165  17.987  0.00  0.00    +0.000 NA
ATOM      9  H   UNL     1       4.573  14.099  16.960  0.00  0.00    +0.000 HD
ENDROOT
BRANCH   1  14
ATOM     10  C   UNL     1      -3.238   9.656  17.672  0.00  0.00    +0.000 C 
ATOM     11  C   UNL     1      -2.025  10.473  17.995  0.00  0.00    +0.000 A 
ATOM     12  C   UNL     1      -2.135  11.830  18.280  0.00  0.00    +0.000 A 
ATOM     13  C   UNL     1      -0.992  12.578  18.562  0.00  0.00    +0.000 A 
ATOM     14  C   UNL     1       0.294  11.993  18.588  0.00  0.00    +0.000 A 
ATOM     15  C   UNL     1       0.407  10.612  18.335  0.00  0.00    +0.000 A 
ATOM     16  C   UNL     1       1.699   9.840  18.383  0.00  0.00    +0.000 C 
ATOM     17  C   UNL     1      -0.758   9.876  18.022  0.00  0.00    +0.000 A 
ENDBRANCH   1  14
BRANCH   6  18
ATOM     18  C   UNL     1       6.694  15.424  17.687  0.00  0.00    +0.000 C 
BRANCH  18  19
ATOM     19  N   UNL     1       7.989  14.938  18.153  0.00  0.00    +0.000 N 
ATOM     20  C   UNL     1       8.904  15.695  18.856  0.00  0.00    +0.000 A 
ATOM     21  C   UNL     1       8.683  17.171  19.109  0.00  0.00    +0.000 C 
ATOM     22  N   UNL     1      10.009  15.210  19.335  0.00  0.00    +0.000 NA
ATOM     23  C   UNL     1      10.271  13.846  19.198  0.00  0.00    +0.000 A 
ATOM     24  C   UNL     1      11.386  13.298  19.836  0.00  0.00    +0.000 A 
ATOM     25  C   UNL     1      11.633  11.924  19.781  0.00  0.00    +0.000 A 
ATOM     26  C   UNL     1      10.772  11.086  19.072  0.00  0.00    +0.000 A 
ATOM     27  C   UNL     1       9.672  11.625  18.409  0.00  0.00    +0.000 A 
ATOM     28  C   UNL     1       9.431  13.001  18.483  0.00  0.00    +0.000 A 
ATOM     29  C   UNL     1       8.240  13.598  17.866  0.00  0.00    +0.000 A 
ATOM     30  O   UNL     1       7.501  12.908  17.165  0.00  0.00    +0.000 OA
ENDBRANCH  18  19
ENDBRANCH   6  18
TORSDOF 3
ENDMDL
MODEL 6
REMARK VINA RESULT:      -8.1      3.603     10.313
REMARK  Name = 
REMARK  6 active torsions:
REMARK  status: ('A' for Active; 'I' for Inactive)
REMARK    1  A    between atoms: C_1  and  C_2
REMARK    2  A    between atoms: C_5  and  C_6
REMARK    3  A    between atoms: C_11  and  C_13
REMARK    4  A    between atoms: C_13  and  N_14
REMARK    5  A    between atoms: C_15  and  C_16
REMARK    6  A    between atoms: C_27  and  C_28
REMARK                            x       y       z     vdW  Elec       q    Type
REMARK                         _______ _______ _______ _____ _____    ______ ____
ROOT
ATOM      1  C   UNL     1       0.426  11.179  20.744  0.00  0.00    +0.000 A 
ATOM      2  C   UNL     1       0.260  11.159  19.371  0.00  0.00    +0.000 A 
ATOM      3  S   UNL     1       0.744   9.654  18.744  0.00  0.00    +0.000 S 
ATOM      4  C   UNL     1       1.221   9.155  20.306  0.00  0.00    +0.000 A 
ATOM      5  N   UNL     1       1.781   7.916  20.513  0.00  0.00    +0.000 N 
ATOM      6  C   UNL     1       2.345   7.138  19.512  0.00  0.00    +0.000 C 
ATOM      7  O   UNL     1       2.590   7.497  18.361  0.00  0.00    +0.000 OA
ATOM      8  N   UNL     1       0.938   9.997  21.280  0.00  0.00    +0.000 NA
ATOM      9  H   UNL     1       1.917   7.660  21.486  0.00  0.00    +0.000 HD
ENDROOT
BRANCH   1  14
ATOM     10  C   UNL     1      -0.860  15.935  23.795  0.00  0.00    +0.000 C 
ATOM     11  C   UNL     1      -0.529  14.699  23.016  0.00  0.00    +0.000 A 
ATOM     12  C   UNL     1       0.414  14.733  21.994  0.00  0.00    +0.000 A 
ATOM     13  C   UNL     1       0.695  13.575  21.268  0.00  0.00    +0.000 A 
ATOM     14  C   UNL     1       0.062  12.345  21.552  0.00  0.00    +0.000 A 
ATOM     15  C   UNL     1      -0.867  12.297  22.609  0.00  0.00    +0.000 A 
ATOM     16  C   UNL     1      -1.578  11.050  23.065  0.00  0.00    +0.000 C 
ATOM     17  C   UNL     1      -1.163  13.486  23.314  0.00  0.00    +0.000 A 
ENDBRANCH   1  14
BRANCH   6  18
ATOM     18  C   UNL     1       2.777   5.742  19.948  0.00  0.00    +0.000 C 
BRANCH  18  19
ATOM     19  N   UNL     1       3.445   5.080  18.833  0.00  0.00    +0.000 N 
ATOM     20  C   UNL     1       2.800   4.362  17.846  0.00  0.00    +0.000 A 
ATOM     21  C   UNL     1       1.310   4.097  17.905  0.00  0.00    +0.000 C 
ATOM     22  N   UNL     1       3.411   3.859  16.817  0.00  0.00    +0.000 NA
ATOM     23  C   UNL     1       4.776   4.100  16.650  0.00  0.00    +0.000 A 
ATOM     24  C   UNL     1       5.402   3.684  15.473  0.00  0.00    +0.000 A 
ATOM     25  C   UNL     1       6.750   3.978  15.243  0.00  0.00    +0.000 A 
ATOM     26  C   UNL     1       7.485   4.679  16.198  0.00  0.00    +0.000 A 
ATOM     27  C   UNL     1       6.878   5.075  17.387  0.00  0.00    +0.000 A 
ATOM     28  C   UNL     1       5.526   4.785  17.598  0.00  0.00    +0.000 A 
ATOM     29  C   UNL     1       4.827   5.254  18.801  0.00  0.00    +0.000 A 
ATOM     30  O   UNL     1       5.459   5.803  19.702  0.00  0.00    +0.000 OA
ENDBRANCH  18  19
ENDBRANCH   6  18
TORSDOF 3
ENDMDL
MODEL 7
REMARK VINA RESULT:      -8.0      0.858      1.156
REMARK  Name = 
REMARK  6 active torsions:
REMARK  status: ('A' for Active; 'I' for Inactive)
REMARK    1  A    between atoms: C_1  and  C_2
REMARK    2  A    between atoms: C_5  and  C_6
REMARK    3  A    between atoms: C_11  and  C_13
REMARK    4  A    between atoms: C_13  and  N_14
REMARK    5  A    between atoms: C_15  and  C_16
REMARK    6  A    between atoms: C_27  and  C_28
REMARK                            x       y       z     vdW  Elec       q    Type
REMARK                         _______ _______ _______ _____ _____    ______ ____
ROOT
ATOM      1  C   UNL     1       2.583   7.525  18.392  0.00  0.00    +0.000 A 
ATOM      2  C   UNL     1       2.254   7.428  19.731  0.00  0.00    +0.000 A 
ATOM      3  S   UNL     1       1.242   8.719  20.181  0.00  0.00    +0.000 S 
ATOM      4  C   UNL     1       1.370   9.369  18.606  0.00  0.00    +0.000 A 
ATOM      5  N   UNL     1       0.744  10.548  18.275  0.00  0.00    +0.000 N 
ATOM      6  C   UNL     1       0.298  11.481  19.199  0.00  0.00    +0.000 C 
ATOM      7  O   UNL     1       0.547  11.489  20.404  0.00  0.00    +0.000 OA
ATOM      8  N   UNL     1       2.027   8.625  17.738  0.00  0.00    +0.000 NA
ATOM      9  H   UNL     1       0.774  10.791  17.289  0.00  0.00    +0.000 HD
ENDROOT
BRANCH   1  14
ATOM     10  C   UNL     1       6.079   3.765  15.704  0.00  0.00    +0.000 C 
ATOM     11  C   UNL     1       5.166   4.729  16.395  0.00  0.00    +0.000 A 
ATOM     12  C   UNL     1       5.461   6.089  16.430  0.00  0.00    +0.000 A 
ATOM     13  C   UNL     1       4.607   6.969  17.094  0.00  0.00    +0.000 A 
ATOM     14  C   UNL     1       3.424   6.527  17.726  0.00  0.00    +0.000 A 
ATOM     15  C   UNL     1       3.102   5.157  17.663  0.00  0.00    +0.000 A 
ATOM     16  C   UNL     1       1.851   4.547  18.238  0.00  0.00    +0.000 C 
ATOM     17  C   UNL     1       3.994   4.275  17.012  0.00  0.00    +0.000 A 
ENDBRANCH   1  14
BRANCH   6  18
ATOM     18  C   UNL     1      -0.490  12.646  18.609  0.00  0.00    +0.000 C 
BRANCH  18  19
ATOM     19  N   UNL     1      -1.613  12.955  19.489  0.00  0.00    +0.000 N 
ATOM     20  C   UNL     1      -1.607  13.946  20.450  0.00  0.00    +0.000 A 
ATOM     21  C   UNL     1      -0.357  14.742  20.759  0.00  0.00    +0.000 C 
ATOM     22  N   UNL     1      -2.652  14.257  21.156  0.00  0.00    +0.000 NA
ATOM     23  C   UNL     1      -3.863  13.613  20.902  0.00  0.00    +0.000 A 
ATOM     24  C   UNL     1      -5.017  14.047  21.560  0.00  0.00    +0.000 A 
ATOM     25  C   UNL     1      -6.258  13.474  21.270  0.00  0.00    +0.000 A 
ATOM     26  C   UNL     1      -6.353  12.449  20.329  0.00  0.00    +0.000 A 
ATOM     27  C   UNL     1      -5.205  11.990  19.687  0.00  0.00    +0.000 A 
ATOM     28  C   UNL     1      -3.972  12.581  19.978  0.00  0.00    +0.000 A 
ATOM     29  C   UNL     1      -2.751  12.182  19.266  0.00  0.00    +0.000 A 
ATOM     30  O   UNL     1      -2.778  11.229  18.490  0.00  0.00    +0.000 OA
ENDBRANCH  18  19
ENDBRANCH   6  18
TORSDOF 3
ENDMDL
MODEL 8
REMARK VINA RESULT:      -8.0      3.137      5.040
REMARK  Name = 
REMARK  6 active torsions:
REMARK  status: ('A' for Active; 'I' for Inactive)
REMARK    1  A    between atoms: C_1  and  C_2
REMARK    2  A    between atoms: C_5  and  C_6
REMARK    3  A    between atoms: C_11  and  C_13
REMARK    4  A    between atoms: C_13  and  N_14
REMARK    5  A    between atoms: C_15  and  C_16
REMARK    6  A    between atoms: C_27  and  C_28
REMARK                            x       y       z     vdW  Elec       q    Type
REMARK                         _______ _______ _______ _____ _____    ______ ____
ROOT
ATOM      1  C   UNL     1       2.754   6.869  18.737  0.00  0.00    +0.000 A 
ATOM      2  C   UNL     1       2.446   6.479  20.027  0.00  0.00    +0.000 A 
ATOM      3  S   UNL     1       1.487   7.662  20.783  0.00  0.00    +0.000 S 
ATOM      4  C   UNL     1       1.608   8.650  19.395  0.00  0.00    +0.000 A 
ATOM      5  N   UNL     1       1.018   9.891  19.356  0.00  0.00    +0.000 N 
ATOM      6  C   UNL     1       0.620  10.602  20.479  0.00  0.00    +0.000 C 
ATOM      7  O   UNL     1       0.890  10.327  21.648  0.00  0.00    +0.000 OA
ATOM      8  N   UNL     1       2.225   8.105  18.365  0.00  0.00    +0.000 NA
ATOM      9  H   UNL     1       1.038  10.351  18.451  0.00  0.00    +0.000 HD
ENDROOT
BRANCH   1  14
ATOM     10  C   UNL     1       6.073   3.720  15.179  0.00  0.00    +0.000 C 
ATOM     11  C   UNL     1       5.205   4.528  16.094  0.00  0.00    +0.000 A 
ATOM     12  C   UNL     1       5.550   5.833  16.434  0.00  0.00    +0.000 A 
ATOM     13  C   UNL     1       4.738   6.563  17.301  0.00  0.00    +0.000 A 
ATOM     14  C   UNL     1       3.549   6.025  17.841  0.00  0.00    +0.000 A 
ATOM     15  C   UNL     1       3.177   4.718  17.471  0.00  0.00    +0.000 A 
ATOM     16  C   UNL     1       1.913   4.032  17.919  0.00  0.00    +0.000 C 
ATOM     17  C   UNL     1       4.026   3.981  16.616  0.00  0.00    +0.000 A 
ENDBRANCH   1  14
BRANCH   6  18
ATOM     18  C   UNL     1      -0.138  11.893  20.190  0.00  0.00    +0.000 C 
BRANCH  18  19
ATOM     19  N   UNL     1       0.642  13.024  20.681  0.00  0.00    +0.000 N 
ATOM     20  C   UNL     1       0.397  13.692  21.864  0.00  0.00    +0.000 A 
ATOM     21  C   UNL     1      -0.808  13.369  22.720  0.00  0.00    +0.000 C 
ATOM     22  N   UNL     1       1.163  14.637  22.318  0.00  0.00    +0.000 NA
ATOM     23  C   UNL     1       2.328  14.964  21.623  0.00  0.00    +0.000 A 
ATOM     24  C   UNL     1       3.223  15.877  22.184  0.00  0.00    +0.000 A 
ATOM     25  C   UNL     1       4.434  16.168  21.549  0.00  0.00    +0.000 A 
ATOM     26  C   UNL     1       4.752  15.556  20.337  0.00  0.00    +0.000 A 
ATOM     27  C   UNL     1       3.855  14.665  19.754  0.00  0.00    +0.000 A 
ATOM     28  C   UNL     1       2.653  14.375  20.407  0.00  0.00    +0.000 A 
ATOM     29  C   UNL     1       1.716  13.381  19.867  0.00  0.00    +0.000 A 
ATOM     30  O   UNL     1       1.921  12.881  18.763  0.00  0.00    +0.000 OA
ENDBRANCH  18  19
ENDBRANCH   6  18
TORSDOF 3
ENDMDL
MODEL 9
REMARK VINA RESULT:      -7.9      1.537      2.520
REMARK  Name = 
REMARK  6 active torsions:
REMARK  status: ('A' for Active; 'I' for Inactive)
REMARK    1  A    between atoms: C_1  and  C_2
REMARK    2  A    between atoms: C_5  and  C_6
REMARK    3  A    between atoms: C_11  and  C_13
REMARK    4  A    between atoms: C_13  and  N_14
REMARK    5  A    between atoms: C_15  and  C_16
REMARK    6  A    between atoms: C_27  and  C_28
REMARK                            x       y       z     vdW  Elec       q    Type
REMARK                         _______ _______ _______ _____ _____    ______ ____
ROOT
ATOM      1  C   UNL     1       2.575   7.337  18.539  0.00  0.00    +0.000 A 
ATOM      2  C   UNL     1       2.192   7.182  19.858  0.00  0.00    +0.000 A 
ATOM      3  S   UNL     1       1.259   8.513  20.358  0.00  0.00    +0.000 S 
ATOM      4  C   UNL     1       1.490   9.249  18.834  0.00  0.00    +0.000 A 
ATOM      5  N   UNL     1       0.963  10.489  18.560  0.00  0.00    +0.000 N 
ATOM      6  C   UNL     1       0.552  11.393  19.529  0.00  0.00    +0.000 C 
ATOM      7  O   UNL     1       0.756  11.307  20.739  0.00  0.00    +0.000 OA
ATOM      8  N   UNL     1       2.124   8.515  17.941  0.00  0.00    +0.000 NA
ATOM      9  H   UNL     1       1.046  10.791  17.594  0.00  0.00    +0.000 HD
ENDROOT
BRANCH   1  14
ATOM     10  C   UNL     1       5.887   3.507  15.720  0.00  0.00    +0.000 C 
ATOM     11  C   UNL     1       5.021   4.491  16.445  0.00  0.00    +0.000 A 
ATOM     12  C   UNL     1       5.401   5.824  16.559  0.00  0.00    +0.000 A 
ATOM     13  C   UNL     1       4.590   6.722  17.253  0.00  0.00    +0.000 A 
ATOM     14  C   UNL     1       3.366   6.324  17.836  0.00  0.00    +0.000 A 
ATOM     15  C   UNL     1       2.960   4.983  17.692  0.00  0.00    +0.000 A 
ATOM     16  C   UNL     1       1.659   4.426  18.209  0.00  0.00    +0.000 C 
ATOM     17  C   UNL     1       3.808   4.081  17.013  0.00  0.00    +0.000 A 
ENDBRANCH   1  14
BRANCH   6  18
ATOM     18  C   UNL     1      -0.129  12.648  18.992  0.00  0.00    +0.000 C 
BRANCH  18  19
ATOM     19  N   UNL     1      -1.453  12.766  19.594  0.00  0.00    +0.000 N 
ATOM     20  C   UNL     1      -2.570  12.071  19.177  0.00  0.00    +0.000 A 
ATOM     21  C   UNL     1      -2.540  11.187  17.948  0.00  0.00    +0.000 C 
ATOM     22  N   UNL     1      -3.714  12.130  19.789  0.00  0.00    +0.000 NA
ATOM     23  C   UNL     1      -3.821  12.876  20.963  0.00  0.00    +0.000 A 
ATOM     24  C   UNL     1      -5.008  12.824  21.698  0.00  0.00    +0.000 A 
ATOM     25  C   UNL     1      -5.119  13.499  22.917  0.00  0.00    +0.000 A 
ATOM     26  C   UNL     1      -4.047  14.246  23.403  0.00  0.00    +0.000 A 
ATOM     27  C   UNL     1      -2.868  14.328  22.665  0.00  0.00    +0.000 A 
ATOM     28  C   UNL     1      -2.767  13.637  21.454  0.00  0.00    +0.000 A 
ATOM     29  C   UNL     1      -1.516  13.632  20.684  0.00  0.00    +0.000 A 
ATOM     30  O   UNL     1      -0.576  14.342  21.037  0.00  0.00    +0.000 OA
ENDBRANCH  18  19
ENDBRANCH   6  18
TORSDOF 3
ENDMDL
