MODEL 1
REMARK VINA RESULT:      -9.7      0.000      0.000
REMARK  Name = 
REMARK  9 active torsions:
REMARK  status: ('A' for Active; 'I' for Inactive)
REMARK    1  A    between atoms: C_1  and  O_2
REMARK    2  A    between atoms: O_2  and  C_3
REMARK    3  A    between atoms: C_6  and  C_7
REMARK    4  A    between atoms: C_9  and  N_10
REMARK    5  A    between atoms: C_11  and  C_13
REMARK    6  A    between atoms: C_13  and  N_14
REMARK    7  A    between atoms: C_13  and  C_25
REMARK    8  A    between atoms: N_14  and  C_15
REMARK    9  A    between atoms: C_20  and  C_21
REMARK                            x       y       z     vdW  Elec       q    Type
REMARK                         _______ _______ _______ _____ _____    ______ ____
ROOT
ATOM      1  C   UNL     1       2.137   6.273  19.269  0.00  0.00    +0.000 C 
ENDROOT
BRANCH   1   2
ATOM      2  C   UNL     1       1.928   4.900  19.924  0.00  0.00    +0.000 A 
ATOM      3  C   UNL     1       2.422   4.620  21.216  0.00  0.00    +0.000 A 
ATOM      4  C   UNL     1       2.121   3.423  21.869  0.00  0.00    +0.000 A 
ATOM      5  C   UNL     1       1.309   2.478  21.251  0.00  0.00    +0.000 A 
ATOM      6  C   UNL     1       0.823   2.722  19.967  0.00  0.00    +0.000 A 
ATOM      7  C   UNL     1       1.130   3.920  19.310  0.00  0.00    +0.000 A 
ENDBRANCH   1   2
BRANCH   1   9
ATOM      8  N   UNL     1       4.013   5.094  18.102  0.00  0.00    +0.000 N 
ATOM      9  C   UNL     1       3.362   6.310  18.306  0.00  0.00    +0.000 C 
ATOM     10  O   UNL     1       3.644   7.369  17.738  0.00  0.00    +0.000 OA
ATOM     11  H   UNL     1       3.603   4.244  18.483  0.00  0.00    +0.000 HD
BRANCH   8  18
ATOM     12  C   UNL     1       6.433   4.879  17.746  0.00  0.00    +0.000 A 
ATOM     13  C   UNL     1       7.513   4.592  16.895  0.00  0.00    +0.000 A 
ATOM     14  C   UNL     1       7.309   4.313  15.544  0.00  0.00    +0.000 A 
ATOM     15  C   UNL     1       6.022   4.326  15.018  0.00  0.00    +0.000 A 
ATOM     16  C   UNL     1       5.762   4.017  13.575  0.00  0.00    +0.000 C 
ATOM     17  C   UNL     1       4.940   4.614  15.863  0.00  0.00    +0.000 A 
ATOM     18  C   UNL     1       5.117   4.864  17.231  0.00  0.00    +0.000 A 
BRANCH  12  20
ATOM     19  C   UNL     1       7.826   5.748  19.469  0.00  0.00    +0.000 C 
ATOM     20  O   UNL     1       6.577   5.160  19.087  0.00  0.00    +0.000 OA
ENDBRANCH  12  20
ENDBRANCH   8  18
ENDBRANCH   1   9
BRANCH   1  21
ATOM     21  N   UNL     1       2.389   7.287  20.320  0.00  0.00    +0.000 N 
ATOM     22  H   UNL     1       3.362   7.603  20.235  0.00  0.00    +0.000 HD
BRANCH  21  23
ATOM     23  C   UNL     1       1.500   8.343  20.529  0.00  0.00    +0.000 A 
ATOM     24  C   UNL     1       1.119   9.131  19.422  0.00  0.00    +0.000 A 
ATOM     25  C   UNL     1       0.310  10.272  19.539  0.00  0.00    +0.000 A 
ATOM     26  C   UNL     1      -0.079  10.593  20.829  0.00  0.00    +0.000 A 
ATOM     27  O   UNL     1      -0.861  11.637  21.227  0.00  0.00    +0.000 OA
ATOM     28  C   UNL     1      -0.926  11.495  22.588  0.00  0.00    +0.000 A 
ATOM     29  C   UNL     1      -1.753  12.477  23.315  0.00  0.00    +0.000 C 
ATOM     30  N   UNL     1      -0.253  10.469  23.074  0.00  0.00    +0.000 NA
ATOM     31  C   UNL     1       0.287   9.882  21.957  0.00  0.00    +0.000 A 
ATOM     32  C   UNL     1       1.104   8.752  21.818  0.00  0.00    +0.000 A 
ENDBRANCH  21  23
ENDBRANCH   1  21
TORSDOF 6
ENDMDL
MODEL 2
REMARK VINA RESULT:      -9.3      1.020      1.645
REMARK  Name = 
REMARK  9 active torsions:
REMARK  status: ('A' for Active; 'I' for Inactive)
REMARK    1  A    between atoms: C_1  and  O_2
REMARK    2  A    between atoms: O_2  and  C_3
REMARK    3  A    between atoms: C_6  and  C_7
REMARK    4  A    between atoms: C_9  and  N_10
REMARK    5  A    between atoms: C_11  and  C_13
REMARK    6  A    between atoms: C_13  and  N_14
REMARK    7  A    between atoms: C_13  and  C_25
REMARK    8  A    between atoms: N_14  and  C_15
REMARK    9  A    between atoms: C_20  and  C_21
REMARK                            x       y       z     vdW  Elec       q    Type
REMARK                         _______ _______ _______ _____ _____    ______ ____
ROOT
ATOM      1  C   UNL     1       2.096   6.406  19.318  0.00  0.00    +0.000 C 
ENDROOT
BRANCH   1   2
ATOM      2  C   UNL     1       1.801   5.025  19.921  0.00  0.00    +0.000 A 
ATOM      3  C   UNL     1       1.196   4.005  19.157  0.00  0.00    +0.000 A 
ATOM      4  C   UNL     1       1.048   2.708  19.658  0.00  0.00    +0.000 A 
ATOM      5  C   UNL     1       1.509   2.398  20.933  0.00  0.00    +0.000 A 
ATOM      6  C   UNL     1       2.093   3.393  21.716  0.00  0.00    +0.000 A 
ATOM      7  C   UNL     1       2.237   4.693  21.216  0.00  0.00    +0.000 A 
ENDBRANCH   1   2
BRANCH   1   9
ATOM      8  N   UNL     1       3.979   5.181  18.212  0.00  0.00    +0.000 N 
ATOM      9  C   UNL     1       3.322   6.403  18.356  0.00  0.00    +0.000 C 
ATOM     10  O   UNL     1       3.600   7.435  17.738  0.00  0.00    +0.000 OA
ATOM     11  H   UNL     1       3.573   4.349  18.632  0.00  0.00    +0.000 HD
BRANCH   8  18
ATOM     12  C   UNL     1       6.397   4.900  17.882  0.00  0.00    +0.000 A 
ATOM     13  C   UNL     1       7.477   4.578  17.044  0.00  0.00    +0.000 A 
ATOM     14  C   UNL     1       7.279   4.293  15.694  0.00  0.00    +0.000 A 
ATOM     15  C   UNL     1       5.998   4.336  15.154  0.00  0.00    +0.000 A 
ATOM     16  C   UNL     1       5.745   4.023  13.711  0.00  0.00    +0.000 C 
ATOM     17  C   UNL     1       4.916   4.660  15.985  0.00  0.00    +0.000 A 
ATOM     18  C   UNL     1       5.086   4.916  17.353  0.00  0.00    +0.000 A 
BRANCH  12  20
ATOM     19  C   UNL     1       7.809   5.705  19.619  0.00  0.00    +0.000 C 
ATOM     20  O   UNL     1       6.534   5.187  19.222  0.00  0.00    +0.000 OA
ENDBRANCH  12  20
ENDBRANCH   8  18
ENDBRANCH   1   9
BRANCH   1  21
ATOM     21  N   UNL     1       2.409   7.363  20.406  0.00  0.00    +0.000 N 
ATOM     22  H   UNL     1       3.382   7.670  20.293  0.00  0.00    +0.000 HD
BRANCH  21  23
ATOM     23  C   UNL     1       1.547   8.418  20.706  0.00  0.00    +0.000 A 
ATOM     24  C   UNL     1       1.109   8.572  22.039  0.00  0.00    +0.000 A 
ATOM     25  C   UNL     1       0.168   9.538  22.427  0.00  0.00    +0.000 A 
ATOM     26  C   UNL     1      -0.327  10.328  21.403  0.00  0.00    +0.000 A 
ATOM     27  O   UNL     1      -1.242  11.336  21.497  0.00  0.00    +0.000 OA
ATOM     28  C   UNL     1      -1.379  11.773  20.206  0.00  0.00    +0.000 A 
ATOM     29  C   UNL     1      -2.293  12.909  19.987  0.00  0.00    +0.000 C 
ATOM     30  N   UNL     1      -0.646  11.127  19.318  0.00  0.00    +0.000 NA
ATOM     31  C   UNL     1       0.035  10.206  20.074  0.00  0.00    +0.000 A 
ATOM     32  C   UNL     1       0.969   9.227  19.707  0.00  0.00    +0.000 A 
ENDBRANCH  21  23
ENDBRANCH   1  21
TORSDOF 6
ENDMDL
MODEL 3
REMARK VINA RESULT:      -8.7      1.441      1.788
REMARK  Name = 
REMARK  9 active torsions:
REMARK  status: ('A' for Active; 'I' for Inactive)
REMARK    1  A    between atoms: C_1  and  O_2
REMARK    2  A    between atoms: O_2  and  C_3
REMARK    3  A    between atoms: C_6  and  C_7
REMARK    4  A    between atoms: C_9  and  N_10
REMARK    5  A    between atoms: C_11  and  C_13
REMARK    6  A    between atoms: C_13  and  N_14
REMARK    7  A    between atoms: C_13  and  C_25
REMARK    8  A    between atoms: N_14  and  C_15
REMARK    9  A    between atoms: C_20  and  C_21
REMARK                            x       y       z     vdW  Elec       q    Type
REMARK                         _______ _______ _______ _____ _____    ______ ____
ROOT
ATOM      1  C   UNL     1       2.437   5.192  18.375  0.00  0.00    +0.000 C 
ENDROOT
BRANCH   1   2
ATOM      2  C   UNL     1       2.307   4.270  19.597  0.00  0.00    +0.000 A 
ATOM      3  C   UNL     1       1.047   3.961  20.152  0.00  0.00    +0.000 A 
ATOM      4  C   UNL     1       0.911   3.020  21.176  0.00  0.00    +0.000 A 
ATOM      5  C   UNL     1       2.032   2.357  21.665  0.00  0.00    +0.000 A 
ATOM      6  C   UNL     1       3.292   2.659  21.147  0.00  0.00    +0.000 A 
ATOM      7  C   UNL     1       3.427   3.606  20.124  0.00  0.00    +0.000 A 
ENDBRANCH   1   2
BRANCH   1   9
ATOM      8  N   UNL     1       4.359   5.481  16.797  0.00  0.00    +0.000 N 
ATOM      9  C   UNL     1       3.374   4.616  17.271  0.00  0.00    +0.000 C 
ATOM     10  O   UNL     1       3.243   3.436  16.933  0.00  0.00    +0.000 OA
ATOM     11  H   UNL     1       4.494   6.378  17.258  0.00  0.00    +0.000 HD
BRANCH   8  18
ATOM     12  C   UNL     1       6.709   5.512  16.086  0.00  0.00    +0.000 A 
ATOM     13  C   UNL     1       7.702   5.147  15.161  0.00  0.00    +0.000 A 
ATOM     14  C   UNL     1       7.376   4.470  13.987  0.00  0.00    +0.000 A 
ATOM     15  C   UNL     1       6.049   4.154  13.711  0.00  0.00    +0.000 A 
ATOM     16  C   UNL     1       5.663   3.415  12.467  0.00  0.00    +0.000 C 
ATOM     17  C   UNL     1       5.055   4.518  14.630  0.00  0.00    +0.000 A 
ATOM     18  C   UNL     1       5.362   5.169  15.833  0.00  0.00    +0.000 A 
BRANCH  12  20
ATOM     19  C   UNL     1       7.578   5.397  18.298  0.00  0.00    +0.000 C 
ATOM     20  O   UNL     1       6.975   6.179  17.261  0.00  0.00    +0.000 OA
ENDBRANCH  12  20
ENDBRANCH   8  18
ENDBRANCH   1   9
BRANCH   1  21
ATOM     21  N   UNL     1       3.019   6.488  18.797  0.00  0.00    +0.000 N 
ATOM     22  H   UNL     1       3.718   6.768  18.098  0.00  0.00    +0.000 HD
BRANCH  21  23
ATOM     23  C   UNL     1       2.204   7.549  19.192  0.00  0.00    +0.000 A 
ATOM     24  C   UNL     1       1.933   8.574  18.260  0.00  0.00    +0.000 A 
ATOM     25  C   UNL     1       1.207   9.730  18.586  0.00  0.00    +0.000 A 
ATOM     26  C   UNL     1       0.785   9.813  19.902  0.00  0.00    +0.000 A 
ATOM     27  O   UNL     1       0.065  10.816  20.483  0.00  0.00    +0.000 OA
ATOM     28  C   UNL     1      -0.073  10.406  21.783  0.00  0.00    +0.000 A 
ATOM     29  C   UNL     1      -0.857  11.285  22.672  0.00  0.00    +0.000 C 
ATOM     30  N   UNL     1       0.499   9.252  22.068  0.00  0.00    +0.000 NA
ATOM     31  C   UNL     1       1.044   8.861  20.870  0.00  0.00    +0.000 A 
ATOM     32  C   UNL     1       1.780   7.719  20.525  0.00  0.00    +0.000 A 
ENDBRANCH  21  23
ENDBRANCH   1  21
TORSDOF 6
ENDMDL
MODEL 4
REMARK VINA RESULT:      -8.3      1.844      2.258
REMARK  Name = 
REMARK  9 active torsions:
REMARK  status: ('A' for Active; 'I' for Inactive)
REMARK    1  A    between atoms: C_1  and  O_2
REMARK    2  A    between atoms: O_2  and  C_3
REMARK    3  A    between atoms: C_6  and  C_7
REMARK    4  A    between atoms: C_9  and  N_10
REMARK    5  A    between atoms: C_11  and  C_13
REMARK    6  A    between atoms: C_13  and  N_14
REMARK    7  A    between atoms: C_13  and  C_25
REMARK    8  A    between atoms: N_14  and  C_15
REMARK    9  A    between atoms: C_20  and  C_21
REMARK                            x       y       z     vdW  Elec       q    Type
REMARK                         _______ _______ _______ _____ _____    ______ ____
ROOT
ATOM      1  C   UNL     1       2.367   5.242  18.509  0.00  0.00    +0.000 C 
ENDROOT
BRANCH   1   2
ATOM      2  C   UNL     1       2.291   4.275  19.701  0.00  0.00    +0.000 A 
ATOM      3  C   UNL     1       1.059   3.960  20.312  0.00  0.00    +0.000 A 
ATOM      4  C   UNL     1       0.967   2.982  21.306  0.00  0.00    +0.000 A 
ATOM      5  C   UNL     1       2.103   2.288  21.707  0.00  0.00    +0.000 A 
ATOM      6  C   UNL     1       3.337   2.594  21.132  0.00  0.00    +0.000 A 
ATOM      7  C   UNL     1       3.429   3.577  20.140  0.00  0.00    +0.000 A 
ENDBRANCH   1   2
BRANCH   1   9
ATOM      8  N   UNL     1       4.329   5.470  16.971  0.00  0.00    +0.000 N 
ATOM      9  C   UNL     1       3.228   4.694  17.332  0.00  0.00    +0.000 C 
ATOM     10  O   UNL     1       2.939   3.601  16.838  0.00  0.00    +0.000 OA
ATOM     11  H   UNL     1       4.582   6.269  17.548  0.00  0.00    +0.000 HD
BRANCH   8  18
ATOM     12  C   UNL     1       6.654   5.460  16.180  0.00  0.00    +0.000 A 
ATOM     13  C   UNL     1       7.605   5.091  15.214  0.00  0.00    +0.000 A 
ATOM     14  C   UNL     1       7.223   4.444  14.040  0.00  0.00    +0.000 A 
ATOM     15  C   UNL     1       5.881   4.164  13.805  0.00  0.00    +0.000 A 
ATOM     16  C   UNL     1       5.434   3.459  12.561  0.00  0.00    +0.000 C 
ATOM     17  C   UNL     1       4.927   4.533  14.764  0.00  0.00    +0.000 A 
ATOM     18  C   UNL     1       5.291   5.153  15.968  0.00  0.00    +0.000 A 
BRANCH  12  20
ATOM     19  C   UNL     1       7.648   5.297  18.336  0.00  0.00    +0.000 C 
ATOM     20  O   UNL     1       6.976   6.099  17.357  0.00  0.00    +0.000 OA
ENDBRANCH  12  20
ENDBRANCH   8  18
ENDBRANCH   1   9
BRANCH   1  21
ATOM     21  N   UNL     1       2.996   6.512  18.945  0.00  0.00    +0.000 N 
ATOM     22  H   UNL     1       3.689   6.785  18.238  0.00  0.00    +0.000 HD
BRANCH  21  23
ATOM     23  C   UNL     1       2.220   7.587  19.378  0.00  0.00    +0.000 A 
ATOM     24  C   UNL     1       1.721   7.570  20.697  0.00  0.00    +0.000 A 
ATOM     25  C   UNL     1       0.853   8.552  21.199  0.00  0.00    +0.000 A 
ATOM     26  C   UNL     1       0.495   9.542  20.299  0.00  0.00    +0.000 A 
ATOM     27  O   UNL     1      -0.324  10.610  20.519  0.00  0.00    +0.000 OA
ATOM     28  C   UNL     1      -0.343  11.260  19.313  0.00  0.00    +0.000 A 
ATOM     29  C   UNL     1      -1.133  12.505  19.247  0.00  0.00    +0.000 C 
ATOM     30  N   UNL     1       0.377  10.693  18.363  0.00  0.00    +0.000 NA
ATOM     31  C   UNL     1       0.923   9.599  18.986  0.00  0.00    +0.000 A 
ATOM     32  C   UNL     1       1.781   8.601  18.503  0.00  0.00    +0.000 A 
ENDBRANCH  21  23
ENDBRANCH   1  21
TORSDOF 6
ENDMDL
MODEL 5
REMARK VINA RESULT:      -8.1      2.099      8.195
REMARK  Name = 
REMARK  9 active torsions:
REMARK  status: ('A' for Active; 'I' for Inactive)
REMARK    1  A    between atoms: C_1  and  O_2
REMARK    2  A    between atoms: O_2  and  C_3
REMARK    3  A    between atoms: C_6  and  C_7
REMARK    4  A    between atoms: C_9  and  N_10
REMARK    5  A    between atoms: C_11  and  C_13
REMARK    6  A    between atoms: C_13  and  N_14
REMARK    7  A    between atoms: C_13  and  C_25
REMARK    8  A    between atoms: N_14  and  C_15
REMARK    9  A    between atoms: C_20  and  C_21
REMARK                            x       y       z     vdW  Elec       q    Type
REMARK                         _______ _______ _______ _____ _____    ______ ____
ROOT
ATOM      1  C   UNL     1       3.379   5.499  19.998  0.00  0.00    +0.000 C 
ENDROOT
BRANCH   1   2
ATOM      2  C   UNL     1       3.016   4.242  19.194  0.00  0.00    +0.000 A 
ATOM      3  C   UNL     1       2.254   4.324  18.009  0.00  0.00    +0.000 A 
ATOM      4  C   UNL     1       2.035   3.204  17.203  0.00  0.00    +0.000 A 
ATOM      5  C   UNL     1       2.580   1.974  17.557  0.00  0.00    +0.000 A 
ATOM      6  C   UNL     1       3.321   1.862  18.733  0.00  0.00    +0.000 A 
ATOM      7  C   UNL     1       3.536   2.984  19.543  0.00  0.00    +0.000 A 
ENDBRANCH   1   2
BRANCH   1   9
ATOM      8  N   UNL     1       2.254   7.726  20.210  0.00  0.00    +0.000 N 
ATOM      9  C   UNL     1       2.135   6.349  20.397  0.00  0.00    +0.000 C 
ATOM     10  O   UNL     1       1.115   5.771  20.783  0.00  0.00    +0.000 OA
ATOM     11  H   UNL     1       3.072   8.091  19.729  0.00  0.00    +0.000 HD
BRANCH   8  18
ATOM     12  C   UNL     1       0.708   9.439  19.368  0.00  0.00    +0.000 A 
ATOM     13  C   UNL     1      -0.333  10.353  19.600  0.00  0.00    +0.000 A 
ATOM     14  C   UNL     1      -0.837  10.557  20.884  0.00  0.00    +0.000 A 
ATOM     15  C   UNL     1      -0.301   9.859  21.961  0.00  0.00    +0.000 A 
ATOM     16  C   UNL     1      -0.825  10.041  23.352  0.00  0.00    +0.000 C 
ATOM     17  C   UNL     1       0.740   8.947  21.735  0.00  0.00    +0.000 A 
ATOM     18  C   UNL     1       1.240   8.699  20.449  0.00  0.00    +0.000 A 
BRANCH  12  20
ATOM     19  C   UNL     1       2.294  10.078  17.713  0.00  0.00    +0.000 C 
ATOM     20  O   UNL     1       1.242   9.197  18.121  0.00  0.00    +0.000 OA
ENDBRANCH  12  20
ENDBRANCH   8  18
ENDBRANCH   1   9
BRANCH   1  21
ATOM     21  N   UNL     1       4.250   6.374  19.178  0.00  0.00    +0.000 N 
ATOM     22  H   UNL     1       4.729   7.029  19.807  0.00  0.00    +0.000 HD
BRANCH  21  23
ATOM     23  C   UNL     1       5.103   5.838  18.212  0.00  0.00    +0.000 A 
ATOM     24  C   UNL     1       6.297   5.220  18.638  0.00  0.00    +0.000 A 
ATOM     25  C   UNL     1       7.268   4.738  17.746  0.00  0.00    +0.000 A 
ATOM     26  C   UNL     1       6.985   4.928  16.403  0.00  0.00    +0.000 A 
ATOM     27  O   UNL     1       7.744   4.558  15.332  0.00  0.00    +0.000 OA
ATOM     28  C   UNL     1       7.016   4.984  14.253  0.00  0.00    +0.000 A 
ATOM     29  C   UNL     1       7.574   4.686  12.921  0.00  0.00    +0.000 C 
ATOM     30  N   UNL     1       5.882   5.591  14.551  0.00  0.00    +0.000 NA
ATOM     31  C   UNL     1       5.850   5.554  15.922  0.00  0.00    +0.000 A 
ATOM     32  C   UNL     1       4.899   6.038  16.832  0.00  0.00    +0.000 A 
ENDBRANCH  21  23
ENDBRANCH   1  21
TORSDOF 6
ENDMDL
MODEL 6
REMARK VINA RESULT:      -8.0      1.279      2.132
REMARK  Name = 
REMARK  9 active torsions:
REMARK  status: ('A' for Active; 'I' for Inactive)
REMARK    1  A    between atoms: C_1  and  O_2
REMARK    2  A    between atoms: O_2  and  C_3
REMARK    3  A    between atoms: C_6  and  C_7
REMARK    4  A    between atoms: C_9  and  N_10
REMARK    5  A    between atoms: C_11  and  C_13
REMARK    6  A    between atoms: C_13  and  N_14
REMARK    7  A    between atoms: C_13  and  C_25
REMARK    8  A    between atoms: N_14  and  C_15
REMARK    9  A    between atoms: C_20  and  C_21
REMARK                            x       y       z     vdW  Elec       q    Type
REMARK                         _______ _______ _______ _____ _____    ______ ____
ROOT
ATOM      1  C   UNL     1       1.596   6.488  19.723  0.00  0.00    +0.000 C 
ENDROOT
BRANCH   1   2
ATOM      2  C   UNL     1       1.541   5.049  20.256  0.00  0.00    +0.000 A 
ATOM      3  C   UNL     1       0.926   4.015  19.517  0.00  0.00    +0.000 A 
ATOM      4  C   UNL     1       0.990   2.683  19.933  0.00  0.00    +0.000 A 
ATOM      5  C   UNL     1       1.679   2.348  21.094  0.00  0.00    +0.000 A 
ATOM      6  C   UNL     1       2.279   3.353  21.853  0.00  0.00    +0.000 A 
ATOM      7  C   UNL     1       2.210   4.688  21.438  0.00  0.00    +0.000 A 
ENDBRANCH   1   2
BRANCH   1   9
ATOM      8  N   UNL     1       3.774   5.744  18.736  0.00  0.00    +0.000 N 
ATOM      9  C   UNL     1       2.794   6.736  18.757  0.00  0.00    +0.000 C 
ATOM     10  O   UNL     1       2.779   7.735  18.032  0.00  0.00    +0.000 OA
ATOM     11  H   UNL     1       3.613   4.878  19.244  0.00  0.00    +0.000 HD
BRANCH   8  18
ATOM     12  C   UNL     1       5.040   4.742  16.885  0.00  0.00    +0.000 A 
ATOM     13  C   UNL     1       6.152   4.760  16.027  0.00  0.00    +0.000 A 
ATOM     14  C   UNL     1       7.158   5.714  16.173  0.00  0.00    +0.000 A 
ATOM     15  C   UNL     1       7.076   6.661  17.188  0.00  0.00    +0.000 A 
ATOM     16  C   UNL     1       8.130   7.710  17.367  0.00  0.00    +0.000 C 
ATOM     17  C   UNL     1       5.970   6.646  18.049  0.00  0.00    +0.000 A 
ATOM     18  C   UNL     1       4.929   5.719  17.901  0.00  0.00    +0.000 A 
BRANCH  12  20
ATOM     19  C   UNL     1       4.057   2.745  17.724  0.00  0.00    +0.000 C 
ATOM     20  O   UNL     1       4.018   3.825  16.785  0.00  0.00    +0.000 OA
ENDBRANCH  12  20
ENDBRANCH   8  18
ENDBRANCH   1   9
BRANCH   1  21
ATOM     21  N   UNL     1       1.760   7.427  20.858  0.00  0.00    +0.000 N 
ATOM     22  H   UNL     1       2.757   7.661  20.939  0.00  0.00    +0.000 HD
BRANCH  21  23
ATOM     23  C   UNL     1       0.936   8.546  20.991  0.00  0.00    +0.000 A 
ATOM     24  C   UNL     1       0.763   9.390  19.874  0.00  0.00    +0.000 A 
ATOM     25  C   UNL     1       0.035  10.590  19.930  0.00  0.00    +0.000 A 
ATOM     26  C   UNL     1      -0.490  10.907  21.171  0.00  0.00    +0.000 A 
ATOM     27  O   UNL     1      -1.234  12.001  21.505  0.00  0.00    +0.000 OA
ATOM     28  C   UNL     1      -1.484  11.829  22.841  0.00  0.00    +0.000 A 
ATOM     29  C   UNL     1      -2.320  12.855  23.493  0.00  0.00    +0.000 C 
ATOM     30  N   UNL     1      -0.960  10.740  23.371  0.00  0.00    +0.000 NA
ATOM     31  C   UNL     1      -0.328  10.140  22.310  0.00  0.00    +0.000 A 
ATOM     32  C   UNL     1       0.411   8.951  22.234  0.00  0.00    +0.000 A 
ENDBRANCH  21  23
ENDBRANCH   1  21
TORSDOF 6
ENDMDL
MODEL 7
REMARK VINA RESULT:      -7.9      1.603      2.541
REMARK  Name = 
REMARK  9 active torsions:
REMARK  status: ('A' for Active; 'I' for Inactive)
REMARK    1  A    between atoms: C_1  and  O_2
REMARK    2  A    between atoms: O_2  and  C_3
REMARK    3  A    between atoms: C_6  and  C_7
REMARK    4  A    between atoms: C_9  and  N_10
REMARK    5  A    between atoms: C_11  and  C_13
REMARK    6  A    between atoms: C_13  and  N_14
REMARK    7  A    between atoms: C_13  and  C_25
REMARK    8  A    between atoms: N_14  and  C_15
REMARK    9  A    between atoms: C_20  and  C_21
REMARK                            x       y       z     vdW  Elec       q    Type
REMARK                         _______ _______ _______ _____ _____    ______ ____
ROOT
ATOM      1  C   UNL     1       1.613   6.586  19.863  0.00  0.00    +0.000 C 
ENDROOT
BRANCH   1   2
ATOM      2  C   UNL     1       1.526   5.129  20.342  0.00  0.00    +0.000 A 
ATOM      3  C   UNL     1       0.840   4.150  19.592  0.00  0.00    +0.000 A 
ATOM      4  C   UNL     1       0.871   2.800  19.953  0.00  0.00    +0.000 A 
ATOM      5  C   UNL     1       1.597   2.394  21.067  0.00  0.00    +0.000 A 
ATOM      6  C   UNL     1       2.269   3.344  21.836  0.00  0.00    +0.000 A 
ATOM      7  C   UNL     1       2.233   4.697  21.478  0.00  0.00    +0.000 A 
ENDBRANCH   1   2
BRANCH   1   9
ATOM      8  N   UNL     1       3.804   5.906  18.861  0.00  0.00    +0.000 N 
ATOM      9  C   UNL     1       2.753   6.822  18.828  0.00  0.00    +0.000 C 
ATOM     10  O   UNL     1       2.638   7.740  18.011  0.00  0.00    +0.000 OA
ATOM     11  H   UNL     1       3.726   5.085  19.456  0.00  0.00    +0.000 HD
BRANCH   8  18
ATOM     12  C   UNL     1       4.975   4.937  16.932  0.00  0.00    +0.000 A 
ATOM     13  C   UNL     1       6.056   4.956  16.034  0.00  0.00    +0.000 A 
ATOM     14  C   UNL     1       7.092   5.879  16.176  0.00  0.00    +0.000 A 
ATOM     15  C   UNL     1       7.072   6.791  17.225  0.00  0.00    +0.000 A 
ATOM     16  C   UNL     1       8.160   7.806  17.402  0.00  0.00    +0.000 C 
ATOM     17  C   UNL     1       5.997   6.774  18.126  0.00  0.00    +0.000 A 
ATOM     18  C   UNL     1       4.927   5.880  17.983  0.00  0.00    +0.000 A 
BRANCH  12  20
ATOM     19  C   UNL     1       4.035   2.870  17.640  0.00  0.00    +0.000 C 
ATOM     20  O   UNL     1       3.926   4.050  16.837  0.00  0.00    +0.000 OA
ENDBRANCH  12  20
ENDBRANCH   8  18
ENDBRANCH   1   9
BRANCH   1  21
ATOM     21  N   UNL     1       1.896   7.468  21.020  0.00  0.00    +0.000 N 
ATOM     22  H   UNL     1       2.898   7.692  21.015  0.00  0.00    +0.000 HD
BRANCH  21  23
ATOM     23  C   UNL     1       1.101   8.583  21.287  0.00  0.00    +0.000 A 
ATOM     24  C   UNL     1       0.720   8.835  22.621  0.00  0.00    +0.000 A 
ATOM     25  C   UNL     1      -0.156   9.871  22.983  0.00  0.00    +0.000 A 
ATOM     26  C   UNL     1      -0.646  10.627  21.931  0.00  0.00    +0.000 A 
ATOM     27  O   UNL     1      -1.503  11.687  21.997  0.00  0.00    +0.000 OA
ATOM     28  C   UNL     1      -1.663  12.057  20.688  0.00  0.00    +0.000 A 
ATOM     29  C   UNL     1      -2.525  13.227  20.434  0.00  0.00    +0.000 C 
ATOM     30  N   UNL     1      -0.997  11.324  19.815  0.00  0.00    +0.000 NA
ATOM     31  C   UNL     1      -0.338  10.412  20.601  0.00  0.00    +0.000 A 
ATOM     32  C   UNL     1       0.531   9.365  20.262  0.00  0.00    +0.000 A 
ENDBRANCH  21  23
ENDBRANCH   1  21
TORSDOF 6
ENDMDL
MODEL 8
REMARK VINA RESULT:      -7.7      4.082      9.283
REMARK  Name = 
REMARK  9 active torsions:
REMARK  status: ('A' for Active; 'I' for Inactive)
REMARK    1  A    between atoms: C_1  and  O_2
REMARK    2  A    between atoms: O_2  and  C_3
REMARK    3  A    between atoms: C_6  and  C_7
REMARK    4  A    between atoms: C_9  and  N_10
REMARK    5  A    between atoms: C_11  and  C_13
REMARK    6  A    between atoms: C_13  and  N_14
REMARK    7  A    between atoms: C_13  and  C_25
REMARK    8  A    between atoms: N_14  and  C_15
REMARK    9  A    between atoms: C_20  and  C_21
REMARK                            x       y       z     vdW  Elec       q    Type
REMARK                         _______ _______ _______ _____ _____    ______ ____
ROOT
ATOM      1  C   UNL     1      -0.464  10.909  19.116  0.00  0.00    +0.000 C 
ENDROOT
BRANCH   1   2
ATOM      2  C   UNL     1      -1.726  10.777  18.250  0.00  0.00    +0.000 A 
ATOM      3  C   UNL     1      -2.891  11.521  18.533  0.00  0.00    +0.000 A 
ATOM      4  C   UNL     1      -3.993  11.506  17.674  0.00  0.00    +0.000 A 
ATOM      5  C   UNL     1      -3.954  10.755  16.504  0.00  0.00    +0.000 A 
ATOM      6  C   UNL     1      -2.821   9.995  16.211  0.00  0.00    +0.000 A 
ATOM      7  C   UNL     1      -1.720  10.006  17.075  0.00  0.00    +0.000 A 
ENDBRANCH   1   2
BRANCH   1   9
ATOM      8  N   UNL     1       0.290  13.207  18.470  0.00  0.00    +0.000 N 
ATOM      9  C   UNL     1      -0.143  12.383  19.508  0.00  0.00    +0.000 C 
ATOM     10  O   UNL     1      -0.348  12.751  20.668  0.00  0.00    +0.000 OA
ATOM     11  H   UNL     1       0.266  12.856  17.516  0.00  0.00    +0.000 HD
BRANCH   8  18
ATOM     12  C   UNL     1       1.938  15.025  18.574  0.00  0.00    +0.000 A 
ATOM     13  C   UNL     1       2.228  16.399  18.609  0.00  0.00    +0.000 A 
ATOM     14  C   UNL     1       1.207  17.348  18.658  0.00  0.00    +0.000 A 
ATOM     15  C   UNL     1      -0.122  16.938  18.684  0.00  0.00    +0.000 A 
ATOM     16  C   UNL     1      -1.246  17.928  18.723  0.00  0.00    +0.000 C 
ATOM     17  C   UNL     1      -0.416  15.568  18.652  0.00  0.00    +0.000 A 
ATOM     18  C   UNL     1       0.591  14.597  18.568  0.00  0.00    +0.000 A 
BRANCH  12  20
ATOM     19  C   UNL     1       4.254  14.511  18.394  0.00  0.00    +0.000 C 
ATOM     20  O   UNL     1       2.906  14.046  18.523  0.00  0.00    +0.000 OA
ENDBRANCH  12  20
ENDBRANCH   8  18
ENDBRANCH   1   9
BRANCH   1  21
ATOM     21  N   UNL     1       0.707  10.402  18.361  0.00  0.00    +0.000 N 
ATOM     22  H   UNL     1       1.391  11.163  18.282  0.00  0.00    +0.000 HD
BRANCH  21  23
ATOM     23  C   UNL     1       1.299   9.181  18.686  0.00  0.00    +0.000 A 
ATOM     24  C   UNL     1       1.153   8.691  20.000  0.00  0.00    +0.000 A 
ATOM     25  C   UNL     1       1.788   7.526  20.456  0.00  0.00    +0.000 A 
ATOM     26  C   UNL     1       2.596   6.890  19.528  0.00  0.00    +0.000 A 
ATOM     27  O   UNL     1       3.322   5.747  19.701  0.00  0.00    +0.000 OA
ATOM     28  C   UNL     1       3.935   5.565  18.489  0.00  0.00    +0.000 A 
ATOM     29  C   UNL     1       4.777   4.362  18.350  0.00  0.00    +0.000 C 
ATOM     30  N   UNL     1       3.668   6.489  17.585  0.00  0.00    +0.000 NA
ATOM     31  C   UNL     1       2.807   7.336  18.237  0.00  0.00    +0.000 A 
ATOM     32  C   UNL     1       2.171   8.508  17.806  0.00  0.00    +0.000 A 
ENDBRANCH  21  23
ENDBRANCH   1  21
TORSDOF 6
ENDMDL
MODEL 9
REMARK VINA RESULT:      -7.6      3.781      8.921
REMARK  Name = 
REMARK  9 active torsions:
REMARK  status: ('A' for Active; 'I' for Inactive)
REMARK    1  A    between atoms: C_1  and  O_2
REMARK    2  A    between atoms: O_2  and  C_3
REMARK    3  A    between atoms: C_6  and  C_7
REMARK    4  A    between atoms: C_9  and  N_10
REMARK    5  A    between atoms: C_11  and  C_13
REMARK    6  A    between atoms: C_13  and  N_14
REMARK    7  A    between atoms: C_13  and  C_25
REMARK    8  A    between atoms: N_14  and  C_15
REMARK    9  A    between atoms: C_20  and  C_21
REMARK                            x       y       z     vdW  Elec       q    Type
REMARK                         _______ _______ _______ _____ _____    ______ ____
ROOT
ATOM      1  C   UNL     1       0.269  10.389  18.910  0.00  0.00    +0.000 C 
ENDROOT
BRANCH   1   2
ATOM      2  C   UNL     1      -1.133  10.635  18.332  0.00  0.00    +0.000 A 
ATOM      3  C   UNL     1      -1.616   9.890  17.236  0.00  0.00    +0.000 A 
ATOM      4  C   UNL     1      -2.935  10.015  16.792  0.00  0.00    +0.000 A 
ATOM      5  C   UNL     1      -3.808  10.883  17.440  0.00  0.00    +0.000 A 
ATOM      6  C   UNL     1      -3.349  11.646  18.514  0.00  0.00    +0.000 A 
ATOM      7  C   UNL     1      -2.026  11.523  18.955  0.00  0.00    +0.000 A 
ENDBRANCH   1   2
BRANCH   1   9
ATOM      8  N   UNL     1       1.375  12.530  18.230  0.00  0.00    +0.000 N 
ATOM      9  C   UNL     1       1.012  11.704  19.293  0.00  0.00    +0.000 C 
ATOM     10  O   UNL     1       1.175  11.972  20.487  0.00  0.00    +0.000 OA
ATOM     11  H   UNL     1       1.047  12.304  17.294  0.00  0.00    +0.000 HD
BRANCH   8  18
ATOM     12  C   UNL     1       1.234  14.957  18.575  0.00  0.00    +0.000 A 
ATOM     13  C   UNL     1       1.872  16.199  18.733  0.00  0.00    +0.000 A 
ATOM     14  C   UNL     1       3.257  16.313  18.632  0.00  0.00    +0.000 A 
ATOM     15  C   UNL     1       4.030  15.189  18.359  0.00  0.00    +0.000 A 
ATOM     16  C   UNL     1       5.523  15.270  18.256  0.00  0.00    +0.000 C 
ATOM     17  C   UNL     1       3.398  13.948  18.198  0.00  0.00    +0.000 A 
ATOM     18  C   UNL     1       2.010  13.802  18.330  0.00  0.00    +0.000 A 
BRANCH  12  20
ATOM     19  C   UNL     1      -0.742  15.300  19.855  0.00  0.00    +0.000 C 
ATOM     20  O   UNL     1      -0.130  14.787  18.667  0.00  0.00    +0.000 OA
ENDBRANCH  12  20
ENDBRANCH   8  18
ENDBRANCH   1   9
BRANCH   1  21
ATOM     21  N   UNL     1       1.106   9.705  17.895  0.00  0.00    +0.000 N 
ATOM     22  H   UNL     1       1.678  10.414  17.421  0.00  0.00    +0.000 HD
BRANCH  21  23
ATOM     23  C   UNL     1       1.834   8.559  18.217  0.00  0.00    +0.000 A 
ATOM     24  C   UNL     1       1.565   7.912  19.442  0.00  0.00    +0.000 A 
ATOM     25  C   UNL     1       2.304   6.813  19.904  0.00  0.00    +0.000 A 
ATOM     26  C   UNL     1       3.343   6.410  19.082  0.00  0.00    +0.000 A 
ATOM     27  O   UNL     1       4.212   5.377  19.283  0.00  0.00    +0.000 OA
ATOM     28  C   UNL     1       5.031   5.422  18.186  0.00  0.00    +0.000 A 
ATOM     29  C   UNL     1       6.072   4.381  18.097  0.00  0.00    +0.000 C 
ATOM     30  N   UNL     1       4.761   6.387  17.328  0.00  0.00    +0.000 NA
ATOM     31  C   UNL     1       3.679   7.020  17.887  0.00  0.00    +0.000 A 
ATOM     32  C   UNL     1       2.933   8.123  17.451  0.00  0.00    +0.000 A 
ENDBRANCH  21  23
ENDBRANCH   1  21
TORSDOF 6
ENDMDL
