MODEL 1
REMARK VINA RESULT:      -9.1      0.000      0.000
REMARK  Name = 
REMARK  5 active torsions:
REMARK  status: ('A' for Active; 'I' for Inactive)
REMARK    1  A    between atoms: C_2  and  C_3
REMARK    2  A    between atoms: N_5  and  C_6
REMARK    3  A    between atoms: C_6  and  C_7
REMARK    4  A    between atoms: N_24  and  S_25
REMARK    5  A    between atoms: S_25  and  C_28
REMARK                            x       y       z     vdW  Elec       q    Type
REMARK                         _______ _______ _______ _____ _____    ______ ____
ROOT
ATOM      1  C   UNL     1       2.366   6.226  19.251  0.00  0.00    +0.000 A 
ATOM      2  N   UNL     1       3.221   6.771  18.430  0.00  0.00    +0.000 NA
ATOM      3  N   UNL     1       3.833   5.985  17.471  0.00  0.00    +0.000 N 
ATOM      4  C   UNL     1       3.467   4.674  17.195  0.00  0.00    +0.000 A 
ATOM      5  O   UNL     1       3.932   3.992  16.284  0.00  0.00    +0.000 OA
ATOM      6  C   UNL     1       2.486   4.068  18.112  0.00  0.00    +0.000 A 
ATOM      7  C   UNL     1       2.045   2.754  17.902  0.00  0.00    +0.000 A 
ATOM      8  C   UNL     1       1.143   2.174  18.791  0.00  0.00    +0.000 A 
ATOM      9  C   UNL     1       0.741   2.873  19.928  0.00  0.00    +0.000 A 
ATOM     10  C   UNL     1       1.229   4.160  20.164  0.00  0.00    +0.000 A 
ATOM     11  C   UNL     1       2.037   4.790  19.211  0.00  0.00    +0.000 A 
ENDROOT
BRANCH   1  13
ATOM     12  O   UNL     1       1.505   6.649  21.395  0.00  0.00    +0.000 OA
ATOM     13  C   UNL     1       1.756   7.156  20.303  0.00  0.00    +0.000 C 
ATOM     14  N   UNL     1       1.470   8.496  20.016  0.00  0.00    +0.000 N 
ATOM     15  C   UNL     1       0.963   9.342  21.114  0.00  0.00    +0.000 C 
ATOM     16  C   UNL     1      -0.145  10.324  20.664  0.00  0.00    +0.000 C 
ATOM     17  N   UNL     1       0.213  11.046  19.394  0.00  0.00    +0.000 NA
ATOM     18  C   UNL     1       0.590  10.060  18.335  0.00  0.00    +0.000 C 
ATOM     19  C   UNL     1       1.812   9.239  18.792  0.00  0.00    +0.000 C 
BRANCH  17  20
ATOM     20  S   UNL     1       1.300  12.359  19.534  0.00  0.00    +0.000 S 
ATOM     21  O   UNL     1       1.970  12.275  20.803  0.00  0.00    +0.000 OA
ATOM     22  O   UNL     1       2.052  12.439  18.299  0.00  0.00    +0.000 OA
BRANCH  20  23
ATOM     23  C   UNL     1       0.212  13.758  19.574  0.00  0.00    +0.000 A 
ATOM     24  C   UNL     1      -0.872  13.768  20.452  0.00  0.00    +0.000 A 
ATOM     25  C   UNL     1      -1.672  14.908  20.531  0.00  0.00    +0.000 A 
ATOM     26  C   UNL     1      -1.375  16.027  19.755  0.00  0.00    +0.000 A 
ATOM     27  C   UNL     1      -0.273  16.024  18.897  0.00  0.00    +0.000 A 
ATOM     28  C   UNL     1       0.526  14.887  18.804  0.00  0.00    +0.000 A 
ENDBRANCH  20  23
ENDBRANCH  17  20
ENDBRANCH   1  13
BRANCH   3  29
ATOM     29  C   UNL     1       4.886   6.614  16.673  0.00  0.00    +0.000 C 
BRANCH  29  30
ATOM     30  C   UNL     1       6.180   6.737  17.439  0.00  0.00    +0.000 A 
ATOM     31  C   UNL     1       6.575   5.726  18.325  0.00  0.00    +0.000 A 
ATOM     32  C   UNL     1       7.724   5.876  19.100  0.00  0.00    +0.000 A 
ATOM     33  C   UNL     1       8.488   7.038  18.997  0.00  0.00    +0.000 A 
ATOM     34  C   UNL     1       8.116   8.041  18.103  0.00  0.00    +0.000 A 
ATOM     35  C   UNL     1       6.969   7.891  17.325  0.00  0.00    +0.000 A 
ENDBRANCH  29  30
ENDBRANCH   3  29
TORSDOF 5
ENDMDL
MODEL 2
REMARK VINA RESULT:      -9.0      0.949      1.278
REMARK  Name = 
REMARK  5 active torsions:
REMARK  status: ('A' for Active; 'I' for Inactive)
REMARK    1  A    between atoms: C_2  and  C_3
REMARK    2  A    between atoms: N_5  and  C_6
REMARK    3  A    between atoms: C_6  and  C_7
REMARK    4  A    between atoms: N_24  and  S_25
REMARK    5  A    between atoms: S_25  and  C_28
REMARK                            x       y       z     vdW  Elec       q    Type
REMARK                         _______ _______ _______ _____ _____    ______ ____
ROOT
ATOM      1  C   UNL     1       2.393   6.612  19.310  0.00  0.00    +0.000 A 
ATOM      2  N   UNL     1       3.243   7.055  18.425  0.00  0.00    +0.000 NA
ATOM      3  N   UNL     1       3.801   6.170  17.521  0.00  0.00    +0.000 N 
ATOM      4  C   UNL     1       3.384   4.855  17.365  0.00  0.00    +0.000 A 
ATOM      5  O   UNL     1       3.799   4.082  16.505  0.00  0.00    +0.000 OA
ATOM      6  C   UNL     1       2.408   4.364  18.355  0.00  0.00    +0.000 A 
ATOM      7  C   UNL     1       1.917   3.053  18.268  0.00  0.00    +0.000 A 
ATOM      8  C   UNL     1       1.020   2.584  19.224  0.00  0.00    +0.000 A 
ATOM      9  C   UNL     1       0.674   3.389  20.307  0.00  0.00    +0.000 A 
ATOM     10  C   UNL     1       1.212   4.672  20.422  0.00  0.00    +0.000 A 
ATOM     11  C   UNL     1       2.014   5.191  19.399  0.00  0.00    +0.000 A 
ENDROOT
BRANCH   1  13
ATOM     12  O   UNL     1       1.934   7.364  21.487  0.00  0.00    +0.000 OA
ATOM     13  C   UNL     1       1.844   7.649  20.293  0.00  0.00    +0.000 C 
ATOM     14  N   UNL     1       1.243   8.832  19.849  0.00  0.00    +0.000 N 
ATOM     15  C   UNL     1       0.820   9.813  20.866  0.00  0.00    +0.000 C 
ATOM     16  C   UNL     1      -0.531  10.491  20.533  0.00  0.00    +0.000 C 
ATOM     17  N   UNL     1      -0.598  10.959  19.105  0.00  0.00    +0.000 NA
ATOM     18  C   UNL     1      -0.263   9.832  18.182  0.00  0.00    +0.000 C 
ATOM     19  C   UNL     1       1.166   9.328  18.465  0.00  0.00    +0.000 C 
BRANCH  17  20
ATOM     20  S   UNL     1       0.209  12.420  18.734  0.00  0.00    +0.000 S 
ATOM     21  O   UNL     1       1.623  12.165  18.666  0.00  0.00    +0.000 OA
ATOM     22  O   UNL     1      -0.489  13.038  17.626  0.00  0.00    +0.000 OA
BRANCH  20  23
ATOM     23  C   UNL     1      -0.106  13.412  20.168  0.00  0.00    +0.000 A 
ATOM     24  C   UNL     1       0.948  13.766  21.011  0.00  0.00    +0.000 A 
ATOM     25  C   UNL     1       0.700  14.614  22.091  0.00  0.00    +0.000 A 
ATOM     26  C   UNL     1      -0.583  15.114  22.307  0.00  0.00    +0.000 A 
ATOM     27  C   UNL     1      -1.631  14.779  21.447  0.00  0.00    +0.000 A 
ATOM     28  C   UNL     1      -1.394  13.926  20.371  0.00  0.00    +0.000 A 
ENDBRANCH  20  23
ENDBRANCH  17  20
ENDBRANCH   1  13
BRANCH   3  29
ATOM     29  C   UNL     1       4.853   6.691  16.648  0.00  0.00    +0.000 C 
BRANCH  29  30
ATOM     30  C   UNL     1       6.165   6.854  17.375  0.00  0.00    +0.000 A 
ATOM     31  C   UNL     1       6.613   5.859  18.253  0.00  0.00    +0.000 A 
ATOM     32  C   UNL     1       7.780   6.045  18.994  0.00  0.00    +0.000 A 
ATOM     33  C   UNL     1       8.508   7.227  18.863  0.00  0.00    +0.000 A 
ATOM     34  C   UNL     1       8.082   8.215  17.976  0.00  0.00    +0.000 A 
ATOM     35  C   UNL     1       6.918   8.029  17.232  0.00  0.00    +0.000 A 
ENDBRANCH  29  30
ENDBRANCH   3  29
TORSDOF 5
ENDMDL
MODEL 3
REMARK VINA RESULT:      -8.8      0.113      1.163
REMARK  Name = 
REMARK  5 active torsions:
REMARK  status: ('A' for Active; 'I' for Inactive)
REMARK    1  A    between atoms: C_2  and  C_3
REMARK    2  A    between atoms: N_5  and  C_6
REMARK    3  A    between atoms: C_6  and  C_7
REMARK    4  A    between atoms: N_24  and  S_25
REMARK    5  A    between atoms: S_25  and  C_28
REMARK                            x       y       z     vdW  Elec       q    Type
REMARK                         _______ _______ _______ _____ _____    ______ ____
ROOT
ATOM      1  C   UNL     1       2.332   6.229  19.268  0.00  0.00    +0.000 A 
ATOM      2  N   UNL     1       3.185   6.756  18.435  0.00  0.00    +0.000 NA
ATOM      3  N   UNL     1       3.789   5.953  17.485  0.00  0.00    +0.000 N 
ATOM      4  C   UNL     1       3.416   4.640  17.230  0.00  0.00    +0.000 A 
ATOM      5  O   UNL     1       3.873   3.941  16.329  0.00  0.00    +0.000 OA
ATOM      6  C   UNL     1       2.436   4.053  18.161  0.00  0.00    +0.000 A 
ATOM      7  C   UNL     1       1.988   2.738  17.974  0.00  0.00    +0.000 A 
ATOM      8  C   UNL     1       1.087   2.177  18.876  0.00  0.00    +0.000 A 
ATOM      9  C   UNL     1       0.694   2.895  20.004  0.00  0.00    +0.000 A 
ATOM     10  C   UNL     1       1.189   4.182  20.218  0.00  0.00    +0.000 A 
ATOM     11  C   UNL     1       1.995   4.793  19.251  0.00  0.00    +0.000 A 
ENDROOT
BRANCH   1  13
ATOM     12  O   UNL     1       1.453   6.681  21.398  0.00  0.00    +0.000 OA
ATOM     13  C   UNL     1       1.731   7.178  20.308  0.00  0.00    +0.000 C 
ATOM     14  N   UNL     1       1.483   8.523  20.013  0.00  0.00    +0.000 N 
ATOM     15  C   UNL     1       0.983   9.386  21.100  0.00  0.00    +0.000 C 
ATOM     16  C   UNL     1      -0.094  10.394  20.632  0.00  0.00    +0.000 C 
ATOM     17  N   UNL     1       0.299  11.101  19.365  0.00  0.00    +0.000 NA
ATOM     18  C   UNL     1       0.665  10.103  18.314  0.00  0.00    +0.000 C 
ATOM     19  C   UNL     1       1.860   9.253  18.790  0.00  0.00    +0.000 C 
BRANCH  17  20
ATOM     20  S   UNL     1       1.416  12.387  19.514  0.00  0.00    +0.000 S 
ATOM     21  O   UNL     1       2.129  12.242  20.755  0.00  0.00    +0.000 OA
ATOM     22  O   UNL     1       2.126  12.500  18.257  0.00  0.00    +0.000 OA
BRANCH  20  23
ATOM     23  C   UNL     1       0.360  13.804  19.646  0.00  0.00    +0.000 A 
ATOM     24  C   UNL     1       0.602  14.926  18.852  0.00  0.00    +0.000 A 
ATOM     25  C   UNL     1      -0.283  16.002  18.907  0.00  0.00    +0.000 A 
ATOM     26  C   UNL     1      -1.406  15.943  19.731  0.00  0.00    +0.000 A 
ATOM     27  C   UNL     1      -1.661  14.809  20.505  0.00  0.00    +0.000 A 
ATOM     28  C   UNL     1      -0.777  13.733  20.463  0.00  0.00    +0.000 A 
ENDBRANCH  20  23
ENDBRANCH  17  20
ENDBRANCH   1  13
BRANCH   3  29
ATOM     29  C   UNL     1       4.842   6.564  16.673  0.00  0.00    +0.000 C 
BRANCH  29  30
ATOM     30  C   UNL     1       6.099   6.815  17.469  0.00  0.00    +0.000 A 
ATOM     31  C   UNL     1       6.830   7.995  17.280  0.00  0.00    +0.000 A 
ATOM     32  C   UNL     1       8.038   8.190  17.948  0.00  0.00    +0.000 A 
ATOM     33  C   UNL     1       8.526   7.209  18.809  0.00  0.00    +0.000 A 
ATOM     34  C   UNL     1       7.796   6.040  19.021  0.00  0.00    +0.000 A 
ATOM     35  C   UNL     1       6.586   5.844  18.357  0.00  0.00    +0.000 A 
ENDBRANCH  29  30
ENDBRANCH   3  29
TORSDOF 5
ENDMDL
MODEL 4
REMARK VINA RESULT:      -8.4      4.196      9.817
REMARK  Name = 
REMARK  5 active torsions:
REMARK  status: ('A' for Active; 'I' for Inactive)
REMARK    1  A    between atoms: C_2  and  C_3
REMARK    2  A    between atoms: N_5  and  C_6
REMARK    3  A    between atoms: C_6  and  C_7
REMARK    4  A    between atoms: N_24  and  S_25
REMARK    5  A    between atoms: S_25  and  C_28
REMARK                            x       y       z     vdW  Elec       q    Type
REMARK                         _______ _______ _______ _____ _____    ______ ____
ROOT
ATOM      1  C   UNL     1      -3.846  12.893  20.877  0.00  0.00    +0.000 A 
ATOM      2  N   UNL     1      -4.089  12.843  19.597  0.00  0.00    +0.000 NA
ATOM      3  N   UNL     1      -5.388  12.657  19.161  0.00  0.00    +0.000 N 
ATOM      4  C   UNL     1      -6.498  12.699  19.994  0.00  0.00    +0.000 A 
ATOM      5  O   UNL     1      -7.665  12.632  19.614  0.00  0.00    +0.000 OA
ATOM      6  C   UNL     1      -6.221  12.776  21.440  0.00  0.00    +0.000 A 
ATOM      7  C   UNL     1      -7.280  12.838  22.357  0.00  0.00    +0.000 A 
ATOM      8  C   UNL     1      -7.012  12.877  23.723  0.00  0.00    +0.000 A 
ATOM      9  C   UNL     1      -5.699  12.775  24.177  0.00  0.00    +0.000 A 
ATOM     10  C   UNL     1      -4.652  12.653  23.262  0.00  0.00    +0.000 A 
ATOM     11  C   UNL     1      -4.907  12.738  21.889  0.00  0.00    +0.000 A 
ENDROOT
BRANCH   1  13
ATOM     12  O   UNL     1      -2.071  14.171  21.732  0.00  0.00    +0.000 OA
ATOM     13  C   UNL     1      -2.379  13.070  21.278  0.00  0.00    +0.000 C 
ATOM     14  N   UNL     1      -1.444  12.045  21.101  0.00  0.00    +0.000 N 
ATOM     15  C   UNL     1      -0.072  12.271  21.594  0.00  0.00    +0.000 C 
ATOM     16  C   UNL     1       1.016  11.709  20.648  0.00  0.00    +0.000 C 
ATOM     17  N   UNL     1       0.709  10.310  20.191  0.00  0.00    +0.000 NA
ATOM     18  C   UNL     1      -0.666  10.255  19.604  0.00  0.00    +0.000 C 
ATOM     19  C   UNL     1      -1.707  10.663  20.665  0.00  0.00    +0.000 C 
BRANCH  17  20
ATOM     20  S   UNL     1       1.040   9.048  21.296  0.00  0.00    +0.000 S 
ATOM     21  O   UNL     1       2.082   9.475  22.191  0.00  0.00    +0.000 OA
ATOM     22  O   UNL     1      -0.228   8.568  21.806  0.00  0.00    +0.000 OA
BRANCH  20  23
ATOM     23  C   UNL     1       1.696   7.778  20.247  0.00  0.00    +0.000 A 
ATOM     24  C   UNL     1       2.200   8.110  18.989  0.00  0.00    +0.000 A 
ATOM     25  C   UNL     1       2.786   7.115  18.208  0.00  0.00    +0.000 A 
ATOM     26  C   UNL     1       2.883   5.811  18.692  0.00  0.00    +0.000 A 
ATOM     27  C   UNL     1       2.401   5.487  19.962  0.00  0.00    +0.000 A 
ATOM     28  C   UNL     1       1.805   6.473  20.746  0.00  0.00    +0.000 A 
ENDBRANCH  20  23
ENDBRANCH  17  20
ENDBRANCH   1  13
BRANCH   3  29
ATOM     29  C   UNL     1      -5.583  12.466  17.724  0.00  0.00    +0.000 C 
BRANCH  29  30
ATOM     30  C   UNL     1      -4.627  11.447  17.152  0.00  0.00    +0.000 A 
ATOM     31  C   UNL     1      -4.198  10.366  17.933  0.00  0.00    +0.000 A 
ATOM     32  C   UNL     1      -3.248   9.474  17.440  0.00  0.00    +0.000 A 
ATOM     33  C   UNL     1      -2.717   9.654  16.163  0.00  0.00    +0.000 A 
ATOM     34  C   UNL     1      -3.152  10.715  15.370  0.00  0.00    +0.000 A 
ATOM     35  C   UNL     1      -4.105  11.606  15.860  0.00  0.00    +0.000 A 
ENDBRANCH  29  30
ENDBRANCH   3  29
TORSDOF 5
ENDMDL
MODEL 5
REMARK VINA RESULT:      -8.2      5.024      9.410
REMARK  Name = 
REMARK  5 active torsions:
REMARK  status: ('A' for Active; 'I' for Inactive)
REMARK    1  A    between atoms: C_2  and  C_3
REMARK    2  A    between atoms: N_5  and  C_6
REMARK    3  A    between atoms: C_6  and  C_7
REMARK    4  A    between atoms: N_24  and  S_25
REMARK    5  A    between atoms: S_25  and  C_28
REMARK                            x       y       z     vdW  Elec       q    Type
REMARK                         _______ _______ _______ _____ _____    ______ ____
ROOT
ATOM      1  C   UNL     1       2.266  14.128  20.787  0.00  0.00    +0.000 A 
ATOM      2  N   UNL     1       1.821  12.910  20.929  0.00  0.00    +0.000 NA
ATOM      3  N   UNL     1       0.583  12.577  20.412  0.00  0.00    +0.000 N 
ATOM      4  C   UNL     1      -0.159  13.408  19.582  0.00  0.00    +0.000 A 
ATOM      5  O   UNL     1      -1.214  13.095  19.035  0.00  0.00    +0.000 OA
ATOM      6  C   UNL     1       0.357  14.777  19.407  0.00  0.00    +0.000 A 
ATOM      7  C   UNL     1      -0.317  15.682  18.575  0.00  0.00    +0.000 A 
ATOM      8  C   UNL     1       0.157  16.985  18.439  0.00  0.00    +0.000 A 
ATOM      9  C   UNL     1       1.251  17.408  19.191  0.00  0.00    +0.000 A 
ATOM     10  C   UNL     1       1.883  16.520  20.063  0.00  0.00    +0.000 A 
ATOM     11  C   UNL     1       1.487  15.179  20.108  0.00  0.00    +0.000 A 
ENDROOT
BRANCH   1  13
ATOM     12  O   UNL     1       3.656  14.506  22.642  0.00  0.00    +0.000 OA
ATOM     13  C   UNL     1       3.630  14.424  21.415  0.00  0.00    +0.000 C 
ATOM     14  N   UNL     1       4.769  14.624  20.627  0.00  0.00    +0.000 N 
ATOM     15  C   UNL     1       6.058  14.818  21.317  0.00  0.00    +0.000 C 
ATOM     16  C   UNL     1       6.953  15.888  20.647  0.00  0.00    +0.000 C 
ATOM     17  N   UNL     1       7.030  15.715  19.155  0.00  0.00    +0.000 NA
ATOM     18  C   UNL     1       5.653  15.654  18.576  0.00  0.00    +0.000 C 
ATOM     19  C   UNL     1       4.887  14.455  19.169  0.00  0.00    +0.000 C 
BRANCH  17  20
ATOM     20  S   UNL     1       8.079  14.496  18.574  0.00  0.00    +0.000 S 
ATOM     21  O   UNL     1       8.556  13.722  19.689  0.00  0.00    +0.000 OA
ATOM     22  O   UNL     1       7.427  13.856  17.449  0.00  0.00    +0.000 OA
BRANCH  20  23
ATOM     23  C   UNL     1       9.438  15.431  17.927  0.00  0.00    +0.000 A 
ATOM     24  C   UNL     1       9.365  16.824  17.886  0.00  0.00    +0.000 A 
ATOM     25  C   UNL     1      10.472  17.550  17.450  0.00  0.00    +0.000 A 
ATOM     26  C   UNL     1      11.642  16.889  17.081  0.00  0.00    +0.000 A 
ATOM     27  C   UNL     1      11.723  15.496  17.148  0.00  0.00    +0.000 A 
ATOM     28  C   UNL     1      10.618  14.761  17.573  0.00  0.00    +0.000 A 
ENDBRANCH  20  23
ENDBRANCH  17  20
ENDBRANCH   1  13
BRANCH   3  29
ATOM     29  C   UNL     1       0.072  11.242  20.723  0.00  0.00    +0.000 C 
BRANCH  29  30
ATOM     30  C   UNL     1       0.759  10.169  19.915  0.00  0.00    +0.000 A 
ATOM     31  C   UNL     1       1.120   8.956  20.516  0.00  0.00    +0.000 A 
ATOM     32  C   UNL     1       1.833   7.998  19.797  0.00  0.00    +0.000 A 
ATOM     33  C   UNL     1       2.193   8.244  18.473  0.00  0.00    +0.000 A 
ATOM     34  C   UNL     1       1.821   9.439  17.859  0.00  0.00    +0.000 A 
ATOM     35  C   UNL     1       1.104  10.396  18.575  0.00  0.00    +0.000 A 
ENDBRANCH  29  30
ENDBRANCH   3  29
TORSDOF 5
ENDMDL
MODEL 6
REMARK VINA RESULT:      -8.1      5.892      9.678
REMARK  Name = 
REMARK  5 active torsions:
REMARK  status: ('A' for Active; 'I' for Inactive)
REMARK    1  A    between atoms: C_2  and  C_3
REMARK    2  A    between atoms: N_5  and  C_6
REMARK    3  A    between atoms: C_6  and  C_7
REMARK    4  A    between atoms: N_24  and  S_25
REMARK    5  A    between atoms: S_25  and  C_28
REMARK                            x       y       z     vdW  Elec       q    Type
REMARK                         _______ _______ _______ _____ _____    ______ ____
ROOT
ATOM      1  C   UNL     1      -0.823  12.844  20.559  0.00  0.00    +0.000 A 
ATOM      2  N   UNL     1      -1.879  13.557  20.839  0.00  0.00    +0.000 NA
ATOM      3  N   UNL     1      -2.731  13.138  21.845  0.00  0.00    +0.000 N 
ATOM      4  C   UNL     1      -2.448  12.094  22.715  0.00  0.00    +0.000 A 
ATOM      5  O   UNL     1      -3.145  11.769  23.673  0.00  0.00    +0.000 OA
ATOM      6  C   UNL     1      -1.243  11.303  22.408  0.00  0.00    +0.000 A 
ATOM      7  C   UNL     1      -0.869  10.238  23.240  0.00  0.00    +0.000 A 
ATOM      8  C   UNL     1       0.252   9.473  22.927  0.00  0.00    +0.000 A 
ATOM      9  C   UNL     1       0.952   9.717  21.748  0.00  0.00    +0.000 A 
ATOM     10  C   UNL     1       0.541  10.740  20.891  0.00  0.00    +0.000 A 
ATOM     11  C   UNL     1      -0.507  11.588  21.264  0.00  0.00    +0.000 A 
ENDROOT
BRANCH   1  13
ATOM     12  O   UNL     1      -0.361  13.138  18.275  0.00  0.00    +0.000 OA
ATOM     13  C   UNL     1       0.052  13.357  19.413  0.00  0.00    +0.000 C 
ATOM     14  N   UNL     1       1.267  14.006  19.656  0.00  0.00    +0.000 N 
ATOM     15  C   UNL     1       2.004  14.545  18.496  0.00  0.00    +0.000 C 
ATOM     16  C   UNL     1       3.536  14.350  18.604  0.00  0.00    +0.000 C 
ATOM     17  N   UNL     1       4.068  14.741  19.955  0.00  0.00    +0.000 NA
ATOM     18  C   UNL     1       3.308  14.030  21.029  0.00  0.00    +0.000 C 
ATOM     19  C   UNL     1       1.817  14.414  20.960  0.00  0.00    +0.000 C 
BRANCH  17  20
ATOM     20  S   UNL     1       4.275  16.413  20.248  0.00  0.00    +0.000 S 
ATOM     21  O   UNL     1       3.595  17.153  19.218  0.00  0.00    +0.000 OA
ATOM     22  O   UNL     1       3.989  16.652  21.647  0.00  0.00    +0.000 OA
BRANCH  20  23
ATOM     23  C   UNL     1       6.020  16.631  20.026  0.00  0.00    +0.000 A 
ATOM     24  C   UNL     1       6.509  17.118  18.813  0.00  0.00    +0.000 A 
ATOM     25  C   UNL     1       7.876  17.361  18.680  0.00  0.00    +0.000 A 
ATOM     26  C   UNL     1       8.734  17.138  19.756  0.00  0.00    +0.000 A 
ATOM     27  C   UNL     1       8.238  16.676  20.977  0.00  0.00    +0.000 A 
ATOM     28  C   UNL     1       6.876  16.421  21.116  0.00  0.00    +0.000 A 
ENDBRANCH  20  23
ENDBRANCH  17  20
ENDBRANCH   1  13
BRANCH   3  29
ATOM     29  C   UNL     1      -3.971  13.895  22.019  0.00  0.00    +0.000 C 
BRANCH  29  30
ATOM     30  C   UNL     1      -5.174  13.133  21.520  0.00  0.00    +0.000 A 
ATOM     31  C   UNL     1      -6.292  12.960  22.347  0.00  0.00    +0.000 A 
ATOM     32  C   UNL     1      -7.369  12.183  21.923  0.00  0.00    +0.000 A 
ATOM     33  C   UNL     1      -7.338  11.571  20.670  0.00  0.00    +0.000 A 
ATOM     34  C   UNL     1      -6.240  11.754  19.832  0.00  0.00    +0.000 A 
ATOM     35  C   UNL     1      -5.163  12.534  20.252  0.00  0.00    +0.000 A 
ENDBRANCH  29  30
ENDBRANCH   3  29
TORSDOF 5
ENDMDL
MODEL 7
REMARK VINA RESULT:      -8.0      5.857      9.668
REMARK  Name = 
REMARK  5 active torsions:
REMARK  status: ('A' for Active; 'I' for Inactive)
REMARK    1  A    between atoms: C_2  and  C_3
REMARK    2  A    between atoms: N_5  and  C_6
REMARK    3  A    between atoms: C_6  and  C_7
REMARK    4  A    between atoms: N_24  and  S_25
REMARK    5  A    between atoms: S_25  and  C_28
REMARK                            x       y       z     vdW  Elec       q    Type
REMARK                         _______ _______ _______ _____ _____    ______ ____
ROOT
ATOM      1  C   UNL     1      -0.865  12.783  20.514  0.00  0.00    +0.000 A 
ATOM      2  N   UNL     1      -1.910  13.498  20.828  0.00  0.00    +0.000 NA
ATOM      3  N   UNL     1      -2.724  13.086  21.868  0.00  0.00    +0.000 N 
ATOM      4  C   UNL     1      -2.408  12.047  22.734  0.00  0.00    +0.000 A 
ATOM      5  O   UNL     1      -3.069  11.728  23.719  0.00  0.00    +0.000 OA
ATOM      6  C   UNL     1      -1.215  11.255  22.387  0.00  0.00    +0.000 A 
ATOM      7  C   UNL     1      -0.810  10.196  23.212  0.00  0.00    +0.000 A 
ATOM      8  C   UNL     1       0.299   9.429  22.862  0.00  0.00    +0.000 A 
ATOM      9  C   UNL     1       0.955   9.666  21.656  0.00  0.00    +0.000 A 
ATOM     10  C   UNL     1       0.512  10.683  20.809  0.00  0.00    +0.000 A 
ATOM     11  C   UNL     1      -0.523  11.533  21.215  0.00  0.00    +0.000 A 
ENDROOT
BRANCH   1  13
ATOM     12  O   UNL     1      -0.450  12.998  18.212  0.00  0.00    +0.000 OA
ATOM     13  C   UNL     1      -0.034  13.290  19.332  0.00  0.00    +0.000 C 
ATOM     14  N   UNL     1       1.149  14.011  19.527  0.00  0.00    +0.000 N 
ATOM     15  C   UNL     1       1.841  14.535  18.334  0.00  0.00    +0.000 C 
ATOM     16  C   UNL     1       3.382  14.425  18.426  0.00  0.00    +0.000 C 
ATOM     17  N   UNL     1       3.910  14.904  19.750  0.00  0.00    +0.000 NA
ATOM     18  C   UNL     1       3.204  14.202  20.866  0.00  0.00    +0.000 C 
ATOM     19  C   UNL     1       1.694  14.505  20.803  0.00  0.00    +0.000 C 
BRANCH  17  20
ATOM     20  S   UNL     1       4.033  16.595  19.965  0.00  0.00    +0.000 S 
ATOM     21  O   UNL     1       3.259  17.251  18.946  0.00  0.00    +0.000 OA
ATOM     22  O   UNL     1       3.807  16.876  21.368  0.00  0.00    +0.000 OA
BRANCH  20  23
ATOM     23  C   UNL     1       5.749  16.903  19.641  0.00  0.00    +0.000 A 
ATOM     24  C   UNL     1       6.410  17.927  20.321  0.00  0.00    +0.000 A 
ATOM     25  C   UNL     1       7.777  18.106  20.116  0.00  0.00    +0.000 A 
ATOM     26  C   UNL     1       8.474  17.257  19.258  0.00  0.00    +0.000 A 
ATOM     27  C   UNL     1       7.815  16.216  18.599  0.00  0.00    +0.000 A 
ATOM     28  C   UNL     1       6.447  16.036  18.790  0.00  0.00    +0.000 A 
ENDBRANCH  20  23
ENDBRANCH  17  20
ENDBRANCH   1  13
BRANCH   3  29
ATOM     29  C   UNL     1      -3.957  13.843  22.084  0.00  0.00    +0.000 C 
BRANCH  29  30
ATOM     30  C   UNL     1      -5.184  13.045  21.716  0.00  0.00    +0.000 A 
ATOM     31  C   UNL     1      -5.304  12.484  20.438  0.00  0.00    +0.000 A 
ATOM     32  C   UNL     1      -6.473  11.823  20.065  0.00  0.00    +0.000 A 
ATOM     33  C   UNL     1      -7.532  11.717  20.965  0.00  0.00    +0.000 A 
ATOM     34  C   UNL     1      -7.415  12.253  22.247  0.00  0.00    +0.000 A 
ATOM     35  C   UNL     1      -6.245  12.911  22.623  0.00  0.00    +0.000 A 
ENDBRANCH  29  30
ENDBRANCH   3  29
TORSDOF 5
ENDMDL
MODEL 8
REMARK VINA RESULT:      -8.0      6.034      9.452
REMARK  Name = 
REMARK  5 active torsions:
REMARK  status: ('A' for Active; 'I' for Inactive)
REMARK    1  A    between atoms: C_2  and  C_3
REMARK    2  A    between atoms: N_5  and  C_6
REMARK    3  A    between atoms: C_6  and  C_7
REMARK    4  A    between atoms: N_24  and  S_25
REMARK    5  A    between atoms: S_25  and  C_28
REMARK                            x       y       z     vdW  Elec       q    Type
REMARK                         _______ _______ _______ _____ _____    ______ ____
ROOT
ATOM      1  C   UNL     1      -1.328  12.384  19.877  0.00  0.00    +0.000 A 
ATOM      2  N   UNL     1      -2.046  13.144  20.657  0.00  0.00    +0.000 NA
ATOM      3  N   UNL     1      -3.412  13.220  20.457  0.00  0.00    +0.000 N 
ATOM      4  C   UNL     1      -4.115  12.396  19.588  0.00  0.00    +0.000 A 
ATOM      5  O   UNL     1      -5.338  12.382  19.467  0.00  0.00    +0.000 OA
ATOM      6  C   UNL     1      -3.302  11.523  18.722  0.00  0.00    +0.000 A 
ATOM      7  C   UNL     1      -3.925  10.646  17.824  0.00  0.00    +0.000 A 
ATOM      8  C   UNL     1      -3.151   9.848  16.985  0.00  0.00    +0.000 A 
ATOM      9  C   UNL     1      -1.764   9.979  16.985  0.00  0.00    +0.000 A 
ATOM     10  C   UNL     1      -1.151  10.897  17.839  0.00  0.00    +0.000 A 
ATOM     11  C   UNL     1      -1.916  11.610  18.769  0.00  0.00    +0.000 A 
ENDROOT
BRANCH   1  13
ATOM     12  O   UNL     1       0.621  11.398  20.740  0.00  0.00    +0.000 OA
ATOM     13  C   UNL     1       0.179  12.379  20.144  0.00  0.00    +0.000 C 
ATOM     14  N   UNL     1       0.993  13.450  19.760  0.00  0.00    +0.000 N 
ATOM     15  C   UNL     1       2.447  13.323  19.978  0.00  0.00    +0.000 C 
ATOM     16  C   UNL     1       3.107  14.638  20.458  0.00  0.00    +0.000 C 
ATOM     17  N   UNL     1       2.670  15.826  19.647  0.00  0.00    +0.000 NA
ATOM     18  C   UNL     1       1.177  15.898  19.611  0.00  0.00    +0.000 C 
ATOM     19  C   UNL     1       0.605  14.624  18.959  0.00  0.00    +0.000 C 
BRANCH  17  20
ATOM     20  S   UNL     1       3.409  16.031  18.119  0.00  0.00    +0.000 S 
ATOM     21  O   UNL     1       3.196  14.843  17.337  0.00  0.00    +0.000 OA
ATOM     22  O   UNL     1       3.021  17.332  17.615  0.00  0.00    +0.000 OA
BRANCH  20  23
ATOM     23  C   UNL     1       5.130  16.122  18.530  0.00  0.00    +0.000 A 
ATOM     24  C   UNL     1       5.596  17.161  19.337  0.00  0.00    +0.000 A 
ATOM     25  C   UNL     1       6.937  17.176  19.719  0.00  0.00    +0.000 A 
ATOM     26  C   UNL     1       7.792  16.152  19.314  0.00  0.00    +0.000 A 
ATOM     27  C   UNL     1       7.317  15.099  18.528  0.00  0.00    +0.000 A 
ATOM     28  C   UNL     1       5.981  15.081  18.134  0.00  0.00    +0.000 A 
ENDBRANCH  20  23
ENDBRANCH  17  20
ENDBRANCH   1  13
BRANCH   3  29
ATOM     29  C   UNL     1      -4.147  14.194  21.265  0.00  0.00    +0.000 C 
BRANCH  29  30
ATOM     30  C   UNL     1      -4.677  13.588  22.541  0.00  0.00    +0.000 A 
ATOM     31  C   UNL     1      -3.792  13.129  23.525  0.00  0.00    +0.000 A 
ATOM     32  C   UNL     1      -4.275  12.489  24.665  0.00  0.00    +0.000 A 
ATOM     33  C   UNL     1      -5.647  12.301  24.831  0.00  0.00    +0.000 A 
ATOM     34  C   UNL     1      -6.538  12.773  23.868  0.00  0.00    +0.000 A 
ATOM     35  C   UNL     1      -6.056  13.417  22.729  0.00  0.00    +0.000 A 
ENDBRANCH  29  30
ENDBRANCH   3  29
TORSDOF 5
ENDMDL
MODEL 9
REMARK VINA RESULT:      -8.0      5.948      9.558
REMARK  Name = 
REMARK  5 active torsions:
REMARK  status: ('A' for Active; 'I' for Inactive)
REMARK    1  A    between atoms: C_2  and  C_3
REMARK    2  A    between atoms: N_5  and  C_6
REMARK    3  A    between atoms: C_6  and  C_7
REMARK    4  A    between atoms: N_24  and  S_25
REMARK    5  A    between atoms: S_25  and  C_28
REMARK                            x       y       z     vdW  Elec       q    Type
REMARK                         _______ _______ _______ _____ _____    ______ ____
ROOT
ATOM      1  C   UNL     1      -1.484  12.365  20.116  0.00  0.00    +0.000 A 
ATOM      2  N   UNL     1      -2.343  13.126  20.734  0.00  0.00    +0.000 NA
ATOM      3  N   UNL     1      -3.657  13.151  20.305  0.00  0.00    +0.000 N 
ATOM      4  C   UNL     1      -4.181  12.276  19.361  0.00  0.00    +0.000 A 
ATOM      5  O   UNL     1      -5.364  12.218  19.037  0.00  0.00    +0.000 OA
ATOM      6  C   UNL     1      -3.210  11.403  18.679  0.00  0.00    +0.000 A 
ATOM      7  C   UNL     1      -3.648  10.476  17.722  0.00  0.00    +0.000 A 
ATOM      8  C   UNL     1      -2.722   9.676  17.056  0.00  0.00    +0.000 A 
ATOM      9  C   UNL     1      -1.359   9.853  17.285  0.00  0.00    +0.000 A 
ATOM     10  C   UNL     1      -0.924  10.818  18.195  0.00  0.00    +0.000 A 
ATOM     11  C   UNL     1      -1.854  11.536  18.955  0.00  0.00    +0.000 A 
ENDROOT
BRANCH   1  13
ATOM     12  O   UNL     1       0.218  11.683  21.584  0.00  0.00    +0.000 OA
ATOM     13  C   UNL     1      -0.044  12.417  20.633  0.00  0.00    +0.000 C 
ATOM     14  N   UNL     1       0.903  13.281  20.071  0.00  0.00    +0.000 N 
ATOM     15  C   UNL     1       2.288  13.204  20.573  0.00  0.00    +0.000 C 
ATOM     16  C   UNL     1       2.965  14.589  20.707  0.00  0.00    +0.000 C 
ATOM     17  N   UNL     1       2.758  15.446  19.489  0.00  0.00    +0.000 NA
ATOM     18  C   UNL     1       1.301  15.534  19.167  0.00  0.00    +0.000 C 
ATOM     19  C   UNL     1       0.742  14.127  18.876  0.00  0.00    +0.000 C 
BRANCH  17  20
ATOM     20  S   UNL     1       3.746  15.112  18.134  0.00  0.00    +0.000 S 
ATOM     21  O   UNL     1       3.889  13.687  18.003  0.00  0.00    +0.000 OA
ATOM     22  O   UNL     1       3.263  15.916  17.030  0.00  0.00    +0.000 OA
BRANCH  20  23
ATOM     23  C   UNL     1       5.312  15.784  18.622  0.00  0.00    +0.000 A 
ATOM     24  C   UNL     1       6.491  15.155  18.219  0.00  0.00    +0.000 A 
ATOM     25  C   UNL     1       7.717  15.738  18.542  0.00  0.00    +0.000 A 
ATOM     26  C   UNL     1       7.756  16.944  19.239  0.00  0.00    +0.000 A 
ATOM     27  C   UNL     1       6.574  17.585  19.618  0.00  0.00    +0.000 A 
ATOM     28  C   UNL     1       5.346  17.005  19.309  0.00  0.00    +0.000 A 
ENDBRANCH  20  23
ENDBRANCH  17  20
ENDBRANCH   1  13
BRANCH   3  29
ATOM     29  C   UNL     1      -4.544  14.127  20.940  0.00  0.00    +0.000 C 
BRANCH  29  30
ATOM     30  C   UNL     1      -5.329  13.523  22.078  0.00  0.00    +0.000 A 
ATOM     31  C   UNL     1      -6.725  13.442  22.007  0.00  0.00    +0.000 A 
ATOM     32  C   UNL     1      -7.461  12.968  23.092  0.00  0.00    +0.000 A 
ATOM     33  C   UNL     1      -6.807  12.571  24.258  0.00  0.00    +0.000 A 
ATOM     34  C   UNL     1      -5.416  12.628  24.332  0.00  0.00    +0.000 A 
ATOM     35  C   UNL     1      -4.679  13.099  23.246  0.00  0.00    +0.000 A 
ENDBRANCH  29  30
ENDBRANCH   3  29
TORSDOF 5
ENDMDL
