MODEL 1
REMARK VINA RESULT:      -9.0      0.000      0.000
REMARK  Name = 
REMARK  5 active torsions:
REMARK  status: ('A' for Active; 'I' for Inactive)
REMARK    1  A    between atoms: C_2  and  C_18
REMARK    2  A    between atoms: N_3  and  C_4
REMARK    3  A    between atoms: C_9  and  C_10
REMARK    4  A    between atoms: N_12  and  C_13
REMARK    5  A    between atoms: C_22  and  N_23
REMARK                            x       y       z     vdW  Elec       q    Type
REMARK                         _______ _______ _______ _____ _____    ______ ____
ROOT
ATOM      1  O   UNL     1       2.028   5.884  20.783  0.00  0.00    +0.000 OA
ATOM      2  C   UNL     1       1.967   6.311  19.637  0.00  0.00    +0.000 C 
ATOM      3  N   UNL     1       2.224   5.579  18.488  0.00  0.00    +0.000 N 
ATOM      4  H   UNL     1       2.525   6.096  17.668  0.00  0.00    +0.000 HD
ENDROOT
BRANCH   3   5
ATOM      5  C   UNL     1       2.605   4.221  18.553  0.00  0.00    +0.000 A 
ATOM      6  C   UNL     1       1.606   3.233  18.546  0.00  0.00    +0.000 A 
ATOM      7  C   UNL     1       1.940   1.878  18.540  0.00  0.00    +0.000 A 
ATOM      8  C   UNL     1       3.278   1.496  18.551  0.00  0.00    +0.000 A 
ATOM      9  C   UNL     1       4.278   2.471  18.563  0.00  0.00    +0.000 A 
ATOM     10  C   UNL     1       3.958   3.842  18.564  0.00  0.00    +0.000 A 
BRANCH  10  11
ATOM     11  C   UNL     1       5.106   4.793  18.621  0.00  0.00    +0.000 C 
ATOM     12  O   UNL     1       5.208   5.548  19.592  0.00  0.00    +0.000 OA
ATOM     13  N   UNL     1       6.002   4.815  17.563  0.00  0.00    +0.000 N 
ATOM     14  H   UNL     1       5.707   4.375  16.695  0.00  0.00    +0.000 HD
BRANCH  13  15
ATOM     15  C   UNL     1       7.034   5.840  17.490  0.00  0.00    +0.000 C 
ATOM     16  C   UNL     1       7.778   6.055  18.810  0.00  0.00    +0.000 C 
ATOM     17  C   UNL     1       8.381   7.458  18.703  0.00  0.00    +0.000 C 
ATOM     18  C   UNL     1       7.664   8.145  17.540  0.00  0.00    +0.000 C 
ATOM     19  C   UNL     1       6.495   7.232  17.187  0.00  0.00    +0.000 C 
ENDBRANCH  13  15
ENDBRANCH  10  11
ENDBRANCH   3   5
BRANCH   2  20
ATOM     20  C   UNL     1       1.758   7.761  19.415  0.00  0.00    +0.000 A 
ATOM     21  C   UNL     1       2.299   8.334  18.265  0.00  0.00    +0.000 A 
ATOM     22  C   UNL     1       2.068   9.679  18.003  0.00  0.00    +0.000 A 
ATOM     23  C   UNL     1       1.298  10.440  18.888  0.00  0.00    +0.000 A 
ATOM     24  C   UNL     1       0.754   9.886  20.057  0.00  0.00    +0.000 A 
ATOM     25  C   UNL     1       1.013   8.533  20.318  0.00  0.00    +0.000 A 
BRANCH  24  26
ATOM     26  N   UNL     1      -0.060  10.650  20.937  0.00  0.00    +0.000 N 
ATOM     27  C   UNL     1      -1.089  11.549  20.468  0.00  0.00    +0.000 C 
ATOM     28  C   UNL     1      -1.362  12.452  21.652  0.00  0.00    +0.000 C 
ATOM     29  C   UNL     1      -1.094  11.561  22.849  0.00  0.00    +0.000 C 
ATOM     30  C   UNL     1      -0.042  10.603  22.340  0.00  0.00    +0.000 C 
ATOM     31  O   UNL     1       0.630   9.907  23.084  0.00  0.00    +0.000 OA
ENDBRANCH  24  26
ENDBRANCH   2  20
TORSDOF 5
ENDMDL
MODEL 2
REMARK VINA RESULT:      -8.7      1.804      2.142
REMARK  Name = 
REMARK  5 active torsions:
REMARK  status: ('A' for Active; 'I' for Inactive)
REMARK    1  A    between atoms: C_2  and  C_18
REMARK    2  A    between atoms: N_3  and  C_4
REMARK    3  A    between atoms: C_9  and  C_10
REMARK    4  A    between atoms: N_12  and  C_13
REMARK    5  A    between atoms: C_22  and  N_23
REMARK                            x       y       z     vdW  Elec       q    Type
REMARK                         _______ _______ _______ _____ _____    ______ ____
ROOT
ATOM      1  O   UNL     1       1.825   5.774  18.164  0.00  0.00    +0.000 OA
ATOM      2  C   UNL     1       2.210   6.492  19.079  0.00  0.00    +0.000 C 
ATOM      3  N   UNL     1       2.763   6.051  20.272  0.00  0.00    +0.000 N 
ATOM      4  H   UNL     1       2.677   6.665  21.076  0.00  0.00    +0.000 HD
ENDROOT
BRANCH   3   5
ATOM      5  C   UNL     1       2.922   4.674  20.543  0.00  0.00    +0.000 A 
ATOM      6  C   UNL     1       2.048   4.054  21.452  0.00  0.00    +0.000 A 
ATOM      7  C   UNL     1       2.126   2.682  21.697  0.00  0.00    +0.000 A 
ATOM      8  C   UNL     1       3.086   1.917  21.042  0.00  0.00    +0.000 A 
ATOM      9  C   UNL     1       3.963   2.525  20.141  0.00  0.00    +0.000 A 
ATOM     10  C   UNL     1       3.894   3.907  19.879  0.00  0.00    +0.000 A 
BRANCH  10  11
ATOM     11  C   UNL     1       4.908   4.456  18.931  0.00  0.00    +0.000 C 
ATOM     12  O   UNL     1       5.605   5.408  19.290  0.00  0.00    +0.000 OA
ATOM     13  N   UNL     1       5.006   3.894  17.668  0.00  0.00    +0.000 N 
ATOM     14  H   UNL     1       4.232   3.315  17.355  0.00  0.00    +0.000 HD
BRANCH  13  15
ATOM     15  C   UNL     1       5.854   4.503  16.652  0.00  0.00    +0.000 C 
ATOM     16  C   UNL     1       5.222   5.721  15.976  0.00  0.00    +0.000 C 
ATOM     17  C   UNL     1       5.963   5.866  14.644  0.00  0.00    +0.000 C 
ATOM     18  C   UNL     1       6.696   4.544  14.416  0.00  0.00    +0.000 C 
ATOM     19  C   UNL     1       6.150   3.588  15.470  0.00  0.00    +0.000 C 
ENDBRANCH  13  15
ENDBRANCH  10  11
ENDBRANCH   3   5
BRANCH   2  20
ATOM     20  C   UNL     1       1.944   7.947  19.019  0.00  0.00    +0.000 A 
ATOM     21  C   UNL     1       2.458   8.667  17.941  0.00  0.00    +0.000 A 
ATOM     22  C   UNL     1       2.173  10.021  17.831  0.00  0.00    +0.000 A 
ATOM     23  C   UNL     1       1.375  10.648  18.794  0.00  0.00    +0.000 A 
ATOM     24  C   UNL     1       0.858   9.945  19.893  0.00  0.00    +0.000 A 
ATOM     25  C   UNL     1       1.171   8.584  20.002  0.00  0.00    +0.000 A 
BRANCH  24  26
ATOM     26  N   UNL     1       0.017  10.573  20.852  0.00  0.00    +0.000 N 
ATOM     27  C   UNL     1      -1.140  11.357  20.484  0.00  0.00    +0.000 C 
ATOM     28  C   UNL     1      -1.442  12.178  21.720  0.00  0.00    +0.000 C 
ATOM     29  C   UNL     1      -0.993  11.285  22.859  0.00  0.00    +0.000 C 
ATOM     30  C   UNL     1       0.131  10.479  22.248  0.00  0.00    +0.000 C 
ATOM     31  O   UNL     1       0.927   9.845  22.921  0.00  0.00    +0.000 OA
ENDBRANCH  24  26
ENDBRANCH   2  20
TORSDOF 5
ENDMDL
MODEL 3
REMARK VINA RESULT:      -8.7      0.868      1.031
REMARK  Name = 
REMARK  5 active torsions:
REMARK  status: ('A' for Active; 'I' for Inactive)
REMARK    1  A    between atoms: C_2  and  C_18
REMARK    2  A    between atoms: N_3  and  C_4
REMARK    3  A    between atoms: C_9  and  C_10
REMARK    4  A    between atoms: N_12  and  C_13
REMARK    5  A    between atoms: C_22  and  N_23
REMARK                            x       y       z     vdW  Elec       q    Type
REMARK                         _______ _______ _______ _____ _____    ______ ____
ROOT
ATOM      1  O   UNL     1       2.054   5.977  20.782  0.00  0.00    +0.000 OA
ATOM      2  C   UNL     1       1.969   6.395  19.634  0.00  0.00    +0.000 C 
ATOM      3  N   UNL     1       2.184   5.648  18.486  0.00  0.00    +0.000 N 
ATOM      4  H   UNL     1       2.472   6.152  17.653  0.00  0.00    +0.000 HD
ENDROOT
BRANCH   3   5
ATOM      5  C   UNL     1       2.545   4.285  18.554  0.00  0.00    +0.000 A 
ATOM      6  C   UNL     1       1.532   3.311  18.551  0.00  0.00    +0.000 A 
ATOM      7  C   UNL     1       1.846   1.951  18.548  0.00  0.00    +0.000 A 
ATOM      8  C   UNL     1       3.178   1.550  18.558  0.00  0.00    +0.000 A 
ATOM      9  C   UNL     1       4.192   2.509  18.566  0.00  0.00    +0.000 A 
ATOM     10  C   UNL     1       3.893   3.885  18.564  0.00  0.00    +0.000 A 
BRANCH  10  11
ATOM     11  C   UNL     1       5.055   4.819  18.617  0.00  0.00    +0.000 C 
ATOM     12  O   UNL     1       5.169   5.575  19.586  0.00  0.00    +0.000 OA
ATOM     13  N   UNL     1       5.949   4.826  17.557  0.00  0.00    +0.000 N 
ATOM     14  H   UNL     1       5.645   4.390  16.691  0.00  0.00    +0.000 HD
BRANCH  13  15
ATOM     15  C   UNL     1       6.996   5.836  17.480  0.00  0.00    +0.000 C 
ATOM     16  C   UNL     1       7.749   6.038  18.796  0.00  0.00    +0.000 C 
ATOM     17  C   UNL     1       8.373   7.432  18.688  0.00  0.00    +0.000 C 
ATOM     18  C   UNL     1       7.660   8.131  17.530  0.00  0.00    +0.000 C 
ATOM     19  C   UNL     1       6.475   7.237  17.182  0.00  0.00    +0.000 C 
ENDBRANCH  13  15
ENDBRANCH  10  11
ENDBRANCH   3   5
BRANCH   2  20
ATOM     20  C   UNL     1       1.778   7.845  19.404  0.00  0.00    +0.000 A 
ATOM     21  C   UNL     1       2.172   8.373  18.175  0.00  0.00    +0.000 A 
ATOM     22  C   UNL     1       1.950   9.719  17.912  0.00  0.00    +0.000 A 
ATOM     23  C   UNL     1       1.333  10.526  18.872  0.00  0.00    +0.000 A 
ATOM     24  C   UNL     1       0.939  10.017  20.120  0.00  0.00    +0.000 A 
ATOM     25  C   UNL     1       1.189   8.663  20.379  0.00  0.00    +0.000 A 
BRANCH  24  26
ATOM     26  N   UNL     1       0.279  10.829  21.082  0.00  0.00    +0.000 N 
ATOM     27  C   UNL     1      -0.426  10.281  22.217  0.00  0.00    +0.000 C 
ATOM     28  C   UNL     1      -1.321  11.411  22.681  0.00  0.00    +0.000 C 
ATOM     29  C   UNL     1      -0.533  12.657  22.330  0.00  0.00    +0.000 C 
ATOM     30  C   UNL     1       0.267  12.233  21.119  0.00  0.00    +0.000 C 
ATOM     31  O   UNL     1       0.817  13.033  20.380  0.00  0.00    +0.000 OA
ENDBRANCH  24  26
ENDBRANCH   2  20
TORSDOF 5
ENDMDL
MODEL 4
REMARK VINA RESULT:      -8.6      1.919      2.362
REMARK  Name = 
REMARK  5 active torsions:
REMARK  status: ('A' for Active; 'I' for Inactive)
REMARK    1  A    between atoms: C_2  and  C_18
REMARK    2  A    between atoms: N_3  and  C_4
REMARK    3  A    between atoms: C_9  and  C_10
REMARK    4  A    between atoms: N_12  and  C_13
REMARK    5  A    between atoms: C_22  and  N_23
REMARK                            x       y       z     vdW  Elec       q    Type
REMARK                         _______ _______ _______ _____ _____    ______ ____
ROOT
ATOM      1  O   UNL     1       1.995   5.882  18.091  0.00  0.00    +0.000 OA
ATOM      2  C   UNL     1       2.256   6.567  19.072  0.00  0.00    +0.000 C 
ATOM      3  N   UNL     1       2.705   6.089  20.294  0.00  0.00    +0.000 N 
ATOM      4  H   UNL     1       2.513   6.658  21.112  0.00  0.00    +0.000 HD
ENDROOT
BRANCH   3   5
ATOM      5  C   UNL     1       2.896   4.708  20.516  0.00  0.00    +0.000 A 
ATOM      6  C   UNL     1       2.061   4.043  21.431  0.00  0.00    +0.000 A 
ATOM      7  C   UNL     1       2.171   2.666  21.630  0.00  0.00    +0.000 A 
ATOM      8  C   UNL     1       3.124   1.940  20.923  0.00  0.00    +0.000 A 
ATOM      9  C   UNL     1       3.962   2.592  20.016  0.00  0.00    +0.000 A 
ATOM     10  C   UNL     1       3.861   3.980  19.800  0.00  0.00    +0.000 A 
BRANCH  10  11
ATOM     11  C   UNL     1       4.836   4.576  18.840  0.00  0.00    +0.000 C 
ATOM     12  O   UNL     1       5.636   5.421  19.251  0.00  0.00    +0.000 OA
ATOM     13  N   UNL     1       4.786   4.180  17.512  0.00  0.00    +0.000 N 
ATOM     14  H   UNL     1       3.943   3.704  17.201  0.00  0.00    +0.000 HD
BRANCH  13  15
ATOM     15  C   UNL     1       5.596   4.858  16.509  0.00  0.00    +0.000 C 
ATOM     16  C   UNL     1       5.216   4.498  15.071  0.00  0.00    +0.000 C 
ATOM     17  C   UNL     1       6.455   4.836  14.237  0.00  0.00    +0.000 C 
ATOM     18  C   UNL     1       7.608   4.995  15.228  0.00  0.00    +0.000 C 
ATOM     19  C   UNL     1       7.073   4.486  16.562  0.00  0.00    +0.000 C 
ENDBRANCH  13  15
ENDBRANCH  10  11
ENDBRANCH   3   5
BRANCH   2  20
ATOM     20  C   UNL     1       1.933   8.012  19.053  0.00  0.00    +0.000 A 
ATOM     21  C   UNL     1       2.234   8.738  17.900  0.00  0.00    +0.000 A 
ATOM     22  C   UNL     1       1.888  10.081  17.834  0.00  0.00    +0.000 A 
ATOM     23  C   UNL     1       1.243  10.691  18.915  0.00  0.00    +0.000 A 
ATOM     24  C   UNL     1       0.942   9.982  20.089  0.00  0.00    +0.000 A 
ATOM     25  C   UNL     1       1.315   8.632  20.149  0.00  0.00    +0.000 A 
BRANCH  24  26
ATOM     26  N   UNL     1       0.253  10.591  21.172  0.00  0.00    +0.000 N 
ATOM     27  C   UNL     1       0.024   9.920  22.431  0.00  0.00    +0.000 C 
ATOM     28  C   UNL     1      -1.091  10.714  23.079  0.00  0.00    +0.000 C 
ATOM     29  C   UNL     1      -0.866  12.124  22.571  0.00  0.00    +0.000 C 
ATOM     30  C   UNL     1      -0.233  11.908  21.215  0.00  0.00    +0.000 C 
ATOM     31  O   UNL     1      -0.152  12.792  20.378  0.00  0.00    +0.000 OA
ENDBRANCH  24  26
ENDBRANCH   2  20
TORSDOF 5
ENDMDL
MODEL 5
REMARK VINA RESULT:      -8.6      1.169      1.450
REMARK  Name = 
REMARK  5 active torsions:
REMARK  status: ('A' for Active; 'I' for Inactive)
REMARK    1  A    between atoms: C_2  and  C_18
REMARK    2  A    between atoms: N_3  and  C_4
REMARK    3  A    between atoms: C_9  and  C_10
REMARK    4  A    between atoms: N_12  and  C_13
REMARK    5  A    between atoms: C_22  and  N_23
REMARK                            x       y       z     vdW  Elec       q    Type
REMARK                         _______ _______ _______ _____ _____    ______ ____
ROOT
ATOM      1  O   UNL     1       3.018   6.349  17.292  0.00  0.00    +0.000 OA
ATOM      2  C   UNL     1       2.574   6.624  18.400  0.00  0.00    +0.000 C 
ATOM      3  N   UNL     1       2.306   5.713  19.410  0.00  0.00    +0.000 N 
ATOM      4  H   UNL     1       1.604   5.975  20.096  0.00  0.00    +0.000 HD
ENDROOT
BRANCH   3   5
ATOM      5  C   UNL     1       2.524   4.330  19.229  0.00  0.00    +0.000 A 
ATOM      6  C   UNL     1       1.427   3.454  19.286  0.00  0.00    +0.000 A 
ATOM      7  C   UNL     1       1.588   2.089  19.044  0.00  0.00    +0.000 A 
ATOM      8  C   UNL     1       2.850   1.583  18.753  0.00  0.00    +0.000 A 
ATOM      9  C   UNL     1       3.948   2.445  18.699  0.00  0.00    +0.000 A 
ATOM     10  C   UNL     1       3.802   3.825  18.935  0.00  0.00    +0.000 A 
BRANCH  10  11
ATOM     11  C   UNL     1       5.050   4.642  18.894  0.00  0.00    +0.000 C 
ATOM     12  O   UNL     1       5.418   5.221  19.920  0.00  0.00    +0.000 OA
ATOM     13  N   UNL     1       5.734   4.748  17.693  0.00  0.00    +0.000 N 
ATOM     14  H   UNL     1       5.235   4.482  16.849  0.00  0.00    +0.000 HD
BRANCH  13  15
ATOM     15  C   UNL     1       6.854   5.669  17.559  0.00  0.00    +0.000 C 
ATOM     16  C   UNL     1       7.641   5.869  18.856  0.00  0.00    +0.000 C 
ATOM     17  C   UNL     1       8.368   7.205  18.679  0.00  0.00    +0.000 C 
ATOM     18  C   UNL     1       7.693   7.907  17.500  0.00  0.00    +0.000 C 
ATOM     19  C   UNL     1       6.438   7.092  17.206  0.00  0.00    +0.000 C 
ENDBRANCH  13  15
ENDBRANCH  10  11
ENDBRANCH   3   5
BRANCH   2  20
ATOM     20  C   UNL     1       2.125   8.008  18.677  0.00  0.00    +0.000 A 
ATOM     21  C   UNL     1       2.287   8.965  17.677  0.00  0.00    +0.000 A 
ATOM     22  C   UNL     1       1.821  10.256  17.890  0.00  0.00    +0.000 A 
ATOM     23  C   UNL     1       1.193  10.582  19.096  0.00  0.00    +0.000 A 
ATOM     24  C   UNL     1       1.030   9.637  20.121  0.00  0.00    +0.000 A 
ATOM     25  C   UNL     1       1.524   8.344  19.900  0.00  0.00    +0.000 A 
BRANCH  24  26
ATOM     26  N   UNL     1       0.359   9.958  21.332  0.00  0.00    +0.000 N 
ATOM     27  C   UNL     1       0.741   9.401  22.609  0.00  0.00    +0.000 C 
ATOM     28  C   UNL     1      -0.468   9.633  23.492  0.00  0.00    +0.000 C 
ATOM     29  C   UNL     1      -1.066  10.914  22.948  0.00  0.00    +0.000 C 
ATOM     30  C   UNL     1      -0.689  10.880  21.484  0.00  0.00    +0.000 C 
ATOM     31  O   UNL     1      -1.218  11.597  20.651  0.00  0.00    +0.000 OA
ENDBRANCH  24  26
ENDBRANCH   2  20
TORSDOF 5
ENDMDL
MODEL 6
REMARK VINA RESULT:      -8.6      1.268      1.456
REMARK  Name = 
REMARK  5 active torsions:
REMARK  status: ('A' for Active; 'I' for Inactive)
REMARK    1  A    between atoms: C_2  and  C_18
REMARK    2  A    between atoms: N_3  and  C_4
REMARK    3  A    between atoms: C_9  and  C_10
REMARK    4  A    between atoms: N_12  and  C_13
REMARK    5  A    between atoms: C_22  and  N_23
REMARK                            x       y       z     vdW  Elec       q    Type
REMARK                         _______ _______ _______ _____ _____    ______ ____
ROOT
ATOM      1  O   UNL     1       2.945   6.116  20.328  0.00  0.00    +0.000 OA
ATOM      2  C   UNL     1       2.283   6.434  19.348  0.00  0.00    +0.000 C 
ATOM      3  N   UNL     1       1.872   5.576  18.339  0.00  0.00    +0.000 N 
ATOM      4  H   UNL     1       1.692   5.986  17.428  0.00  0.00    +0.000 HD
ENDROOT
BRANCH   3   5
ATOM      5  C   UNL     1       2.209   4.206  18.359  0.00  0.00    +0.000 A 
ATOM      6  C   UNL     1       1.266   3.279  18.837  0.00  0.00    +0.000 A 
ATOM      7  C   UNL     1       1.533   1.909  18.810  0.00  0.00    +0.000 A 
ATOM      8  C   UNL     1       2.749   1.452  18.314  0.00  0.00    +0.000 A 
ATOM      9  C   UNL     1       3.694   2.364  17.842  0.00  0.00    +0.000 A 
ATOM     10  C   UNL     1       3.440   3.749  17.857  0.00  0.00    +0.000 A 
BRANCH  10  11
ATOM     11  C   UNL     1       4.538   4.633  17.368  0.00  0.00    +0.000 C 
ATOM     12  O   UNL     1       4.718   4.742  16.152  0.00  0.00    +0.000 OA
ATOM     13  N   UNL     1       5.338   5.274  18.301  0.00  0.00    +0.000 N 
ATOM     14  H   UNL     1       5.309   4.926  19.255  0.00  0.00    +0.000 HD
BRANCH  13  15
ATOM     15  C   UNL     1       6.525   6.005  17.878  0.00  0.00    +0.000 C 
ATOM     16  C   UNL     1       7.572   6.165  18.982  0.00  0.00    +0.000 C 
ATOM     17  C   UNL     1       8.425   7.361  18.551  0.00  0.00    +0.000 C 
ATOM     18  C   UNL     1       7.633   8.081  17.460  0.00  0.00    +0.000 C 
ATOM     19  C   UNL     1       6.245   7.449  17.479  0.00  0.00    +0.000 C 
ENDBRANCH  13  15
ENDBRANCH  10  11
ENDBRANCH   3   5
BRANCH   2  20
ATOM     20  C   UNL     1       2.008   7.867  19.094  0.00  0.00    +0.000 A 
ATOM     21  C   UNL     1       2.532   8.443  17.937  0.00  0.00    +0.000 A 
ATOM     22  C   UNL     1       2.239   9.768  17.646  0.00  0.00    +0.000 A 
ATOM     23  C   UNL     1       1.424  10.510  18.508  0.00  0.00    +0.000 A 
ATOM     24  C   UNL     1       0.897   9.954  19.684  0.00  0.00    +0.000 A 
ATOM     25  C   UNL     1       1.217   8.621  19.975  0.00  0.00    +0.000 A 
BRANCH  24  26
ATOM     26  N   UNL     1       0.039  10.696  20.540  0.00  0.00    +0.000 N 
ATOM     27  C   UNL     1       0.346  10.946  21.929  0.00  0.00    +0.000 C 
ATOM     28  C   UNL     1      -0.984  11.339  22.539  0.00  0.00    +0.000 C 
ATOM     29  C   UNL     1      -1.711  12.021  21.398  0.00  0.00    +0.000 C 
ATOM     30  C   UNL     1      -1.156  11.334  20.171  0.00  0.00    +0.000 C 
ATOM     31  O   UNL     1      -1.689  11.412  19.076  0.00  0.00    +0.000 OA
ENDBRANCH  24  26
ENDBRANCH   2  20
TORSDOF 5
ENDMDL
MODEL 7
REMARK VINA RESULT:      -8.4      1.867      2.283
REMARK  Name = 
REMARK  5 active torsions:
REMARK  status: ('A' for Active; 'I' for Inactive)
REMARK    1  A    between atoms: C_2  and  C_18
REMARK    2  A    between atoms: N_3  and  C_4
REMARK    3  A    between atoms: C_9  and  C_10
REMARK    4  A    between atoms: N_12  and  C_13
REMARK    5  A    between atoms: C_22  and  N_23
REMARK                            x       y       z     vdW  Elec       q    Type
REMARK                         _______ _______ _______ _____ _____    ______ ____
ROOT
ATOM      1  O   UNL     1       2.981   6.101  20.542  0.00  0.00    +0.000 OA
ATOM      2  C   UNL     1       2.341   6.373  19.534  0.00  0.00    +0.000 C 
ATOM      3  N   UNL     1       2.005   5.480  18.527  0.00  0.00    +0.000 N 
ATOM      4  H   UNL     1       1.840   5.866  17.603  0.00  0.00    +0.000 HD
ENDROOT
BRANCH   3   5
ATOM      5  C   UNL     1       2.400   4.126  18.585  0.00  0.00    +0.000 A 
ATOM      6  C   UNL     1       1.723   3.256  19.456  0.00  0.00    +0.000 A 
ATOM      7  C   UNL     1       2.036   1.896  19.495  0.00  0.00    +0.000 A 
ATOM      8  C   UNL     1       3.035   1.394  18.668  0.00  0.00    +0.000 A 
ATOM      9  C   UNL     1       3.717   2.251  17.803  0.00  0.00    +0.000 A 
ATOM     10  C   UNL     1       3.411   3.625  17.748  0.00  0.00    +0.000 A 
BRANCH  10  11
ATOM     11  C   UNL     1       4.232   4.453  16.817  0.00  0.00    +0.000 C 
ATOM     12  O   UNL     1       4.194   5.682  16.921  0.00  0.00    +0.000 OA
ATOM     13  N   UNL     1       4.986   3.810  15.847  0.00  0.00    +0.000 N 
ATOM     14  H   UNL     1       4.757   2.840  15.648  0.00  0.00    +0.000 HD
BRANCH  13  15
ATOM     15  C   UNL     1       5.664   4.577  14.810  0.00  0.00    +0.000 C 
ATOM     16  C   UNL     1       5.733   3.857  13.462  0.00  0.00    +0.000 C 
ATOM     17  C   UNL     1       6.894   4.520  12.716  0.00  0.00    +0.000 C 
ATOM     18  C   UNL     1       7.688   5.298  13.765  0.00  0.00    +0.000 C 
ATOM     19  C   UNL     1       7.132   4.850  15.112  0.00  0.00    +0.000 C 
ENDBRANCH  13  15
ENDBRANCH  10  11
ENDBRANCH   3   5
BRANCH   2  20
ATOM     20  C   UNL     1       2.014   7.788  19.243  0.00  0.00    +0.000 A 
ATOM     21  C   UNL     1       2.473   8.337  18.046  0.00  0.00    +0.000 A 
ATOM     22  C   UNL     1       2.130   9.643  17.722  0.00  0.00    +0.000 A 
ATOM     23  C   UNL     1       1.330  10.391  18.591  0.00  0.00    +0.000 A 
ATOM     24  C   UNL     1       0.867   9.862  19.807  0.00  0.00    +0.000 A 
ATOM     25  C   UNL     1       1.238   8.550  20.129  0.00  0.00    +0.000 A 
BRANCH  24  26
ATOM     26  N   UNL     1       0.023  10.609  20.672  0.00  0.00    +0.000 N 
ATOM     27  C   UNL     1      -1.081  11.408  20.192  0.00  0.00    +0.000 C 
ATOM     28  C   UNL     1      -1.388  12.347  21.339  0.00  0.00    +0.000 C 
ATOM     29  C   UNL     1      -1.023  11.540  22.568  0.00  0.00    +0.000 C 
ATOM     30  C   UNL     1       0.083  10.635  22.075  0.00  0.00    +0.000 C 
ATOM     31  O   UNL     1       0.823  10.028  22.831  0.00  0.00    +0.000 OA
ENDBRANCH  24  26
ENDBRANCH   2  20
TORSDOF 5
ENDMDL
MODEL 8
REMARK VINA RESULT:      -8.4      1.619      2.235
REMARK  Name = 
REMARK  5 active torsions:
REMARK  status: ('A' for Active; 'I' for Inactive)
REMARK    1  A    between atoms: C_2  and  C_18
REMARK    2  A    between atoms: N_3  and  C_4
REMARK    3  A    between atoms: C_9  and  C_10
REMARK    4  A    between atoms: N_12  and  C_13
REMARK    5  A    between atoms: C_22  and  N_23
REMARK                            x       y       z     vdW  Elec       q    Type
REMARK                         _______ _______ _______ _____ _____    ______ ____
ROOT
ATOM      1  O   UNL     1       2.003   6.746  17.844  0.00  0.00    +0.000 OA
ATOM      2  C   UNL     1       2.030   6.714  19.068  0.00  0.00    +0.000 C 
ATOM      3  N   UNL     1       2.264   5.587  19.841  0.00  0.00    +0.000 N 
ATOM      4  H   UNL     1       1.885   5.584  20.782  0.00  0.00    +0.000 HD
ENDROOT
BRANCH   3   5
ATOM      5  C   UNL     1       2.492   4.326  19.249  0.00  0.00    +0.000 A 
ATOM      6  C   UNL     1       1.434   3.401  19.188  0.00  0.00    +0.000 A 
ATOM      7  C   UNL     1       1.597   2.170  18.551  0.00  0.00    +0.000 A 
ATOM      8  C   UNL     1       2.821   1.846  17.976  0.00  0.00    +0.000 A 
ATOM      9  C   UNL     1       3.879   2.755  18.036  0.00  0.00    +0.000 A 
ATOM     10  C   UNL     1       3.731   4.003  18.670  0.00  0.00    +0.000 A 
BRANCH  10  11
ATOM     11  C   UNL     1       4.940   4.876  18.711  0.00  0.00    +0.000 C 
ATOM     12  O   UNL     1       5.097   5.634  19.672  0.00  0.00    +0.000 OA
ATOM     13  N   UNL     1       5.830   4.827  17.648  0.00  0.00    +0.000 N 
ATOM     14  H   UNL     1       5.502   4.399  16.787  0.00  0.00    +0.000 HD
BRANCH  13  15
ATOM     15  C   UNL     1       6.928   5.781  17.560  0.00  0.00    +0.000 C 
ATOM     16  C   UNL     1       7.674   5.980  18.880  0.00  0.00    +0.000 C 
ATOM     17  C   UNL     1       8.369   7.337  18.743  0.00  0.00    +0.000 C 
ATOM     18  C   UNL     1       7.706   8.040  17.558  0.00  0.00    +0.000 C 
ATOM     19  C   UNL     1       6.482   7.197  17.217  0.00  0.00    +0.000 C 
ENDBRANCH  13  15
ENDBRANCH  10  11
ENDBRANCH   3   5
BRANCH   2  20
ATOM     20  C   UNL     1       1.631   7.918  19.833  0.00  0.00    +0.000 A 
ATOM     21  C   UNL     1       1.588   7.829  21.224  0.00  0.00    +0.000 A 
ATOM     22  C   UNL     1       1.274   8.960  21.967  0.00  0.00    +0.000 A 
ATOM     23  C   UNL     1       1.008  10.170  21.319  0.00  0.00    +0.000 A 
ATOM     24  C   UNL     1       1.033  10.278  19.920  0.00  0.00    +0.000 A 
ATOM     25  C   UNL     1       1.331   9.125  19.183  0.00  0.00    +0.000 A 
BRANCH  24  26
ATOM     26  N   UNL     1       0.799  11.517  19.264  0.00  0.00    +0.000 N 
ATOM     27  C   UNL     1       1.860  12.311  18.689  0.00  0.00    +0.000 C 
ATOM     28  C   UNL     1       1.248  13.687  18.526  0.00  0.00    +0.000 C 
ATOM     29  C   UNL     1      -0.217  13.398  18.269  0.00  0.00    +0.000 C 
ATOM     30  C   UNL     1      -0.453  12.106  19.018  0.00  0.00    +0.000 C 
ATOM     31  O   UNL     1      -1.570  11.691  19.280  0.00  0.00    +0.000 OA
ENDBRANCH  24  26
ENDBRANCH   2  20
TORSDOF 5
ENDMDL
MODEL 9
REMARK VINA RESULT:      -8.3      2.113      4.470
REMARK  Name = 
REMARK  5 active torsions:
REMARK  status: ('A' for Active; 'I' for Inactive)
REMARK    1  A    between atoms: C_2  and  C_18
REMARK    2  A    between atoms: N_3  and  C_4
REMARK    3  A    between atoms: C_9  and  C_10
REMARK    4  A    between atoms: N_12  and  C_13
REMARK    5  A    between atoms: C_22  and  N_23
REMARK                            x       y       z     vdW  Elec       q    Type
REMARK                         _______ _______ _______ _____ _____    ______ ____
ROOT
ATOM      1  O   UNL     1       3.020   7.690  16.598  0.00  0.00    +0.000 OA
ATOM      2  C   UNL     1       3.272   7.479  17.777  0.00  0.00    +0.000 C 
ATOM      3  N   UNL     1       4.293   6.669  18.252  0.00  0.00    +0.000 N 
ATOM      4  H   UNL     1       4.170   6.263  19.174  0.00  0.00    +0.000 HD
ENDROOT
BRANCH   3   5
ATOM      5  C   UNL     1       5.155   5.983  17.370  0.00  0.00    +0.000 A 
ATOM      6  C   UNL     1       6.192   6.694  16.741  0.00  0.00    +0.000 A 
ATOM      7  C   UNL     1       7.108   6.041  15.915  0.00  0.00    +0.000 A 
ATOM      8  C   UNL     1       6.993   4.672  15.702  0.00  0.00    +0.000 A 
ATOM      9  C   UNL     1       5.963   3.957  16.318  0.00  0.00    +0.000 A 
ATOM     10  C   UNL     1       5.033   4.599  17.157  0.00  0.00    +0.000 A 
BRANCH  10  11
ATOM     11  C   UNL     1       3.951   3.745  17.728  0.00  0.00    +0.000 C 
ATOM     12  O   UNL     1       3.133   3.228  16.961  0.00  0.00    +0.000 OA
ATOM     13  N   UNL     1       3.885   3.588  19.104  0.00  0.00    +0.000 N 
ATOM     14  H   UNL     1       4.406   4.250  19.672  0.00  0.00    +0.000 HD
BRANCH  13  15
ATOM     15  C   UNL     1       2.750   2.910  19.716  0.00  0.00    +0.000 C 
ATOM     16  C   UNL     1       1.413   3.615  19.478  0.00  0.00    +0.000 C 
ATOM     17  C   UNL     1       0.493   3.110  20.593  0.00  0.00    +0.000 C 
ATOM     18  C   UNL     1       1.403   2.464  21.639  0.00  0.00    +0.000 C 
ATOM     19  C   UNL     1       2.822   2.848  21.237  0.00  0.00    +0.000 C 
ENDBRANCH  13  15
ENDBRANCH  10  11
ENDBRANCH   3   5
BRANCH   2  20
ATOM     20  C   UNL     1       2.345   7.982  18.817  0.00  0.00    +0.000 A 
ATOM     21  C   UNL     1       2.171   7.215  19.970  0.00  0.00    +0.000 A 
ATOM     22  C   UNL     1       1.353   7.693  20.985  0.00  0.00    +0.000 A 
ATOM     23  C   UNL     1       0.717   8.931  20.847  0.00  0.00    +0.000 A 
ATOM     24  C   UNL     1       0.869   9.712  19.691  0.00  0.00    +0.000 A 
ATOM     25  C   UNL     1       1.681   9.208  18.666  0.00  0.00    +0.000 A 
BRANCH  24  26
ATOM     26  N   UNL     1       0.253  10.986  19.566  0.00  0.00    +0.000 N 
ATOM     27  C   UNL     1      -0.824  11.248  18.639  0.00  0.00    +0.000 C 
ATOM     28  C   UNL     1      -0.849  12.756  18.513  0.00  0.00    +0.000 C 
ATOM     29  C   UNL     1      -0.383  13.236  19.873  0.00  0.00    +0.000 C 
ATOM     30  C   UNL     1       0.532  12.126  20.338  0.00  0.00    +0.000 C 
ATOM     31  O   UNL     1       1.315  12.263  21.264  0.00  0.00    +0.000 OA
ENDBRANCH  24  26
ENDBRANCH   2  20
TORSDOF 5
ENDMDL
