MODEL 1
REMARK VINA RESULT:      -8.0      0.000      0.000
REMARK  Name = 
REMARK  3 active torsions:
REMARK  status: ('A' for Active; 'I' for Inactive)
REMARK    1  A    between atoms: C_2  and  C_10
REMARK    2  A    between atoms: N_3  and  C_4
REMARK    3  A    between atoms: C_14  and  C_16
REMARK                            x       y       z     vdW  Elec       q    Type
REMARK                         _______ _______ _______ _____ _____    ______ ____
ROOT
ATOM      1  C   UNL     1       1.138  10.412  19.598  0.00  0.00    +0.000 C 
ATOM      2  C   UNL     1       1.944  10.179  18.313  0.00  0.00    +0.000 C 
ATOM      3  C   UNL     1       1.741   8.763  17.789  0.00  0.00    +0.000 C 
ATOM      4  N   UNL     1       2.129   7.812  18.825  0.00  0.00    +0.000 N 
ATOM      5  C   UNL     1       3.028   6.830  18.488  0.00  0.00    +0.000 C 
ATOM      6  O   UNL     1       3.369   6.676  17.308  0.00  0.00    +0.000 OA
ATOM      7  C   UNL     1       1.389   7.924  20.075  0.00  0.00    +0.000 C 
ATOM      8  C   UNL     1       1.480   9.336  20.642  0.00  0.00    +0.000 C 
ENDROOT
BRANCH   5   9
ATOM      9  C   UNL     1       3.640   5.952  19.530  0.00  0.00    +0.000 A 
ATOM     10  C   UNL     1       4.865   5.520  19.150  0.00  0.00    +0.000 A 
ATOM     11  N   UNL     1       5.268   4.180  19.214  0.00  0.00    +0.000 N 
ATOM     12  C   UNL     1       4.144   3.298  19.085  0.00  0.00    +0.000 A 
ATOM     13  C   UNL     1       4.138   2.251  18.176  0.00  0.00    +0.000 A 
ATOM     14  C   UNL     1       2.974   1.484  18.031  0.00  0.00    +0.000 A 
ATOM     15  C   UNL     1       1.850   1.719  18.836  0.00  0.00    +0.000 A 
ATOM     16  C   UNL     1       1.835   2.782  19.728  0.00  0.00    +0.000 A 
ATOM     17  C   UNL     1       2.962   3.593  19.784  0.00  0.00    +0.000 A 
ATOM     18  C   UNL     1       2.879   4.948  20.339  0.00  0.00    +0.000 A 
ATOM     19  O   UNL     1       2.305   5.170  21.395  0.00  0.00    +0.000 OA
ATOM     20  H   UNL     1       5.636   4.022  20.159  0.00  0.00    +0.000 HD
ENDBRANCH   5   9
BRANCH   1  22
ATOM     21  O   UNL     1      -1.164  10.057  20.193  0.00  0.00    +0.000 OA
ATOM     22  C   UNL     1      -0.367  10.431  19.339  0.00  0.00    +0.000 C 
ATOM     23  N   UNL     1      -0.702  10.903  18.081  0.00  0.00    +0.000 N 
ATOM     24  H   UNL     1       0.041  11.071  17.422  0.00  0.00    +0.000 HD
BRANCH  23  25
ATOM     25  C   UNL     1      -2.015  11.042  17.580  0.00  0.00    +0.000 A 
ATOM     26  C   UNL     1      -3.029  11.713  18.271  0.00  0.00    +0.000 A 
ATOM     27  C   UNL     1      -4.314  11.803  17.735  0.00  0.00    +0.000 A 
ATOM     28  C   UNL     1      -4.596  11.223  16.502  0.00  0.00    +0.000 A 
ATOM     29  C   UNL     1      -3.589  10.566  15.798  0.00  0.00    +0.000 A 
ATOM     30  C   UNL     1      -2.298  10.486  16.331  0.00  0.00    +0.000 A 
ENDBRANCH  23  25
ENDBRANCH   1  22
TORSDOF 3
ENDMDL
MODEL 2
REMARK VINA RESULT:      -7.9      2.708      4.070
REMARK  Name = 
REMARK  3 active torsions:
REMARK  status: ('A' for Active; 'I' for Inactive)
REMARK    1  A    between atoms: C_2  and  C_10
REMARK    2  A    between atoms: N_3  and  C_4
REMARK    3  A    between atoms: C_14  and  C_16
REMARK                            x       y       z     vdW  Elec       q    Type
REMARK                         _______ _______ _______ _____ _____    ______ ____
ROOT
ATOM      1  C   UNL     1      -0.185  10.482  19.195  0.00  0.00    +0.000 C 
ATOM      2  C   UNL     1      -0.204   9.487  20.364  0.00  0.00    +0.000 C 
ATOM      3  C   UNL     1       1.194   8.959  20.655  0.00  0.00    +0.000 C 
ATOM      4  N   UNL     1       1.727   8.333  19.449  0.00  0.00    +0.000 N 
ATOM      5  C   UNL     1       2.211   7.052  19.553  0.00  0.00    +0.000 C 
ATOM      6  O   UNL     1       2.326   6.518  20.663  0.00  0.00    +0.000 OA
ATOM      7  C   UNL     1       1.827   9.211  18.290  0.00  0.00    +0.000 C 
ATOM      8  C   UNL     1       0.478   9.843  17.964  0.00  0.00    +0.000 C 
ENDROOT
BRANCH   5   9
ATOM      9  C   UNL     1       2.575   6.263  18.338  0.00  0.00    +0.000 A 
ATOM     10  C   UNL     1       1.506   5.588  17.853  0.00  0.00    +0.000 A 
ATOM     11  N   UNL     1       1.536   4.228  17.518  0.00  0.00    +0.000 N 
ATOM     12  C   UNL     1       2.509   3.526  18.306  0.00  0.00    +0.000 A 
ATOM     13  C   UNL     1       2.193   2.364  18.991  0.00  0.00    +0.000 A 
ATOM     14  C   UNL     1       3.161   1.778  19.818  0.00  0.00    +0.000 A 
ATOM     15  C   UNL     1       4.455   2.311  19.904  0.00  0.00    +0.000 A 
ATOM     16  C   UNL     1       4.774   3.490  19.245  0.00  0.00    +0.000 A 
ATOM     17  C   UNL     1       3.769   4.111  18.512  0.00  0.00    +0.000 A 
ATOM     18  C   UNL     1       3.870   5.532  18.164  0.00  0.00    +0.000 A 
ATOM     19  O   UNL     1       4.900   6.006  17.709  0.00  0.00    +0.000 OA
ATOM     20  H   UNL     1       1.866   4.165  16.550  0.00  0.00    +0.000 HD
ENDBRANCH   5   9
BRANCH   1  22
ATOM     21  O   UNL     1       0.758  12.078  20.727  0.00  0.00    +0.000 OA
ATOM     22  C   UNL     1       0.528  11.783  19.558  0.00  0.00    +0.000 C 
ATOM     23  N   UNL     1       0.869  12.550  18.456  0.00  0.00    +0.000 N 
ATOM     24  H   UNL     1       0.525  12.264  17.553  0.00  0.00    +0.000 HD
BRANCH  23  25
ATOM     25  C   UNL     1       1.545  13.789  18.496  0.00  0.00    +0.000 A 
ATOM     26  C   UNL     1       0.911  14.995  18.813  0.00  0.00    +0.000 A 
ATOM     27  C   UNL     1       1.627  16.192  18.819  0.00  0.00    +0.000 A 
ATOM     28  C   UNL     1       2.984  16.194  18.510  0.00  0.00    +0.000 A 
ATOM     29  C   UNL     1       3.628  14.996  18.209  0.00  0.00    +0.000 A 
ATOM     30  C   UNL     1       2.913  13.794  18.214  0.00  0.00    +0.000 A 
ENDBRANCH  23  25
ENDBRANCH   1  22
TORSDOF 3
ENDMDL
MODEL 3
REMARK VINA RESULT:      -7.7      2.738      4.467
REMARK  Name = 
REMARK  3 active torsions:
REMARK  status: ('A' for Active; 'I' for Inactive)
REMARK    1  A    between atoms: C_2  and  C_10
REMARK    2  A    between atoms: N_3  and  C_4
REMARK    3  A    between atoms: C_14  and  C_16
REMARK                            x       y       z     vdW  Elec       q    Type
REMARK                         _______ _______ _______ _____ _____    ______ ____
ROOT
ATOM      1  C   UNL     1      -0.442  10.274  19.235  0.00  0.00    +0.000 C 
ATOM      2  C   UNL     1      -0.236   9.256  20.365  0.00  0.00    +0.000 C 
ATOM      3  C   UNL     1       1.242   8.935  20.549  0.00  0.00    +0.000 C 
ATOM      4  N   UNL     1       1.778   8.429  19.289  0.00  0.00    +0.000 N 
ATOM      5  C   UNL     1       2.451   7.232  19.315  0.00  0.00    +0.000 C 
ATOM      6  O   UNL     1       2.719   6.691  20.396  0.00  0.00    +0.000 OA
ATOM      7  C   UNL     1       1.669   9.343  18.159  0.00  0.00    +0.000 C 
ATOM      8  C   UNL     1       0.223   9.775  17.942  0.00  0.00    +0.000 C 
ENDROOT
BRANCH   5   9
ATOM      9  C   UNL     1       2.844   6.540  18.051  0.00  0.00    +0.000 A 
ATOM     10  C   UNL     1       2.831   5.194  18.204  0.00  0.00    +0.000 A 
ATOM     11  N   UNL     1       3.883   4.359  17.810  0.00  0.00    +0.000 N 
ATOM     12  C   UNL     1       5.138   5.056  17.858  0.00  0.00    +0.000 A 
ATOM     13  C   UNL     1       6.240   4.531  18.513  0.00  0.00    +0.000 A 
ATOM     14  C   UNL     1       7.407   5.301  18.605  0.00  0.00    +0.000 A 
ATOM     15  C   UNL     1       7.493   6.557  17.987  0.00  0.00    +0.000 A 
ATOM     16  C   UNL     1       6.386   7.105  17.353  0.00  0.00    +0.000 A 
ATOM     17  C   UNL     1       5.207   6.367  17.361  0.00  0.00    +0.000 A 
ATOM     18  C   UNL     1       3.917   7.022  17.124  0.00  0.00    +0.000 A 
ATOM     19  O   UNL     1       3.762   7.812  16.205  0.00  0.00    +0.000 OA
ATOM     20  H   UNL     1       3.732   4.130  16.822  0.00  0.00    +0.000 HD
ENDBRANCH   5   9
BRANCH   1  22
ATOM     21  O   UNL     1       0.176  12.019  20.770  0.00  0.00    +0.000 OA
ATOM     22  C   UNL     1       0.094  11.657  19.600  0.00  0.00    +0.000 C 
ATOM     23  N   UNL     1       0.463  12.412  18.499  0.00  0.00    +0.000 N 
ATOM     24  H   UNL     1       0.242  12.057  17.583  0.00  0.00    +0.000 HD
BRANCH  23  25
ATOM     25  C   UNL     1       1.001  13.717  18.543  0.00  0.00    +0.000 A 
ATOM     26  C   UNL     1       0.232  14.852  18.820  0.00  0.00    +0.000 A 
ATOM     27  C   UNL     1       0.815  16.119  18.832  0.00  0.00    +0.000 A 
ATOM     28  C   UNL     1       2.174  16.262  18.568  0.00  0.00    +0.000 A 
ATOM     29  C   UNL     1       2.952  15.137  18.306  0.00  0.00    +0.000 A 
ATOM     30  C   UNL     1       2.370  13.865  18.306  0.00  0.00    +0.000 A 
ENDBRANCH  23  25
ENDBRANCH   1  22
TORSDOF 3
ENDMDL
MODEL 4
REMARK VINA RESULT:      -7.5      1.073      1.281
REMARK  Name = 
REMARK  3 active torsions:
REMARK  status: ('A' for Active; 'I' for Inactive)
REMARK    1  A    between atoms: C_2  and  C_10
REMARK    2  A    between atoms: N_3  and  C_4
REMARK    3  A    between atoms: C_14  and  C_16
REMARK                            x       y       z     vdW  Elec       q    Type
REMARK                         _______ _______ _______ _____ _____    ______ ____
ROOT
ATOM      1  C   UNL     1       0.919  11.018  20.336  0.00  0.00    +0.000 C 
ATOM      2  C   UNL     1       1.413  10.798  18.900  0.00  0.00    +0.000 C 
ATOM      3  C   UNL     1       1.006   9.422  18.386  0.00  0.00    +0.000 C 
ATOM      4  N   UNL     1       1.540   8.402  19.283  0.00  0.00    +0.000 N 
ATOM      5  C   UNL     1       2.277   7.385  18.727  0.00  0.00    +0.000 C 
ATOM      6  O   UNL     1       2.346   7.266  17.497  0.00  0.00    +0.000 OA
ATOM      7  C   UNL     1       1.094   8.500  20.667  0.00  0.00    +0.000 C 
ATOM      8  C   UNL     1       1.401   9.877  21.246  0.00  0.00    +0.000 C 
ENDROOT
BRANCH   5   9
ATOM      9  C   UNL     1       3.035   6.425  19.584  0.00  0.00    +0.000 A 
ATOM     10  C   UNL     1       4.252   6.152  19.055  0.00  0.00    +0.000 A 
ATOM     11  N   UNL     1       4.754   4.855  18.895  0.00  0.00    +0.000 N 
ATOM     12  C   UNL     1       3.688   3.909  18.721  0.00  0.00    +0.000 A 
ATOM     13  C   UNL     1       3.681   3.002  17.674  0.00  0.00    +0.000 A 
ATOM     14  C   UNL     1       2.567   2.169  17.504  0.00  0.00    +0.000 A 
ATOM     15  C   UNL     1       1.501   2.195  18.414  0.00  0.00    +0.000 A 
ATOM     16  C   UNL     1       1.485   3.119  19.450  0.00  0.00    +0.000 A 
ATOM     17  C   UNL     1       2.552   4.005  19.541  0.00  0.00    +0.000 A 
ATOM     18  C   UNL     1       2.419   5.258  20.292  0.00  0.00    +0.000 A 
ATOM     19  O   UNL     1       1.922   5.283  21.407  0.00  0.00    +0.000 OA
ATOM     20  H   UNL     1       5.210   4.598  19.777  0.00  0.00    +0.000 HD
ENDBRANCH   5   9
BRANCH   1  22
ATOM     21  O   UNL     1      -1.215  10.843  21.430  0.00  0.00    +0.000 OA
ATOM     22  C   UNL     1      -0.602  11.140  20.409  0.00  0.00    +0.000 C 
ATOM     23  N   UNL     1      -1.173  11.608  19.238  0.00  0.00    +0.000 N 
ATOM     24  H   UNL     1      -0.583  11.707  18.427  0.00  0.00    +0.000 HD
BRANCH  23  25
ATOM     25  C   UNL     1      -2.552  11.830  19.029  0.00  0.00    +0.000 A 
ATOM     26  C   UNL     1      -3.348  12.573  19.907  0.00  0.00    +0.000 A 
ATOM     27  C   UNL     1      -4.710  12.744  19.659  0.00  0.00    +0.000 A 
ATOM     28  C   UNL     1      -5.288  12.174  18.529  0.00  0.00    +0.000 A 
ATOM     29  C   UNL     1      -4.502  11.445  17.640  0.00  0.00    +0.000 A 
ATOM     30  C   UNL     1      -3.134  11.283  17.883  0.00  0.00    +0.000 A 
ENDBRANCH  23  25
ENDBRANCH   1  22
TORSDOF 3
ENDMDL
MODEL 5
REMARK VINA RESULT:      -7.5      2.753      4.669
REMARK  Name = 
REMARK  3 active torsions:
REMARK  status: ('A' for Active; 'I' for Inactive)
REMARK    1  A    between atoms: C_2  and  C_10
REMARK    2  A    between atoms: N_3  and  C_4
REMARK    3  A    between atoms: C_14  and  C_16
REMARK                            x       y       z     vdW  Elec       q    Type
REMARK                         _______ _______ _______ _____ _____    ______ ____
ROOT
ATOM      1  C   UNL     1      -0.339   9.992  20.182  0.00  0.00    +0.000 C 
ATOM      2  C   UNL     1      -0.121   8.776  21.093  0.00  0.00    +0.000 C 
ATOM      3  C   UNL     1       1.348   8.376  21.131  0.00  0.00    +0.000 C 
ATOM      4  N   UNL     1       1.799   8.094  19.771  0.00  0.00    +0.000 N 
ATOM      5  C   UNL     1       2.419   6.891  19.540  0.00  0.00    +0.000 C 
ATOM      6  O   UNL     1       2.716   6.150  20.486  0.00  0.00    +0.000 OA
ATOM      7  C   UNL     1       1.674   9.204  18.836  0.00  0.00    +0.000 C 
ATOM      8  C   UNL     1       0.239   9.718  18.784  0.00  0.00    +0.000 C 
ENDROOT
BRANCH   5   9
ATOM      9  C   UNL     1       2.719   6.431  18.150  0.00  0.00    +0.000 A 
ATOM     10  C   UNL     1       2.683   5.081  18.062  0.00  0.00    +0.000 A 
ATOM     11  N   UNL     1       3.690   4.317  17.459  0.00  0.00    +0.000 N 
ATOM     12  C   UNL     1       4.961   4.979  17.550  0.00  0.00    +0.000 A 
ATOM     13  C   UNL     1       6.089   4.332  18.029  0.00  0.00    +0.000 A 
ATOM     14  C   UNL     1       7.276   5.060  18.182  0.00  0.00    +0.000 A 
ATOM     15  C   UNL     1       7.353   6.404  17.793  0.00  0.00    +0.000 A 
ATOM     16  C   UNL     1       6.223   7.070  17.339  0.00  0.00    +0.000 A 
ATOM     17  C   UNL     1       5.030   6.357  17.291  0.00  0.00    +0.000 A 
ATOM     18  C   UNL     1       3.743   7.059  17.257  0.00  0.00    +0.000 A 
ATOM     19  O   UNL     1       3.551   8.002  16.505  0.00  0.00    +0.000 OA
ATOM     20  H   UNL     1       3.473   4.270  16.458  0.00  0.00    +0.000 HD
ENDBRANCH   5   9
BRANCH   1  22
ATOM     21  O   UNL     1       0.412  11.409  21.974  0.00  0.00    +0.000 OA
ATOM     22  C   UNL     1       0.276  11.264  20.763  0.00  0.00    +0.000 C 
ATOM     23  N   UNL     1       0.643  12.187  19.798  0.00  0.00    +0.000 N 
ATOM     24  H   UNL     1       0.376  12.010  18.843  0.00  0.00    +0.000 HD
BRANCH  23  25
ATOM     25  C   UNL     1       1.245  13.440  20.049  0.00  0.00    +0.000 A 
ATOM     26  C   UNL     1       0.526  14.561  20.475  0.00  0.00    +0.000 A 
ATOM     27  C   UNL     1       1.171  15.779  20.691  0.00  0.00    +0.000 A 
ATOM     28  C   UNL     1       2.543  15.886  20.482  0.00  0.00    +0.000 A 
ATOM     29  C   UNL     1       3.271  14.772  20.072  0.00  0.00    +0.000 A 
ATOM     30  C   UNL     1       2.626  13.547  19.867  0.00  0.00    +0.000 A 
ENDBRANCH  23  25
ENDBRANCH   1  22
TORSDOF 3
ENDMDL
MODEL 6
REMARK VINA RESULT:      -7.5      3.830     10.052
REMARK  Name = 
REMARK  3 active torsions:
REMARK  status: ('A' for Active; 'I' for Inactive)
REMARK    1  A    between atoms: C_2  and  C_10
REMARK    2  A    between atoms: N_3  and  C_4
REMARK    3  A    between atoms: C_14  and  C_16
REMARK                            x       y       z     vdW  Elec       q    Type
REMARK                         _______ _______ _______ _____ _____    ______ ____
ROOT
ATOM      1  C   UNL     1       0.595  11.570  19.253  0.00  0.00    +0.000 C 
ATOM      2  C   UNL     1       0.565  11.755  20.777  0.00  0.00    +0.000 C 
ATOM      3  C   UNL     1      -0.739  11.231  21.366  0.00  0.00    +0.000 C 
ATOM      4  N   UNL     1      -1.858  11.924  20.736  0.00  0.00    +0.000 N 
ATOM      5  C   UNL     1      -2.787  12.517  21.556  0.00  0.00    +0.000 C 
ATOM      6  O   UNL     1      -2.748  12.330  22.779  0.00  0.00    +0.000 OA
ATOM      7  C   UNL     1      -1.943  11.774  19.289  0.00  0.00    +0.000 C 
ATOM      8  C   UNL     1      -0.647  12.213  18.615  0.00  0.00    +0.000 C 
ENDROOT
BRANCH   5   9
ATOM      9  C   UNL     1      -3.839  13.422  21.003  0.00  0.00    +0.000 A 
ATOM     10  C   UNL     1      -3.822  14.627  21.619  0.00  0.00    +0.000 A 
ATOM     11  N   UNL     1      -4.966  15.254  22.128  0.00  0.00    +0.000 N 
ATOM     12  C   UNL     1      -5.954  14.286  22.513  0.00  0.00    +0.000 A 
ATOM     13  C   UNL     1      -6.556  14.313  23.761  0.00  0.00    +0.000 A 
ATOM     14  C   UNL     1      -7.442  13.286  24.111  0.00  0.00    +0.000 A 
ATOM     15  C   UNL     1      -7.776  12.278  23.195  0.00  0.00    +0.000 A 
ATOM     16  C   UNL     1      -7.158  12.225  21.953  0.00  0.00    +0.000 A 
ATOM     17  C   UNL     1      -6.206  13.196  21.664  0.00  0.00    +0.000 A 
ATOM     18  C   UNL     1      -5.213  12.975  20.608  0.00  0.00    +0.000 A 
ATOM     19  O   UNL     1      -5.534  12.544  19.511  0.00  0.00    +0.000 OA
ATOM     20  H   UNL     1      -5.385  15.786  21.358  0.00  0.00    +0.000 HD
ENDBRANCH   5   9
BRANCH   1  22
ATOM     21  O   UNL     1       0.023   9.649  17.925  0.00  0.00    +0.000 OA
ATOM     22  C   UNL     1       0.687  10.099  18.854  0.00  0.00    +0.000 C 
ATOM     23  N   UNL     1       1.574   9.373  19.631  0.00  0.00    +0.000 N 
ATOM     24  H   UNL     1       1.975   9.821  20.440  0.00  0.00    +0.000 HD
BRANCH  23  25
ATOM     25  C   UNL     1       1.866   8.000  19.476  0.00  0.00    +0.000 A 
ATOM     26  C   UNL     1       2.406   7.462  18.303  0.00  0.00    +0.000 A 
ATOM     27  C   UNL     1       2.658   6.094  18.200  0.00  0.00    +0.000 A 
ATOM     28  C   UNL     1       2.373   5.251  19.271  0.00  0.00    +0.000 A 
ATOM     29  C   UNL     1       1.850   5.779  20.449  0.00  0.00    +0.000 A 
ATOM     30  C   UNL     1       1.608   7.153  20.556  0.00  0.00    +0.000 A 
ENDBRANCH  23  25
ENDBRANCH   1  22
TORSDOF 3
ENDMDL
MODEL 7
REMARK VINA RESULT:      -7.4      1.998      2.595
REMARK  Name = 
REMARK  3 active torsions:
REMARK  status: ('A' for Active; 'I' for Inactive)
REMARK    1  A    between atoms: C_2  and  C_10
REMARK    2  A    between atoms: N_3  and  C_4
REMARK    3  A    between atoms: C_14  and  C_16
REMARK                            x       y       z     vdW  Elec       q    Type
REMARK                         _______ _______ _______ _____ _____    ______ ____
ROOT
ATOM      1  C   UNL     1       0.556  11.353  19.774  0.00  0.00    +0.000 C 
ATOM      2  C   UNL     1       1.836  11.346  18.927  0.00  0.00    +0.000 C 
ATOM      3  C   UNL     1       1.729  10.344  17.784  0.00  0.00    +0.000 C 
ATOM      4  N   UNL     1       1.462   9.019  18.336  0.00  0.00    +0.000 N 
ATOM      5  C   UNL     1       2.285   7.989  17.951  0.00  0.00    +0.000 C 
ATOM      6  O   UNL     1       3.118   8.159  17.052  0.00  0.00    +0.000 OA
ATOM      7  C   UNL     1       0.241   8.912  19.124  0.00  0.00    +0.000 C 
ATOM      8  C   UNL     1       0.230   9.932  20.258  0.00  0.00    +0.000 C 
ENDROOT
BRANCH   5   9
ATOM      9  C   UNL     1       2.219   6.657  18.624  0.00  0.00    +0.000 A 
ATOM     10  C   UNL     1       2.905   6.664  19.792  0.00  0.00    +0.000 A 
ATOM     11  N   UNL     1       3.835   5.680  20.150  0.00  0.00    +0.000 N 
ATOM     12  C   UNL     1       4.442   5.099  18.986  0.00  0.00    +0.000 A 
ATOM     13  C   UNL     1       5.818   4.991  18.857  0.00  0.00    +0.000 A 
ATOM     14  C   UNL     1       6.352   4.501  17.658  0.00  0.00    +0.000 A 
ATOM     15  C   UNL     1       5.515   4.060  16.623  0.00  0.00    +0.000 A 
ATOM     16  C   UNL     1       4.138   4.191  16.729  0.00  0.00    +0.000 A 
ATOM     17  C   UNL     1       3.632   4.773  17.886  0.00  0.00    +0.000 A 
ATOM     18  C   UNL     1       2.282   5.345  17.905  0.00  0.00    +0.000 A 
ATOM     19  O   UNL     1       1.328   4.741  17.440  0.00  0.00    +0.000 OA
ATOM     20  H   UNL     1       3.312   4.920  20.597  0.00  0.00    +0.000 HD
ENDBRANCH   5   9
BRANCH   1  22
ATOM     21  O   UNL     1      -0.534  12.979  18.378  0.00  0.00    +0.000 OA
ATOM     22  C   UNL     1      -0.634  11.934  19.014  0.00  0.00    +0.000 C 
ATOM     23  N   UNL     1      -1.783  11.169  19.124  0.00  0.00    +0.000 N 
ATOM     24  H   UNL     1      -1.779  10.394  19.767  0.00  0.00    +0.000 HD
BRANCH  23  25
ATOM     25  C   UNL     1      -3.024  11.460  18.515  0.00  0.00    +0.000 A 
ATOM     26  C   UNL     1      -3.329  11.105  17.197  0.00  0.00    +0.000 A 
ATOM     27  C   UNL     1      -4.566  11.435  16.641  0.00  0.00    +0.000 A 
ATOM     28  C   UNL     1      -5.509  12.121  17.400  0.00  0.00    +0.000 A 
ATOM     29  C   UNL     1      -5.220  12.466  18.718  0.00  0.00    +0.000 A 
ATOM     30  C   UNL     1      -3.985  12.125  19.279  0.00  0.00    +0.000 A 
ENDBRANCH  23  25
ENDBRANCH   1  22
TORSDOF 3
ENDMDL
MODEL 8
REMARK VINA RESULT:      -7.4      4.252      9.922
REMARK  Name = 
REMARK  3 active torsions:
REMARK  status: ('A' for Active; 'I' for Inactive)
REMARK    1  A    between atoms: C_2  and  C_10
REMARK    2  A    between atoms: N_3  and  C_4
REMARK    3  A    between atoms: C_14  and  C_16
REMARK                            x       y       z     vdW  Elec       q    Type
REMARK                         _______ _______ _______ _____ _____    ______ ____
ROOT
ATOM      1  C   UNL     1      -0.254   9.744  20.868  0.00  0.00    +0.000 C 
ATOM      2  C   UNL     1      -0.872  10.119  19.515  0.00  0.00    +0.000 C 
ATOM      3  C   UNL     1       0.020  11.096  18.759  0.00  0.00    +0.000 C 
ATOM      4  N   UNL     1       0.230  12.283  19.582  0.00  0.00    +0.000 N 
ATOM      5  C   UNL     1      -0.036  13.507  19.018  0.00  0.00    +0.000 C 
ATOM      6  O   UNL     1      -0.295  13.595  17.811  0.00  0.00    +0.000 OA
ATOM      7  C   UNL     1       0.854  12.036  20.875  0.00  0.00    +0.000 C 
ATOM      8  C   UNL     1       0.062  11.011  21.679  0.00  0.00    +0.000 C 
ENDROOT
BRANCH   5   9
ATOM      9  C   UNL     1      -0.054  14.750  19.847  0.00  0.00    +0.000 A 
ATOM     10  C   UNL     1      -1.302  15.271  19.922  0.00  0.00    +0.000 A 
ATOM     11  N   UNL     1      -1.593  16.621  19.689  0.00  0.00    +0.000 N 
ATOM     12  C   UNL     1      -0.646  17.202  18.779  0.00  0.00    +0.000 A 
ATOM     13  C   UNL     1      -1.050  17.915  17.662  0.00  0.00    +0.000 A 
ATOM     14  C   UNL     1      -0.079  18.375  16.762  0.00  0.00    +0.000 A 
ATOM     15  C   UNL     1       1.287  18.184  17.014  0.00  0.00    +0.000 A 
ATOM     16  C   UNL     1       1.701  17.446  18.114  0.00  0.00    +0.000 A 
ATOM     17  C   UNL     1       0.718  16.911  18.940  0.00  0.00    +0.000 A 
ATOM     18  C   UNL     1       1.024  15.789  19.833  0.00  0.00    +0.000 A 
ATOM     19  O   UNL     1       2.027  15.784  20.530  0.00  0.00    +0.000 OA
ATOM     20  H   UNL     1      -1.461  17.115  20.578  0.00  0.00    +0.000 HD
ENDBRANCH   5   9
BRANCH   1  22
ATOM     21  O   UNL     1       1.778   8.720  21.649  0.00  0.00    +0.000 OA
ATOM     22  C   UNL     1       1.007   8.896  20.710  0.00  0.00    +0.000 C 
ATOM     23  N   UNL     1       1.162   8.373  19.437  0.00  0.00    +0.000 N 
ATOM     24  H   UNL     1       0.528   8.680  18.716  0.00  0.00    +0.000 HD
BRANCH  23  25
ATOM     25  C   UNL     1       2.225   7.544  19.015  0.00  0.00    +0.000 A 
ATOM     26  C   UNL     1       2.586   6.367  19.678  0.00  0.00    +0.000 A 
ATOM     27  C   UNL     1       3.657   5.597  19.225  0.00  0.00    +0.000 A 
ATOM     28  C   UNL     1       4.377   5.997  18.103  0.00  0.00    +0.000 A 
ATOM     29  C   UNL     1       4.015   7.160  17.426  0.00  0.00    +0.000 A 
ATOM     30  C   UNL     1       2.934   7.926  17.873  0.00  0.00    +0.000 A 
ENDBRANCH  23  25
ENDBRANCH   1  22
TORSDOF 3
ENDMDL
MODEL 9
REMARK VINA RESULT:      -7.3      3.208      4.429
REMARK  Name = 
REMARK  3 active torsions:
REMARK  status: ('A' for Active; 'I' for Inactive)
REMARK    1  A    between atoms: C_2  and  C_10
REMARK    2  A    between atoms: N_3  and  C_4
REMARK    3  A    between atoms: C_14  and  C_16
REMARK                            x       y       z     vdW  Elec       q    Type
REMARK                         _______ _______ _______ _____ _____    ______ ____
ROOT
ATOM      1  C   UNL     1      -1.297  12.831  19.525  0.00  0.00    +0.000 C 
ATOM      2  C   UNL     1      -1.301  12.272  18.096  0.00  0.00    +0.000 C 
ATOM      3  C   UNL     1      -1.396  10.751  18.104  0.00  0.00    +0.000 C 
ATOM      4  N   UNL     1      -0.280  10.209  18.872  0.00  0.00    +0.000 N 
ATOM      5  C   UNL     1       0.499   9.247  18.275  0.00  0.00    +0.000 C 
ATOM      6  O   UNL     1       0.162   8.758  17.190  0.00  0.00    +0.000 OA
ATOM      7  C   UNL     1      -0.212  10.648  20.259  0.00  0.00    +0.000 C 
ATOM      8  C   UNL     1      -0.182  12.170  20.352  0.00  0.00    +0.000 C 
ENDROOT
BRANCH   5   9
ATOM      9  C   UNL     1       1.778   8.794  18.899  0.00  0.00    +0.000 A 
ATOM     10  C   UNL     1       2.712   8.518  17.957  0.00  0.00    +0.000 A 
ATOM     11  N   UNL     1       3.468   7.340  17.938  0.00  0.00    +0.000 N 
ATOM     12  C   UNL     1       2.749   6.258  18.548  0.00  0.00    +0.000 A 
ATOM     13  C   UNL     1       2.599   5.033  17.917  0.00  0.00    +0.000 A 
ATOM     14  C   UNL     1       1.806   4.049  18.523  0.00  0.00    +0.000 A 
ATOM     15  C   UNL     1       1.227   4.263  19.782  0.00  0.00    +0.000 A 
ATOM     16  C   UNL     1       1.347   5.495  20.410  0.00  0.00    +0.000 A 
ATOM     17  C   UNL     1       2.052   6.492  19.745  0.00  0.00    +0.000 A 
ATOM     18  C   UNL     1       1.863   7.903  20.099  0.00  0.00    +0.000 A 
ATOM     19  O   UNL     1       1.860   8.273  21.263  0.00  0.00    +0.000 OA
ATOM     20  H   UNL     1       4.287   7.499  18.534  0.00  0.00    +0.000 HD
ENDBRANCH   5   9
BRANCH   1  22
ATOM     21  O   UNL     1      -3.631  12.259  19.602  0.00  0.00    +0.000 OA
ATOM     22  C   UNL     1      -2.644  12.646  20.220  0.00  0.00    +0.000 C 
ATOM     23  N   UNL     1      -2.614  12.953  21.571  0.00  0.00    +0.000 N 
ATOM     24  H   UNL     1      -1.778  13.373  21.944  0.00  0.00    +0.000 HD
BRANCH  23  25
ATOM     25  C   UNL     1      -3.708  12.860  22.458  0.00  0.00    +0.000 A 
ATOM     26  C   UNL     1      -5.020  13.175  22.089  0.00  0.00    +0.000 A 
ATOM     27  C   UNL     1      -6.060  13.081  23.014  0.00  0.00    +0.000 A 
ATOM     28  C   UNL     1      -5.797  12.670  24.317  0.00  0.00    +0.000 A 
ATOM     29  C   UNL     1      -4.497  12.338  24.691  0.00  0.00    +0.000 A 
ATOM     30  C   UNL     1      -3.456  12.421  23.760  0.00  0.00    +0.000 A 
ENDBRANCH  23  25
ENDBRANCH   1  22
TORSDOF 3
ENDMDL
