MODEL 1
REMARK VINA RESULT:      -8.6      0.000      0.000
REMARK  Name = 
REMARK  5 active torsions:
REMARK  status: ('A' for Active; 'I' for Inactive)
REMARK    1  A    between atoms: C_2  and  C_3
REMARK    2  A    between atoms: C_3  and  C_4
REMARK    3  A    between atoms: N_13  and  C_14
REMARK    4  A    between atoms: C_14  and  C_15
REMARK    5  A    between atoms: C_15  and  C_16
REMARK                            x       y       z     vdW  Elec       q    Type
REMARK                         _______ _______ _______ _____ _____    ______ ____
ROOT
ATOM      1  O   UNL     1       2.212  10.391  18.027  0.00  0.00    +0.000 OA
ATOM      2  C   UNL     1       1.317   9.557  17.924  0.00  0.00    +0.000 C 
ATOM      3  N   UNL     1       1.553   8.202  17.836  0.00  0.00    +0.000 N 
ATOM      4  H   UNL     1       0.766   7.638  17.548  0.00  0.00    +0.000 HD
ENDROOT
BRANCH   2   5
ATOM      5  C   UNL     1      -0.166   9.914  17.926  0.00  0.00    +0.000 C 
BRANCH   5   6
ATOM      6  C   UNL     1      -0.567  10.712  19.127  0.00  0.00    +0.000 A 
ATOM      7  C   UNL     1      -1.044  12.010  19.107  0.00  0.00    +0.000 A 
ATOM      8  N   UNL     1      -1.295  12.402  20.392  0.00  0.00    +0.000 N 
ATOM      9  C   UNL     1      -0.987  11.389  21.267  0.00  0.00    +0.000 A 
ATOM     10  C   UNL     1      -1.088  11.349  22.664  0.00  0.00    +0.000 A 
ATOM     11  C   UNL     1      -0.681  10.180  23.312  0.00  0.00    +0.000 A 
ATOM     12  C   UNL     1      -0.184   9.101  22.588  0.00  0.00    +0.000 A 
ATOM     13  C   UNL     1      -0.086   9.157  21.191  0.00  0.00    +0.000 A 
ATOM     14  C   UNL     1      -0.506  10.319  20.507  0.00  0.00    +0.000 A 
ATOM     15  H   UNL     1      -1.651  13.306  20.666  0.00  0.00    +0.000 HD
ENDBRANCH   5   6
ENDBRANCH   2   5
BRANCH   3  16
ATOM     16  C   UNL     1       2.889   7.614  17.818  0.00  0.00    +0.000 C 
BRANCH  16  17
ATOM     17  C   UNL     1       2.945   6.171  18.423  0.00  0.00    +0.000 C 
ATOM     18  C   UNL     1       1.866   5.278  17.731  0.00  0.00    +0.000 C 
ATOM     19  C   UNL     1       1.677   3.948  18.449  0.00  0.00    +0.000 C 
ATOM     20  O   UNL     1       1.294   4.176  19.804  0.00  0.00    +0.000 OA
ATOM     21  C   UNL     1       2.308   4.863  20.535  0.00  0.00    +0.000 C 
ATOM     22  C   UNL     1       2.550   6.241  19.933  0.00  0.00    +0.000 C 
BRANCH  17  23
ATOM     23  C   UNL     1       4.386   5.620  18.202  0.00  0.00    +0.000 A 
ATOM     24  C   UNL     1       5.357   5.642  19.226  0.00  0.00    +0.000 A 
ATOM     25  C   UNL     1       6.651   5.141  19.023  0.00  0.00    +0.000 A 
ATOM     26  C   UNL     1       7.006   4.627  17.786  0.00  0.00    +0.000 A 
ATOM     27  F   UNL     1       8.242   4.152  17.592  0.00  0.00    +0.000 F 
ATOM     28  C   UNL     1       6.090   4.610  16.747  0.00  0.00    +0.000 A 
ATOM     29  C   UNL     1       4.798   5.111  16.951  0.00  0.00    +0.000 A 
ENDBRANCH  17  23
ENDBRANCH  16  17
ENDBRANCH   3  16
TORSDOF 5
ENDMDL
MODEL 2
REMARK VINA RESULT:      -8.4      3.667      8.630
REMARK  Name = 
REMARK  5 active torsions:
REMARK  status: ('A' for Active; 'I' for Inactive)
REMARK    1  A    between atoms: C_2  and  C_3
REMARK    2  A    between atoms: C_3  and  C_4
REMARK    3  A    between atoms: N_13  and  C_14
REMARK    4  A    between atoms: C_14  and  C_15
REMARK    5  A    between atoms: C_15  and  C_16
REMARK                            x       y       z     vdW  Elec       q    Type
REMARK                         _______ _______ _______ _____ _____    ______ ____
ROOT
ATOM      1  O   UNL     1       7.300   4.809  19.023  0.00  0.00    +0.000 OA
ATOM      2  C   UNL     1       6.664   5.386  18.146  0.00  0.00    +0.000 C 
ATOM      3  N   UNL     1       5.373   5.837  18.322  0.00  0.00    +0.000 N 
ATOM      4  H   UNL     1       4.884   6.104  17.479  0.00  0.00    +0.000 HD
ENDROOT
BRANCH   2   5
ATOM      5  C   UNL     1       7.238   5.714  16.772  0.00  0.00    +0.000 C 
BRANCH   5   6
ATOM      6  C   UNL     1       6.739   4.795  15.701  0.00  0.00    +0.000 A 
ATOM      7  C   UNL     1       5.907   3.709  15.900  0.00  0.00    +0.000 A 
ATOM      8  N   UNL     1       5.676   3.110  14.692  0.00  0.00    +0.000 N 
ATOM      9  C   UNL     1       6.347   3.777  13.695  0.00  0.00    +0.000 A 
ATOM     10  C   UNL     1       6.395   3.518  12.319  0.00  0.00    +0.000 A 
ATOM     11  C   UNL     1       7.183   4.358  11.528  0.00  0.00    +0.000 A 
ATOM     12  C   UNL     1       7.900   5.405  12.097  0.00  0.00    +0.000 A 
ATOM     13  C   UNL     1       7.844   5.650  13.476  0.00  0.00    +0.000 A 
ATOM     14  C   UNL     1       7.043   4.829  14.298  0.00  0.00    +0.000 A 
ATOM     15  H   UNL     1       5.101   2.293  14.547  0.00  0.00    +0.000 HD
ENDBRANCH   5   6
ENDBRANCH   2   5
BRANCH   3  16
ATOM     16  C   UNL     1       4.611   5.646  19.551  0.00  0.00    +0.000 C 
BRANCH  16  17
ATOM     17  C   UNL     1       3.077   5.441  19.311  0.00  0.00    +0.000 C 
ATOM     18  C   UNL     1       2.492   4.538  20.445  0.00  0.00    +0.000 C 
ATOM     19  C   UNL     1       1.075   4.074  20.134  0.00  0.00    +0.000 C 
ATOM     20  O   UNL     1       1.059   3.349  18.906  0.00  0.00    +0.000 OA
ATOM     21  C   UNL     1       1.443   4.164  17.801  0.00  0.00    +0.000 C 
ATOM     22  C   UNL     1       2.876   4.651  17.978  0.00  0.00    +0.000 C 
BRANCH  17  23
ATOM     23  C   UNL     1       2.408   6.848  19.284  0.00  0.00    +0.000 A 
ATOM     24  C   UNL     1       2.375   7.635  18.113  0.00  0.00    +0.000 A 
ATOM     25  C   UNL     1       1.768   8.899  18.094  0.00  0.00    +0.000 A 
ATOM     26  C   UNL     1       1.201   9.411  19.250  0.00  0.00    +0.000 A 
ATOM     27  F   UNL     1       0.626  10.618  19.231  0.00  0.00    +0.000 F 
ATOM     28  C   UNL     1       1.236   8.681  20.426  0.00  0.00    +0.000 A 
ATOM     29  C   UNL     1       1.842   7.418  20.446  0.00  0.00    +0.000 A 
ENDBRANCH  17  23
ENDBRANCH  16  17
ENDBRANCH   3  16
TORSDOF 5
ENDMDL
MODEL 3
REMARK VINA RESULT:      -8.3      1.744      2.363
REMARK  Name = 
REMARK  5 active torsions:
REMARK  status: ('A' for Active; 'I' for Inactive)
REMARK    1  A    between atoms: C_2  and  C_3
REMARK    2  A    between atoms: C_3  and  C_4
REMARK    3  A    between atoms: N_13  and  C_14
REMARK    4  A    between atoms: C_14  and  C_15
REMARK    5  A    between atoms: C_15  and  C_16
REMARK                            x       y       z     vdW  Elec       q    Type
REMARK                         _______ _______ _______ _____ _____    ______ ____
ROOT
ATOM      1  O   UNL     1       3.777   7.934  17.676  0.00  0.00    +0.000 OA
ATOM      2  C   UNL     1       2.708   7.616  18.185  0.00  0.00    +0.000 C 
ATOM      3  N   UNL     1       2.580   6.591  19.097  0.00  0.00    +0.000 N 
ATOM      4  H   UNL     1       1.635   6.287  19.287  0.00  0.00    +0.000 HD
ENDROOT
BRANCH   2   5
ATOM      5  C   UNL     1       1.396   8.344  17.906  0.00  0.00    +0.000 C 
BRANCH   5   6
ATOM      6  C   UNL     1       1.192   9.530  18.795  0.00  0.00    +0.000 A 
ATOM      7  C   UNL     1       1.548  10.831  18.492  0.00  0.00    +0.000 A 
ATOM      8  N   UNL     1       1.212  11.632  19.548  0.00  0.00    +0.000 N 
ATOM      9  C   UNL     1       0.644  10.883  20.551  0.00  0.00    +0.000 A 
ATOM     10  C   UNL     1       0.154  11.284  21.801  0.00  0.00    +0.000 A 
ATOM     11  C   UNL     1      -0.360  10.295  22.643  0.00  0.00    +0.000 A 
ATOM     12  C   UNL     1      -0.371   8.960  22.251  0.00  0.00    +0.000 A 
ATOM     13  C   UNL     1       0.126   8.575  20.999  0.00  0.00    +0.000 A 
ATOM     14  C   UNL     1       0.636   9.554  20.119  0.00  0.00    +0.000 A 
ATOM     15  H   UNL     1       1.361  12.630  19.594  0.00  0.00    +0.000 HD
ENDBRANCH   5   6
ENDBRANCH   2   5
BRANCH   3  16
ATOM     16  C   UNL     1       3.693   5.750  19.528  0.00  0.00    +0.000 C 
BRANCH  16  17
ATOM     17  C   UNL     1       3.782   4.388  18.759  0.00  0.00    +0.000 C 
ATOM     18  C   UNL     1       2.377   4.032  18.175  0.00  0.00    +0.000 C 
ATOM     19  C   UNL     1       2.321   2.603  17.651  0.00  0.00    +0.000 C 
ATOM     20  O   UNL     1       2.636   1.687  18.698  0.00  0.00    +0.000 OA
ATOM     21  C   UNL     1       3.968   1.865  19.178  0.00  0.00    +0.000 C 
ATOM     22  C   UNL     1       4.131   3.256  19.777  0.00  0.00    +0.000 C 
BRANCH  17  23
ATOM     23  C   UNL     1       4.855   4.545  17.640  0.00  0.00    +0.000 A 
ATOM     24  C   UNL     1       4.500   4.679  16.281  0.00  0.00    +0.000 A 
ATOM     25  C   UNL     1       5.470   4.824  15.278  0.00  0.00    +0.000 A 
ATOM     26  C   UNL     1       6.815   4.817  15.613  0.00  0.00    +0.000 A 
ATOM     27  F   UNL     1       7.740   4.951  14.655  0.00  0.00    +0.000 F 
ATOM     28  C   UNL     1       7.206   4.662  16.932  0.00  0.00    +0.000 A 
ATOM     29  C   UNL     1       6.237   4.517  17.933  0.00  0.00    +0.000 A 
ENDBRANCH  17  23
ENDBRANCH  16  17
ENDBRANCH   3  16
TORSDOF 5
ENDMDL
MODEL 4
REMARK VINA RESULT:      -8.3      2.225      2.905
REMARK  Name = 
REMARK  5 active torsions:
REMARK  status: ('A' for Active; 'I' for Inactive)
REMARK    1  A    between atoms: C_2  and  C_3
REMARK    2  A    between atoms: C_3  and  C_4
REMARK    3  A    between atoms: N_13  and  C_14
REMARK    4  A    between atoms: C_14  and  C_15
REMARK    5  A    between atoms: C_15  and  C_16
REMARK                            x       y       z     vdW  Elec       q    Type
REMARK                         _______ _______ _______ _____ _____    ______ ____
ROOT
ATOM      1  O   UNL     1       1.629   7.795  20.014  0.00  0.00    +0.000 OA
ATOM      2  C   UNL     1       2.095   7.800  18.879  0.00  0.00    +0.000 C 
ATOM      3  N   UNL     1       3.057   6.909  18.453  0.00  0.00    +0.000 N 
ATOM      4  H   UNL     1       3.509   7.137  17.579  0.00  0.00    +0.000 HD
ENDROOT
BRANCH   2   5
ATOM      5  C   UNL     1       1.634   8.761  17.788  0.00  0.00    +0.000 C 
BRANCH   5   6
ATOM      6  C   UNL     1       0.866   9.926  18.329  0.00  0.00    +0.000 A 
ATOM      7  C   UNL     1       1.373  10.901  19.169  0.00  0.00    +0.000 A 
ATOM      8  N   UNL     1       0.375  11.791  19.454  0.00  0.00    +0.000 N 
ATOM      9  C   UNL     1      -0.788  11.421  18.824  0.00  0.00    +0.000 A 
ATOM     10  C   UNL     1      -2.047  12.035  18.832  0.00  0.00    +0.000 A 
ATOM     11  C   UNL     1      -3.072  11.424  18.107  0.00  0.00    +0.000 A 
ATOM     12  C   UNL     1      -2.845  10.240  17.412  0.00  0.00    +0.000 A 
ATOM     13  C   UNL     1      -1.580   9.636  17.415  0.00  0.00    +0.000 A 
ATOM     14  C   UNL     1      -0.520  10.240  18.125  0.00  0.00    +0.000 A 
ATOM     15  H   UNL     1       0.471  12.604  20.046  0.00  0.00    +0.000 HD
ENDBRANCH   5   6
ENDBRANCH   2   5
BRANCH   3  16
ATOM     16  C   UNL     1       3.652   5.891  19.312  0.00  0.00    +0.000 C 
BRANCH  16  17
ATOM     17  C   UNL     1       3.765   4.485  18.631  0.00  0.00    +0.000 C 
ATOM     18  C   UNL     1       2.378   4.090  18.030  0.00  0.00    +0.000 C 
ATOM     19  C   UNL     1       2.337   2.631  17.593  0.00  0.00    +0.000 C 
ATOM     20  O   UNL     1       2.623   1.782  18.703  0.00  0.00    +0.000 OA
ATOM     21  C   UNL     1       3.940   1.993  19.209  0.00  0.00    +0.000 C 
ATOM     22  C   UNL     1       4.085   3.418  19.726  0.00  0.00    +0.000 C 
BRANCH  17  23
ATOM     23  C   UNL     1       4.870   4.576  17.536  0.00  0.00    +0.000 A 
ATOM     24  C   UNL     1       6.243   4.591  17.863  0.00  0.00    +0.000 A 
ATOM     25  C   UNL     1       7.233   4.668  16.872  0.00  0.00    +0.000 A 
ATOM     26  C   UNL     1       6.870   4.753  15.538  0.00  0.00    +0.000 A 
ATOM     27  F   UNL     1       7.815   4.831  14.595  0.00  0.00    +0.000 F 
ATOM     28  C   UNL     1       5.533   4.768  15.177  0.00  0.00    +0.000 A 
ATOM     29  C   UNL     1       4.544   4.691  16.166  0.00  0.00    +0.000 A 
ENDBRANCH  17  23
ENDBRANCH  16  17
ENDBRANCH   3  16
TORSDOF 5
ENDMDL
MODEL 5
REMARK VINA RESULT:      -8.3      2.427      3.739
REMARK  Name = 
REMARK  5 active torsions:
REMARK  status: ('A' for Active; 'I' for Inactive)
REMARK    1  A    between atoms: C_2  and  C_3
REMARK    2  A    between atoms: C_3  and  C_4
REMARK    3  A    between atoms: N_13  and  C_14
REMARK    4  A    between atoms: C_14  and  C_15
REMARK    5  A    between atoms: C_15  and  C_16
REMARK                            x       y       z     vdW  Elec       q    Type
REMARK                         _______ _______ _______ _____ _____    ______ ____
ROOT
ATOM      1  O   UNL     1       2.258   8.806  17.310  0.00  0.00    +0.000 OA
ATOM      2  C   UNL     1       2.516   8.030  18.224  0.00  0.00    +0.000 C 
ATOM      3  N   UNL     1       3.515   7.083  18.152  0.00  0.00    +0.000 N 
ATOM      4  H   UNL     1       3.499   6.373  18.870  0.00  0.00    +0.000 HD
ENDROOT
BRANCH   2   5
ATOM      5  C   UNL     1       1.794   8.047  19.568  0.00  0.00    +0.000 C 
BRANCH   5   6
ATOM      6  C   UNL     1       1.070   9.332  19.819  0.00  0.00    +0.000 A 
ATOM      7  C   UNL     1       0.972  10.386  18.929  0.00  0.00    +0.000 A 
ATOM      8  N   UNL     1       0.243  11.384  19.514  0.00  0.00    +0.000 N 
ATOM      9  C   UNL     1      -0.139  11.013  20.781  0.00  0.00    +0.000 A 
ATOM     10  C   UNL     1      -0.892  11.715  21.732  0.00  0.00    +0.000 A 
ATOM     11  C   UNL     1      -1.119  11.099  22.964  0.00  0.00    +0.000 A 
ATOM     12  C   UNL     1      -0.603   9.836  23.234  0.00  0.00    +0.000 A 
ATOM     13  C   UNL     1       0.151   9.147  22.274  0.00  0.00    +0.000 A 
ATOM     14  C   UNL     1       0.382   9.737  21.013  0.00  0.00    +0.000 A 
ATOM     15  H   UNL     1       0.018  12.270  19.085  0.00  0.00    +0.000 HD
ENDBRANCH   5   6
ENDBRANCH   2   5
BRANCH   3  16
ATOM     16  C   UNL     1       4.348   6.875  16.971  0.00  0.00    +0.000 C 
BRANCH  16  17
ATOM     17  C   UNL     1       5.204   5.565  17.032  0.00  0.00    +0.000 C 
ATOM     18  C   UNL     1       6.501   5.833  17.861  0.00  0.00    +0.000 C 
ATOM     19  C   UNL     1       7.505   4.695  17.737  0.00  0.00    +0.000 C 
ATOM     20  O   UNL     1       7.858   4.503  16.368  0.00  0.00    +0.000 OA
ATOM     21  C   UNL     1       6.737   4.110  15.579  0.00  0.00    +0.000 C 
ATOM     22  C   UNL     1       5.676   5.204  15.587  0.00  0.00    +0.000 C 
BRANCH  17  23
ATOM     23  C   UNL     1       4.322   4.451  17.674  0.00  0.00    +0.000 A 
ATOM     24  C   UNL     1       3.268   3.835  16.965  0.00  0.00    +0.000 A 
ATOM     25  C   UNL     1       2.481   2.830  17.547  0.00  0.00    +0.000 A 
ATOM     26  C   UNL     1       2.717   2.437  18.854  0.00  0.00    +0.000 A 
ATOM     27  F   UNL     1       1.963   1.482  19.409  0.00  0.00    +0.000 F 
ATOM     28  C   UNL     1       3.725   3.036  19.592  0.00  0.00    +0.000 A 
ATOM     29  C   UNL     1       4.511   4.039  19.011  0.00  0.00    +0.000 A 
ENDBRANCH  17  23
ENDBRANCH  16  17
ENDBRANCH   3  16
TORSDOF 5
ENDMDL
MODEL 6
REMARK VINA RESULT:      -8.2      2.454      4.020
REMARK  Name = 
REMARK  5 active torsions:
REMARK  status: ('A' for Active; 'I' for Inactive)
REMARK    1  A    between atoms: C_2  and  C_3
REMARK    2  A    between atoms: C_3  and  C_4
REMARK    3  A    between atoms: N_13  and  C_14
REMARK    4  A    between atoms: C_14  and  C_15
REMARK    5  A    between atoms: C_15  and  C_16
REMARK                            x       y       z     vdW  Elec       q    Type
REMARK                         _______ _______ _______ _____ _____    ______ ____
ROOT
ATOM      1  O   UNL     1       2.510   9.372  17.440  0.00  0.00    +0.000 OA
ATOM      2  C   UNL     1       2.440   8.424  18.215  0.00  0.00    +0.000 C 
ATOM      3  N   UNL     1       3.212   7.288  18.091  0.00  0.00    +0.000 N 
ATOM      4  H   UNL     1       2.925   6.500  18.653  0.00  0.00    +0.000 HD
ENDROOT
BRANCH   2   5
ATOM      5  C   UNL     1       1.524   8.403  19.434  0.00  0.00    +0.000 C 
BRANCH   5   6
ATOM      6  C   UNL     1       0.745   9.670  19.594  0.00  0.00    +0.000 A 
ATOM      7  C   UNL     1       0.938  10.613  20.587  0.00  0.00    +0.000 A 
ATOM      8  N   UNL     1       0.035  11.624  20.410  0.00  0.00    +0.000 N 
ATOM      9  C   UNL     1      -0.761  11.366  19.321  0.00  0.00    +0.000 A 
ATOM     10  C   UNL     1      -1.806  12.122  18.775  0.00  0.00    +0.000 A 
ATOM     11  C   UNL     1      -2.467  11.605  17.659  0.00  0.00    +0.000 A 
ATOM     12  C   UNL     1      -2.100  10.376  17.120  0.00  0.00    +0.000 A 
ATOM     13  C   UNL     1      -1.054   9.630  17.678  0.00  0.00    +0.000 A 
ATOM     14  C   UNL     1      -0.356  10.135  18.797  0.00  0.00    +0.000 A 
ATOM     15  H   UNL     1      -0.044  12.443  20.996  0.00  0.00    +0.000 HD
ENDBRANCH   5   6
ENDBRANCH   2   5
BRANCH   3  16
ATOM     16  C   UNL     1       4.167   7.075  17.008  0.00  0.00    +0.000 C 
BRANCH  16  17
ATOM     17  C   UNL     1       4.995   5.754  17.156  0.00  0.00    +0.000 C 
ATOM     18  C   UNL     1       6.292   6.047  17.978  0.00  0.00    +0.000 C 
ATOM     19  C   UNL     1       7.274   4.883  17.932  0.00  0.00    +0.000 C 
ATOM     20  O   UNL     1       7.632   4.601  16.580  0.00  0.00    +0.000 OA
ATOM     21  C   UNL     1       6.509   4.182  15.808  0.00  0.00    +0.000 C 
ATOM     22  C   UNL     1       5.471   5.295  15.740  0.00  0.00    +0.000 C 
BRANCH  17  23
ATOM     23  C   UNL     1       4.087   4.700  17.858  0.00  0.00    +0.000 A 
ATOM     24  C   UNL     1       4.165   4.455  19.246  0.00  0.00    +0.000 A 
ATOM     25  C   UNL     1       3.342   3.508  19.872  0.00  0.00    +0.000 A 
ATOM     26  C   UNL     1       2.439   2.773  19.121  0.00  0.00    +0.000 A 
ATOM     27  F   UNL     1       1.657   1.867  19.719  0.00  0.00    +0.000 F 
ATOM     28  C   UNL     1       2.350   2.965  17.752  0.00  0.00    +0.000 A 
ATOM     29  C   UNL     1       3.172   3.911  17.127  0.00  0.00    +0.000 A 
ENDBRANCH  17  23
ENDBRANCH  16  17
ENDBRANCH   3  16
TORSDOF 5
ENDMDL
MODEL 7
REMARK VINA RESULT:      -8.1      1.905      2.969
REMARK  Name = 
REMARK  5 active torsions:
REMARK  status: ('A' for Active; 'I' for Inactive)
REMARK    1  A    between atoms: C_2  and  C_3
REMARK    2  A    between atoms: C_3  and  C_4
REMARK    3  A    between atoms: N_13  and  C_14
REMARK    4  A    between atoms: C_14  and  C_15
REMARK    5  A    between atoms: C_15  and  C_16
REMARK                            x       y       z     vdW  Elec       q    Type
REMARK                         _______ _______ _______ _____ _____    ______ ____
ROOT
ATOM      1  O   UNL     1       1.387   8.722  20.819  0.00  0.00    +0.000 OA
ATOM      2  C   UNL     1       1.605   8.578  19.620  0.00  0.00    +0.000 C 
ATOM      3  N   UNL     1       2.073   7.402  19.074  0.00  0.00    +0.000 N 
ATOM      4  H   UNL     1       2.409   7.464  18.123  0.00  0.00    +0.000 HD
ENDROOT
BRANCH   2   5
ATOM      5  C   UNL     1       1.344   9.666  18.584  0.00  0.00    +0.000 C 
BRANCH   5   6
ATOM      6  C   UNL     1       0.126  10.478  18.892  0.00  0.00    +0.000 A 
ATOM      7  C   UNL     1       0.009  11.391  19.923  0.00  0.00    +0.000 A 
ATOM      8  N   UNL     1      -1.248  11.927  19.891  0.00  0.00    +0.000 N 
ATOM      9  C   UNL     1      -1.972  11.380  18.859  0.00  0.00    +0.000 A 
ATOM     10  C   UNL     1      -3.289  11.633  18.455  0.00  0.00    +0.000 A 
ATOM     11  C   UNL     1      -3.785  10.910  17.368  0.00  0.00    +0.000 A 
ATOM     12  C   UNL     1      -2.995   9.965  16.721  0.00  0.00    +0.000 A 
ATOM     13  C   UNL     1      -1.679   9.722  17.138  0.00  0.00    +0.000 A 
ATOM     14  C   UNL     1      -1.145  10.450  18.223  0.00  0.00    +0.000 A 
ATOM     15  H   UNL     1      -1.602  12.622  20.533  0.00  0.00    +0.000 HD
ENDBRANCH   5   6
ENDBRANCH   2   5
BRANCH   3  16
ATOM     16  C   UNL     1       2.393   6.216  19.861  0.00  0.00    +0.000 C 
BRANCH  16  17
ATOM     17  C   UNL     1       3.031   5.059  19.020  0.00  0.00    +0.000 C 
ATOM     18  C   UNL     1       2.039   4.636  17.889  0.00  0.00    +0.000 C 
ATOM     19  C   UNL     1       2.469   3.345  17.204  0.00  0.00    +0.000 C 
ATOM     20  O   UNL     1       2.560   2.292  18.162  0.00  0.00    +0.000 OA
ATOM     21  C   UNL     1       3.560   2.553  19.146  0.00  0.00    +0.000 C 
ATOM     22  C   UNL     1       3.207   3.806  19.937  0.00  0.00    +0.000 C 
BRANCH  17  23
ATOM     23  C   UNL     1       4.382   5.580  18.445  0.00  0.00    +0.000 A 
ATOM     24  C   UNL     1       4.459   6.224  17.191  0.00  0.00    +0.000 A 
ATOM     25  C   UNL     1       5.678   6.695  16.681  0.00  0.00    +0.000 A 
ATOM     26  C   UNL     1       6.846   6.513  17.403  0.00  0.00    +0.000 A 
ATOM     27  F   UNL     1       8.008   6.959  16.913  0.00  0.00    +0.000 F 
ATOM     28  C   UNL     1       6.816   5.863  18.626  0.00  0.00    +0.000 A 
ATOM     29  C   UNL     1       5.600   5.393  19.135  0.00  0.00    +0.000 A 
ENDBRANCH  17  23
ENDBRANCH  16  17
ENDBRANCH   3  16
TORSDOF 5
ENDMDL
MODEL 8
REMARK VINA RESULT:      -8.1      1.454      2.803
REMARK  Name = 
REMARK  5 active torsions:
REMARK  status: ('A' for Active; 'I' for Inactive)
REMARK    1  A    between atoms: C_2  and  C_3
REMARK    2  A    between atoms: C_3  and  C_4
REMARK    3  A    between atoms: N_13  and  C_14
REMARK    4  A    between atoms: C_14  and  C_15
REMARK    5  A    between atoms: C_15  and  C_16
REMARK                            x       y       z     vdW  Elec       q    Type
REMARK                         _______ _______ _______ _____ _____    ______ ____
ROOT
ATOM      1  O   UNL     1       1.955  10.048  17.550  0.00  0.00    +0.000 OA
ATOM      2  C   UNL     1       1.527   9.471  18.545  0.00  0.00    +0.000 C 
ATOM      3  N   UNL     1       1.773   8.142  18.813  0.00  0.00    +0.000 N 
ATOM      4  H   UNL     1       1.205   7.728  19.539  0.00  0.00    +0.000 HD
ENDROOT
BRANCH   2   5
ATOM      5  C   UNL     1       0.710  10.166  19.630  0.00  0.00    +0.000 C 
BRANCH   5   6
ATOM      6  C   UNL     1      -0.406  10.993  19.073  0.00  0.00    +0.000 A 
ATOM      7  C   UNL     1      -0.727  12.279  19.467  0.00  0.00    +0.000 A 
ATOM      8  N   UNL     1      -1.805  12.701  18.741  0.00  0.00    +0.000 N 
ATOM      9  C   UNL     1      -2.212  11.715  17.875  0.00  0.00    +0.000 A 
ATOM     10  C   UNL     1      -3.263  11.712  16.949  0.00  0.00    +0.000 A 
ATOM     11  C   UNL     1      -3.465  10.551  16.200  0.00  0.00    +0.000 A 
ATOM     12  C   UNL     1      -2.652   9.436  16.381  0.00  0.00    +0.000 A 
ATOM     13  C   UNL     1      -1.606   9.453  17.313  0.00  0.00    +0.000 A 
ATOM     14  C   UNL     1      -1.367  10.619  18.073  0.00  0.00    +0.000 A 
ATOM     15  H   UNL     1      -2.248  13.605  18.827  0.00  0.00    +0.000 HD
ENDBRANCH   5   6
ENDBRANCH   2   5
BRANCH   3  16
ATOM     16  C   UNL     1       2.535   7.267  17.927  0.00  0.00    +0.000 C 
BRANCH  16  17
ATOM     17  C   UNL     1       2.733   5.821  18.495  0.00  0.00    +0.000 C 
ATOM     18  C   UNL     1       1.695   4.859  17.833  0.00  0.00    +0.000 C 
ATOM     19  C   UNL     1       1.644   3.504  18.527  0.00  0.00    +0.000 C 
ATOM     20  O   UNL     1       1.311   3.674  19.903  0.00  0.00    +0.000 OA
ATOM     21  C   UNL     1       2.301   4.425  20.603  0.00  0.00    +0.000 C 
ATOM     22  C   UNL     1       2.406   5.830  20.023  0.00  0.00    +0.000 C 
BRANCH  17  23
ATOM     23  C   UNL     1       4.200   5.390  18.195  0.00  0.00    +0.000 A 
ATOM     24  C   UNL     1       4.573   4.829  16.954  0.00  0.00    +0.000 A 
ATOM     25  C   UNL     1       5.896   4.447  16.688  0.00  0.00    +0.000 A 
ATOM     26  C   UNL     1       6.868   4.599  17.664  0.00  0.00    +0.000 A 
ATOM     27  F   UNL     1       8.129   4.230  17.411  0.00  0.00    +0.000 F 
ATOM     28  C   UNL     1       6.537   5.121  18.904  0.00  0.00    +0.000 A 
ATOM     29  C   UNL     1       5.216   5.503  19.169  0.00  0.00    +0.000 A 
ENDBRANCH  17  23
ENDBRANCH  16  17
ENDBRANCH   3  16
TORSDOF 5
ENDMDL
MODEL 9
REMARK VINA RESULT:      -8.1      2.114      2.798
REMARK  Name = 
REMARK  5 active torsions:
REMARK  status: ('A' for Active; 'I' for Inactive)
REMARK    1  A    between atoms: C_2  and  C_3
REMARK    2  A    between atoms: C_3  and  C_4
REMARK    3  A    between atoms: N_13  and  C_14
REMARK    4  A    between atoms: C_14  and  C_15
REMARK    5  A    between atoms: C_15  and  C_16
REMARK                            x       y       z     vdW  Elec       q    Type
REMARK                         _______ _______ _______ _____ _____    ______ ____
ROOT
ATOM      1  O   UNL     1       1.397   8.369  20.556  0.00  0.00    +0.000 OA
ATOM      2  C   UNL     1       1.782   8.231  19.399  0.00  0.00    +0.000 C 
ATOM      3  N   UNL     1       2.240   7.034  18.892  0.00  0.00    +0.000 N 
ATOM      4  H   UNL     1       2.720   7.088  18.005  0.00  0.00    +0.000 HD
ENDROOT
BRANCH   2   5
ATOM      5  C   UNL     1       1.758   9.355  18.368  0.00  0.00    +0.000 C 
BRANCH   5   6
ATOM      6  C   UNL     1       0.759  10.420  18.696  0.00  0.00    +0.000 A 
ATOM      7  C   UNL     1       0.993  11.521  19.499  0.00  0.00    +0.000 A 
ATOM      8  N   UNL     1      -0.155  12.260  19.571  0.00  0.00    +0.000 N 
ATOM      9  C   UNL     1      -1.150  11.665  18.833  0.00  0.00    +0.000 A 
ATOM     10  C   UNL     1      -2.475  12.072  18.623  0.00  0.00    +0.000 A 
ATOM     11  C   UNL     1      -3.286  11.255  17.833  0.00  0.00    +0.000 A 
ATOM     12  C   UNL     1      -2.792  10.075  17.286  0.00  0.00    +0.000 A 
ATOM     13  C   UNL     1      -1.465   9.681  17.507  0.00  0.00    +0.000 A 
ATOM     14  C   UNL     1      -0.616  10.495  18.288  0.00  0.00    +0.000 A 
ATOM     15  H   UNL     1      -0.264  13.118  20.092  0.00  0.00    +0.000 HD
ENDBRANCH   5   6
ENDBRANCH   2   5
BRANCH   3  16
ATOM     16  C   UNL     1       2.353   5.813  19.683  0.00  0.00    +0.000 C 
BRANCH  16  17
ATOM     17  C   UNL     1       3.110   4.657  18.945  0.00  0.00    +0.000 C 
ATOM     18  C   UNL     1       2.187   4.063  17.833  0.00  0.00    +0.000 C 
ATOM     19  C   UNL     1       2.744   2.767  17.258  0.00  0.00    +0.000 C 
ATOM     20  O   UNL     1       2.904   1.802  18.296  0.00  0.00    +0.000 OA
ATOM     21  C   UNL     1       3.853   2.224  19.273  0.00  0.00    +0.000 C 
ATOM     22  C   UNL     1       3.373   3.498  19.959  0.00  0.00    +0.000 C 
BRANCH  17  23
ATOM     23  C   UNL     1       4.424   5.252  18.354  0.00  0.00    +0.000 A 
ATOM     24  C   UNL     1       5.614   5.325  19.110  0.00  0.00    +0.000 A 
ATOM     25  C   UNL     1       6.794   5.857  18.572  0.00  0.00    +0.000 A 
ATOM     26  C   UNL     1       6.804   6.346  17.275  0.00  0.00    +0.000 A 
ATOM     27  F   UNL     1       7.929   6.857  16.764  0.00  0.00    +0.000 F 
ATOM     28  C   UNL     1       5.650   6.316  16.509  0.00  0.00    +0.000 A 
ATOM     29  C   UNL     1       4.471   5.784  17.047  0.00  0.00    +0.000 A 
ENDBRANCH  17  23
ENDBRANCH  16  17
ENDBRANCH   3  16
TORSDOF 5
ENDMDL
