MODEL 1
REMARK VINA RESULT:      -9.5      0.000      0.000
REMARK  Name = 
REMARK  7 active torsions:
REMARK  status: ('A' for Active; 'I' for Inactive)
REMARK    1  A    between atoms: C_1  and  C_2
REMARK    2  A    between atoms: C_6  and  C_8
REMARK    3  A    between atoms: C_10  and  C_11
REMARK    4  A    between atoms: C_16  and  C_17
REMARK    5  A    between atoms: N_23  and  C_24
REMARK    6  A    between atoms: C_24  and  C_25
REMARK    7  A    between atoms: C_24  and  C_26
REMARK                            x       y       z     vdW  Elec       q    Type
REMARK                         _______ _______ _______ _____ _____    ______ ____
ROOT
ATOM      1  C   UNL     1       4.291   6.192  17.591  0.00  0.00    +0.000 A 
ATOM      2  C   UNL     1       3.507   7.331  17.791  0.00  0.00    +0.000 A 
ATOM      3  C   UNL     1       2.542   7.355  18.809  0.00  0.00    +0.000 A 
ATOM      4  N   UNL     1       2.329   6.312  19.653  0.00  0.00    +0.000 NA
ATOM      5  C   UNL     1       3.077   5.215  19.402  0.00  0.00    +0.000 A 
ATOM      6  C   UNL     1       4.045   5.087  18.418  0.00  0.00    +0.000 A 
ATOM      7  C   UNL     1       4.516   3.763  18.550  0.00  0.00    +0.000 A 
ATOM      8  N   UNL     1       3.916   3.096  19.537  0.00  0.00    +0.000 NA
ATOM      9  N   UNL     1       3.024   3.991  20.029  0.00  0.00    +0.000 N 
ENDROOT
BRANCH   1  15
ATOM     10  C   UNL     1       7.301   3.195  11.515  0.00  0.00    +0.000 C 
ATOM     11  C   UNL     1       6.815   3.906  12.708  0.00  0.00    +0.000 A 
ATOM     12  C   UNL     1       5.749   3.765  13.565  0.00  0.00    +0.000 A 
ATOM     13  C   UNL     1       5.913   4.805  14.513  0.00  0.00    +0.000 A 
ATOM     14  N   UNL     1       5.061   5.040  15.580  0.00  0.00    +0.000 N 
ATOM     15  C   UNL     1       5.271   6.064  16.486  0.00  0.00    +0.000 C 
ATOM     16  O   UNL     1       6.184   6.880  16.458  0.00  0.00    +0.000 OA
ATOM     17  N   UNL     1       7.007   5.518  14.231  0.00  0.00    +0.000 NA
ATOM     18  O   UNL     1       7.564   4.963  13.106  0.00  0.00    +0.000 OA
ATOM     19  H   UNL     1       4.245   4.450  15.643  0.00  0.00    +0.000 HD
ENDBRANCH   1  15
BRANCH   3  20
ATOM     20  C   UNL     1       1.654   8.548  18.967  0.00  0.00    +0.000 A 
ATOM     21  C   UNL     1       1.231   9.256  17.814  0.00  0.00    +0.000 A 
ATOM     22  C   UNL     1       0.307  10.302  17.874  0.00  0.00    +0.000 A 
ATOM     23  C   UNL     1      -0.200  10.702  19.100  0.00  0.00    +0.000 A 
ATOM     24  C   UNL     1       0.223  10.059  20.260  0.00  0.00    +0.000 A 
ATOM     25  C   UNL     1       1.138   8.984  20.213  0.00  0.00    +0.000 A 
ATOM     26  C   UNL     1       1.482   8.314  21.519  0.00  0.00    +0.000 C 
ENDBRANCH   3  20
BRANCH   9  27
ATOM     27  C   UNL     1       2.128   3.573  21.101  0.00  0.00    +0.000 C 
ATOM     28  C   UNL     1       0.704   3.349  20.580  0.00  0.00    +0.000 C 
ATOM     29  C   UNL     1       2.649   2.310  21.792  0.00  0.00    +0.000 C 
ENDBRANCH   9  27
TORSDOF 3
ENDMDL
MODEL 2
REMARK VINA RESULT:      -9.2      3.286      6.797
REMARK  Name = 
REMARK  7 active torsions:
REMARK  status: ('A' for Active; 'I' for Inactive)
REMARK    1  A    between atoms: C_1  and  C_2
REMARK    2  A    between atoms: C_6  and  C_8
REMARK    3  A    between atoms: C_10  and  C_11
REMARK    4  A    between atoms: C_16  and  C_17
REMARK    5  A    between atoms: N_23  and  C_24
REMARK    6  A    between atoms: C_24  and  C_25
REMARK    7  A    between atoms: C_24  and  C_26
REMARK                            x       y       z     vdW  Elec       q    Type
REMARK                         _______ _______ _______ _____ _____    ______ ____
ROOT
ATOM      1  C   UNL     1       6.621   5.650  17.291  0.00  0.00    +0.000 A 
ATOM      2  C   UNL     1       5.484   5.077  17.867  0.00  0.00    +0.000 A 
ATOM      3  C   UNL     1       4.707   4.163  17.139  0.00  0.00    +0.000 A 
ATOM      4  N   UNL     1       5.013   3.774  15.874  0.00  0.00    +0.000 NA
ATOM      5  C   UNL     1       6.095   4.379  15.338  0.00  0.00    +0.000 A 
ATOM      6  C   UNL     1       6.920   5.299  15.967  0.00  0.00    +0.000 A 
ATOM      7  C   UNL     1       7.880   5.645  14.993  0.00  0.00    +0.000 A 
ATOM      8  N   UNL     1       7.702   5.000  13.839  0.00  0.00    +0.000 NA
ATOM      9  N   UNL     1       6.594   4.251  14.061  0.00  0.00    +0.000 N 
ENDROOT
BRANCH   1  15
ATOM     10  C   UNL     1       9.497  12.400  18.355  0.00  0.00    +0.000 C 
ATOM     11  C   UNL     1       8.999  11.017  18.281  0.00  0.00    +0.000 A 
ATOM     12  C   UNL     1       8.137  10.330  17.460  0.00  0.00    +0.000 A 
ATOM     13  C   UNL     1       8.134   9.007  17.971  0.00  0.00    +0.000 A 
ATOM     14  N   UNL     1       7.401   7.959  17.439  0.00  0.00    +0.000 N 
ATOM     15  C   UNL     1       7.442   6.682  17.969  0.00  0.00    +0.000 C 
ATOM     16  O   UNL     1       8.085   6.324  18.948  0.00  0.00    +0.000 OA
ATOM     17  N   UNL     1       8.944   8.921  19.030  0.00  0.00    +0.000 NA
ATOM     18  O   UNL     1       9.476  10.171  19.226  0.00  0.00    +0.000 OA
ATOM     19  H   UNL     1       6.794   8.181  16.665  0.00  0.00    +0.000 HD
ENDBRANCH   1  15
BRANCH   3  20
ATOM     20  C   UNL     1       3.449   3.615  17.732  0.00  0.00    +0.000 A 
ATOM     21  C   UNL     1       3.344   2.222  17.973  0.00  0.00    +0.000 A 
ATOM     22  C   UNL     1       2.250   1.656  18.633  0.00  0.00    +0.000 A 
ATOM     23  C   UNL     1       1.203   2.464  19.045  0.00  0.00    +0.000 A 
ATOM     24  C   UNL     1       1.249   3.832  18.790  0.00  0.00    +0.000 A 
ATOM     25  C   UNL     1       2.358   4.422  18.145  0.00  0.00    +0.000 A 
ATOM     26  C   UNL     1       2.340   5.919  17.973  0.00  0.00    +0.000 C 
ENDBRANCH   3  20
BRANCH   9  27
ATOM     27  C   UNL     1       6.058   3.447  12.968  0.00  0.00    +0.000 C 
ATOM     28  C   UNL     1       4.721   4.005  12.472  0.00  0.00    +0.000 C 
ATOM     29  C   UNL     1       7.060   3.352  11.814  0.00  0.00    +0.000 C 
ENDBRANCH   9  27
TORSDOF 3
ENDMDL
MODEL 3
REMARK VINA RESULT:      -9.0      0.848      1.670
REMARK  Name = 
REMARK  7 active torsions:
REMARK  status: ('A' for Active; 'I' for Inactive)
REMARK    1  A    between atoms: C_1  and  C_2
REMARK    2  A    between atoms: C_6  and  C_8
REMARK    3  A    between atoms: C_10  and  C_11
REMARK    4  A    between atoms: C_16  and  C_17
REMARK    5  A    between atoms: N_23  and  C_24
REMARK    6  A    between atoms: C_24  and  C_25
REMARK    7  A    between atoms: C_24  and  C_26
REMARK                            x       y       z     vdW  Elec       q    Type
REMARK                         _______ _______ _______ _____ _____    ______ ____
ROOT
ATOM      1  C   UNL     1       4.295   5.648  17.944  0.00  0.00    +0.000 A 
ATOM      2  C   UNL     1       3.632   6.776  18.435  0.00  0.00    +0.000 A 
ATOM      3  C   UNL     1       2.627   6.640  19.403  0.00  0.00    +0.000 A 
ATOM      4  N   UNL     1       2.258   5.442  19.925  0.00  0.00    +0.000 NA
ATOM      5  C   UNL     1       2.890   4.372  19.396  0.00  0.00    +0.000 A 
ATOM      6  C   UNL     1       3.887   4.398  18.432  0.00  0.00    +0.000 A 
ATOM      7  C   UNL     1       4.201   3.042  18.205  0.00  0.00    +0.000 A 
ATOM      8  N   UNL     1       3.482   2.210  18.960  0.00  0.00    +0.000 NA
ATOM      9  N   UNL     1       2.671   3.039  19.663  0.00  0.00    +0.000 N 
ENDROOT
BRANCH   1  15
ATOM     10  C   UNL     1       7.451   3.775  11.503  0.00  0.00    +0.000 C 
ATOM     11  C   UNL     1       6.938   4.260  12.794  0.00  0.00    +0.000 A 
ATOM     12  C   UNL     1       5.842   3.986  13.577  0.00  0.00    +0.000 A 
ATOM     13  C   UNL     1       5.993   4.826  14.709  0.00  0.00    +0.000 A 
ATOM     14  N   UNL     1       5.110   4.876  15.776  0.00  0.00    +0.000 N 
ATOM     15  C   UNL     1       5.308   5.707  16.864  0.00  0.00    +0.000 C 
ATOM     16  O   UNL     1       6.236   6.490  17.018  0.00  0.00    +0.000 OA
ATOM     17  N   UNL     1       7.108   5.552  14.599  0.00  0.00    +0.000 NA
ATOM     18  O   UNL     1       7.692   5.205  13.406  0.00  0.00    +0.000 OA
ATOM     19  H   UNL     1       4.282   4.305  15.702  0.00  0.00    +0.000 HD
ENDBRANCH   1  15
BRANCH   3  20
ATOM     20  C   UNL     1       1.869   7.844  19.865  0.00  0.00    +0.000 A 
ATOM     21  C   UNL     1       1.509   7.955  21.232  0.00  0.00    +0.000 A 
ATOM     22  C   UNL     1       0.908   9.103  21.757  0.00  0.00    +0.000 A 
ATOM     23  C   UNL     1       0.614  10.168  20.922  0.00  0.00    +0.000 A 
ATOM     24  C   UNL     1       0.914  10.081  19.565  0.00  0.00    +0.000 A 
ATOM     25  C   UNL     1       1.542   8.938  19.024  0.00  0.00    +0.000 A 
ATOM     26  C   UNL     1       1.883   8.968  17.556  0.00  0.00    +0.000 C 
ENDBRANCH   3  20
BRANCH   9  27
ATOM     27  C   UNL     1       1.682   2.458  20.563  0.00  0.00    +0.000 C 
ATOM     28  C   UNL     1       1.948   2.862  22.017  0.00  0.00    +0.000 C 
ATOM     29  C   UNL     1       0.263   2.855  20.148  0.00  0.00    +0.000 C 
ENDBRANCH   9  27
TORSDOF 3
ENDMDL
MODEL 4
REMARK VINA RESULT:      -8.9      2.552      7.353
REMARK  Name = 
REMARK  7 active torsions:
REMARK  status: ('A' for Active; 'I' for Inactive)
REMARK    1  A    between atoms: C_1  and  C_2
REMARK    2  A    between atoms: C_6  and  C_8
REMARK    3  A    between atoms: C_10  and  C_11
REMARK    4  A    between atoms: C_16  and  C_17
REMARK    5  A    between atoms: N_23  and  C_24
REMARK    6  A    between atoms: C_24  and  C_25
REMARK    7  A    between atoms: C_24  and  C_26
REMARK                            x       y       z     vdW  Elec       q    Type
REMARK                         _______ _______ _______ _____ _____    ______ ____
ROOT
ATOM      1  C   UNL     1       2.680   7.204  18.258  0.00  0.00    +0.000 A 
ATOM      2  C   UNL     1       3.638   6.854  17.303  0.00  0.00    +0.000 A 
ATOM      3  C   UNL     1       4.163   5.554  17.272  0.00  0.00    +0.000 A 
ATOM      4  N   UNL     1       3.772   4.576  18.130  0.00  0.00    +0.000 NA
ATOM      5  C   UNL     1       2.876   4.964  19.064  0.00  0.00    +0.000 A 
ATOM      6  C   UNL     1       2.306   6.222  19.186  0.00  0.00    +0.000 A 
ATOM      7  C   UNL     1       1.464   6.126  20.314  0.00  0.00    +0.000 A 
ATOM      8  N   UNL     1       1.478   4.913  20.868  0.00  0.00    +0.000 NA
ATOM      9  N   UNL     1       2.363   4.225  20.106  0.00  0.00    +0.000 N 
ENDROOT
BRANCH   1  15
ATOM     10  C   UNL     1      -0.696  12.831  21.708  0.00  0.00    +0.000 C 
ATOM     11  C   UNL     1       0.002  11.817  20.901  0.00  0.00    +0.000 A 
ATOM     12  C   UNL     1       0.410  10.519  21.101  0.00  0.00    +0.000 A 
ATOM     13  C   UNL     1       1.017  10.144  19.877  0.00  0.00    +0.000 A 
ATOM     14  N   UNL     1       1.570   8.899  19.621  0.00  0.00    +0.000 N 
ATOM     15  C   UNL     1       2.142   8.578  18.403  0.00  0.00    +0.000 C 
ATOM     16  O   UNL     1       2.253   9.321  17.437  0.00  0.00    +0.000 OA
ATOM     17  N   UNL     1       0.972  11.158  19.009  0.00  0.00    +0.000 NA
ATOM     18  O   UNL     1       0.346  12.200  19.649  0.00  0.00    +0.000 OA
ATOM     19  H   UNL     1       1.576   8.243  20.387  0.00  0.00    +0.000 HD
ENDBRANCH   1  15
BRANCH   3  20
ATOM     20  C   UNL     1       5.244   5.209  16.298  0.00  0.00    +0.000 A 
ATOM     21  C   UNL     1       4.913   4.498  15.116  0.00  0.00    +0.000 A 
ATOM     22  C   UNL     1       5.846   4.248  14.107  0.00  0.00    +0.000 A 
ATOM     23  C   UNL     1       7.157   4.671  14.262  0.00  0.00    +0.000 A 
ATOM     24  C   UNL     1       7.531   5.335  15.426  0.00  0.00    +0.000 A 
ATOM     25  C   UNL     1       6.594   5.617  16.445  0.00  0.00    +0.000 A 
ATOM     26  C   UNL     1       7.085   6.397  17.637  0.00  0.00    +0.000 C 
ENDBRANCH   3  20
BRANCH   9  27
ATOM     27  C   UNL     1       2.683   2.849  20.469  0.00  0.00    +0.000 C 
ATOM     28  C   UNL     1       2.122   2.493  21.850  0.00  0.00    +0.000 C 
ATOM     29  C   UNL     1       2.168   1.868  19.414  0.00  0.00    +0.000 C 
ENDBRANCH   9  27
TORSDOF 3
ENDMDL
MODEL 5
REMARK VINA RESULT:      -8.7      3.825      6.771
REMARK  Name = 
REMARK  7 active torsions:
REMARK  status: ('A' for Active; 'I' for Inactive)
REMARK    1  A    between atoms: C_1  and  C_2
REMARK    2  A    between atoms: C_6  and  C_8
REMARK    3  A    between atoms: C_10  and  C_11
REMARK    4  A    between atoms: C_16  and  C_17
REMARK    5  A    between atoms: N_23  and  C_24
REMARK    6  A    between atoms: C_24  and  C_25
REMARK    7  A    between atoms: C_24  and  C_26
REMARK                            x       y       z     vdW  Elec       q    Type
REMARK                         _______ _______ _______ _____ _____    ______ ____
ROOT
ATOM      1  C   UNL     1       6.612   5.734  17.418  0.00  0.00    +0.000 A 
ATOM      2  C   UNL     1       5.482   5.185  18.031  0.00  0.00    +0.000 A 
ATOM      3  C   UNL     1       4.680   4.264  17.341  0.00  0.00    +0.000 A 
ATOM      4  N   UNL     1       4.954   3.843  16.079  0.00  0.00    +0.000 NA
ATOM      5  C   UNL     1       6.030   4.426  15.505  0.00  0.00    +0.000 A 
ATOM      6  C   UNL     1       6.877   5.351  16.096  0.00  0.00    +0.000 A 
ATOM      7  C   UNL     1       7.819   5.666  15.093  0.00  0.00    +0.000 A 
ATOM      8  N   UNL     1       7.609   4.998  13.958  0.00  0.00    +0.000 NA
ATOM      9  N   UNL     1       6.499   4.265  14.221  0.00  0.00    +0.000 N 
ENDROOT
BRANCH   1  15
ATOM     10  C   UNL     1       9.551  12.484  18.288  0.00  0.00    +0.000 C 
ATOM     11  C   UNL     1       9.044  11.102  18.252  0.00  0.00    +0.000 A 
ATOM     12  C   UNL     1       8.154  10.407  17.467  0.00  0.00    +0.000 A 
ATOM     13  C   UNL     1       8.161   9.093  17.999  0.00  0.00    +0.000 A 
ATOM     14  N   UNL     1       7.407   8.040  17.506  0.00  0.00    +0.000 N 
ATOM     15  C   UNL     1       7.457   6.772  18.055  0.00  0.00    +0.000 C 
ATOM     16  O   UNL     1       8.127   6.426  19.020  0.00  0.00    +0.000 OA
ATOM     17  N   UNL     1       9.001   9.019  19.035  0.00  0.00    +0.000 NA
ATOM     18  O   UNL     1       9.545  10.270  19.195  0.00  0.00    +0.000 OA
ATOM     19  H   UNL     1       6.778   8.254  16.747  0.00  0.00    +0.000 HD
ENDBRANCH   1  15
BRANCH   3  20
ATOM     20  C   UNL     1       3.431   3.741  17.974  0.00  0.00    +0.000 A 
ATOM     21  C   UNL     1       2.172   4.189  17.499  0.00  0.00    +0.000 A 
ATOM     22  C   UNL     1       0.965   3.655  17.959  0.00  0.00    +0.000 A 
ATOM     23  C   UNL     1       0.975   2.678  18.940  0.00  0.00    +0.000 A 
ATOM     24  C   UNL     1       2.190   2.242  19.463  0.00  0.00    +0.000 A 
ATOM     25  C   UNL     1       3.418   2.753  18.991  0.00  0.00    +0.000 A 
ATOM     26  C   UNL     1       4.679   2.169  19.576  0.00  0.00    +0.000 C 
ENDBRANCH   3  20
BRANCH   9  27
ATOM     27  C   UNL     1       5.931   3.443  13.158  0.00  0.00    +0.000 C 
ATOM     28  C   UNL     1       4.610   4.028  12.649  0.00  0.00    +0.000 C 
ATOM     29  C   UNL     1       6.923   3.276  12.004  0.00  0.00    +0.000 C 
ENDBRANCH   9  27
TORSDOF 3
ENDMDL
MODEL 6
REMARK VINA RESULT:      -8.5      3.612      7.115
REMARK  Name = 
REMARK  7 active torsions:
REMARK  status: ('A' for Active; 'I' for Inactive)
REMARK    1  A    between atoms: C_1  and  C_2
REMARK    2  A    between atoms: C_6  and  C_8
REMARK    3  A    between atoms: C_10  and  C_11
REMARK    4  A    between atoms: C_16  and  C_17
REMARK    5  A    between atoms: N_23  and  C_24
REMARK    6  A    between atoms: C_24  and  C_25
REMARK    7  A    between atoms: C_24  and  C_26
REMARK                            x       y       z     vdW  Elec       q    Type
REMARK                         _______ _______ _______ _____ _____    ______ ____
ROOT
ATOM      1  C   UNL     1       6.532   6.088  17.214  0.00  0.00    +0.000 A 
ATOM      2  C   UNL     1       6.736   5.684  15.892  0.00  0.00    +0.000 A 
ATOM      3  C   UNL     1       5.891   4.731  15.305  0.00  0.00    +0.000 A 
ATOM      4  N   UNL     1       4.839   4.172  15.958  0.00  0.00    +0.000 NA
ATOM      5  C   UNL     1       4.699   4.556  17.245  0.00  0.00    +0.000 A 
ATOM      6  C   UNL     1       5.483   5.480  17.919  0.00  0.00    +0.000 A 
ATOM      7  C   UNL     1       4.953   5.515  19.226  0.00  0.00    +0.000 A 
ATOM      8  N   UNL     1       3.911   4.698  19.384  0.00  0.00    +0.000 NA
ATOM      9  N   UNL     1       3.786   4.104  18.172  0.00  0.00    +0.000 N 
ENDROOT
BRANCH   1  15
ATOM     10  C   UNL     1       9.821  12.588  18.593  0.00  0.00    +0.000 C 
ATOM     11  C   UNL     1       9.243  11.242  18.451  0.00  0.00    +0.000 A 
ATOM     12  C   UNL     1       8.317  10.657  17.620  0.00  0.00    +0.000 A 
ATOM     13  C   UNL     1       8.256   9.307  18.047  0.00  0.00    +0.000 A 
ATOM     14  N   UNL     1       7.446   8.337  17.478  0.00  0.00    +0.000 N 
ATOM     15  C   UNL     1       7.432   7.028  17.925  0.00  0.00    +0.000 C 
ATOM     16  O   UNL     1       8.084   6.573  18.855  0.00  0.00    +0.000 OA
ATOM     17  N   UNL     1       9.092   9.108  19.069  0.00  0.00    +0.000 NA
ATOM     18  O   UNL     1       9.701  10.312  19.324  0.00  0.00    +0.000 OA
ATOM     19  H   UNL     1       6.828   8.641  16.741  0.00  0.00    +0.000 HD
ENDBRANCH   1  15
BRANCH   3  20
ATOM     20  C   UNL     1       6.164   4.246  13.918  0.00  0.00    +0.000 A 
ATOM     21  C   UNL     1       5.255   3.348  13.304  0.00  0.00    +0.000 A 
ATOM     22  C   UNL     1       5.381   2.948  11.971  0.00  0.00    +0.000 A 
ATOM     23  C   UNL     1       6.445   3.408  11.213  0.00  0.00    +0.000 A 
ATOM     24  C   UNL     1       7.383   4.259  11.792  0.00  0.00    +0.000 A 
ATOM     25  C   UNL     1       7.257   4.690  13.130  0.00  0.00    +0.000 A 
ATOM     26  C   UNL     1       8.289   5.662  13.642  0.00  0.00    +0.000 C 
ENDBRANCH   3  20
BRANCH   9  27
ATOM     27  C   UNL     1       2.765   3.077  17.994  0.00  0.00    +0.000 C 
ATOM     28  C   UNL     1       3.248   1.717  18.508  0.00  0.00    +0.000 C 
ATOM     29  C   UNL     1       1.459   3.477  18.684  0.00  0.00    +0.000 C 
ENDBRANCH   9  27
TORSDOF 3
ENDMDL
MODEL 7
REMARK VINA RESULT:      -7.9      4.325      7.983
REMARK  Name = 
REMARK  7 active torsions:
REMARK  status: ('A' for Active; 'I' for Inactive)
REMARK    1  A    between atoms: C_1  and  C_2
REMARK    2  A    between atoms: C_6  and  C_8
REMARK    3  A    between atoms: C_10  and  C_11
REMARK    4  A    between atoms: C_16  and  C_17
REMARK    5  A    between atoms: N_23  and  C_24
REMARK    6  A    between atoms: C_24  and  C_25
REMARK    7  A    between atoms: C_24  and  C_26
REMARK                            x       y       z     vdW  Elec       q    Type
REMARK                         _______ _______ _______ _____ _____    ______ ____
ROOT
ATOM      1  C   UNL     1       0.249  10.572  18.977  0.00  0.00    +0.000 A 
ATOM      2  C   UNL     1      -1.123  10.555  18.714  0.00  0.00    +0.000 A 
ATOM      3  C   UNL     1      -1.814  11.754  18.481  0.00  0.00    +0.000 A 
ATOM      4  N   UNL     1      -1.207  12.969  18.477  0.00  0.00    +0.000 NA
ATOM      5  C   UNL     1       0.110  12.949  18.777  0.00  0.00    +0.000 A 
ATOM      6  C   UNL     1       0.879  11.824  19.031  0.00  0.00    +0.000 A 
ATOM      7  C   UNL     1       2.168  12.326  19.308  0.00  0.00    +0.000 A 
ATOM      8  N   UNL     1       2.233  13.655  19.230  0.00  0.00    +0.000 NA
ATOM      9  N   UNL     1       0.963  14.019  18.928  0.00  0.00    +0.000 N 
ENDROOT
BRANCH   1  15
ATOM     10  C   UNL     1       4.942   4.971  17.726  0.00  0.00    +0.000 C 
ATOM     11  C   UNL     1       4.003   6.032  18.127  0.00  0.00    +0.000 A 
ATOM     12  C   UNL     1       3.459   7.138  17.519  0.00  0.00    +0.000 A 
ATOM     13  C   UNL     1       2.613   7.706  18.504  0.00  0.00    +0.000 A 
ATOM     14  N   UNL     1       1.847   8.847  18.321  0.00  0.00    +0.000 N 
ATOM     15  C   UNL     1       1.027   9.356  19.312  0.00  0.00    +0.000 C 
ATOM     16  O   UNL     1       0.888   8.903  20.441  0.00  0.00    +0.000 OA
ATOM     17  N   UNL     1       2.657   6.981  19.625  0.00  0.00    +0.000 NA
ATOM     18  O   UNL     1       3.526   5.944  19.392  0.00  0.00    +0.000 OA
ATOM     19  H   UNL     1       1.949   9.321  17.437  0.00  0.00    +0.000 HD
ENDBRANCH   1  15
BRANCH   3  20
ATOM     20  C   UNL     1      -3.295  11.734  18.277  0.00  0.00    +0.000 A 
ATOM     21  C   UNL     1      -4.147  12.140  19.335  0.00  0.00    +0.000 A 
ATOM     22  C   UNL     1      -5.530  12.262  19.178  0.00  0.00    +0.000 A 
ATOM     23  C   UNL     1      -6.114  11.945  17.962  0.00  0.00    +0.000 A 
ATOM     24  C   UNL     1      -5.316  11.502  16.912  0.00  0.00    +0.000 A 
ATOM     25  C   UNL     1      -3.915  11.396  17.047  0.00  0.00    +0.000 A 
ATOM     26  C   UNL     1      -3.134  10.968  15.831  0.00  0.00    +0.000 C 
ENDBRANCH   3  20
BRANCH   9  27
ATOM     27  C   UNL     1       0.642  15.439  18.827  0.00  0.00    +0.000 C 
ATOM     28  C   UNL     1       0.022  15.962  20.127  0.00  0.00    +0.000 C 
ATOM     29  C   UNL     1       1.883  16.256  18.460  0.00  0.00    +0.000 C 
ENDBRANCH   9  27
TORSDOF 3
ENDMDL
MODEL 8
REMARK VINA RESULT:      -7.9      6.262     11.392
REMARK  Name = 
REMARK  7 active torsions:
REMARK  status: ('A' for Active; 'I' for Inactive)
REMARK    1  A    between atoms: C_1  and  C_2
REMARK    2  A    between atoms: C_6  and  C_8
REMARK    3  A    between atoms: C_10  and  C_11
REMARK    4  A    between atoms: C_16  and  C_17
REMARK    5  A    between atoms: N_23  and  C_24
REMARK    6  A    between atoms: C_24  and  C_25
REMARK    7  A    between atoms: C_24  and  C_26
REMARK                            x       y       z     vdW  Elec       q    Type
REMARK                         _______ _______ _______ _____ _____    ______ ____
ROOT
ATOM      1  C   UNL     1      -1.399  12.180  19.994  0.00  0.00    +0.000 A 
ATOM      2  C   UNL     1      -0.794  10.930  19.839  0.00  0.00    +0.000 A 
ATOM      3  C   UNL     1       0.564  10.838  19.500  0.00  0.00    +0.000 A 
ATOM      4  N   UNL     1       1.359  11.925  19.325  0.00  0.00    +0.000 NA
ATOM      5  C   UNL     1       0.730  13.115  19.443  0.00  0.00    +0.000 A 
ATOM      6  C   UNL     1      -0.605  13.313  19.763  0.00  0.00    +0.000 A 
ATOM      7  C   UNL     1      -0.775  14.713  19.740  0.00  0.00    +0.000 A 
ATOM      8  N   UNL     1       0.349  15.366  19.443  0.00  0.00    +0.000 NA
ATOM      9  N   UNL     1       1.250  14.374  19.241  0.00  0.00    +0.000 N 
ENDROOT
BRANCH   1  15
ATOM     10  C   UNL     1      -7.403  13.364  24.179  0.00  0.00    +0.000 C 
ATOM     11  C   UNL     1      -6.310  13.131  23.220  0.00  0.00    +0.000 A 
ATOM     12  C   UNL     1      -4.940  13.051  23.300  0.00  0.00    +0.000 A 
ATOM     13  C   UNL     1      -4.520  12.788  21.971  0.00  0.00    +0.000 A 
ATOM     14  N   UNL     1      -3.201  12.621  21.581  0.00  0.00    +0.000 N 
ATOM     15  C   UNL     1      -2.845  12.355  20.271  0.00  0.00    +0.000 C 
ATOM     16  O   UNL     1      -3.607  12.257  19.318  0.00  0.00    +0.000 OA
ATOM     17  N   UNL     1      -5.578  12.721  21.159  0.00  0.00    +0.000 NA
ATOM     18  O   UNL     1      -6.690  12.940  21.934  0.00  0.00    +0.000 OA
ATOM     19  H   UNL     1      -2.501  12.746  22.295  0.00  0.00    +0.000 HD
ENDBRANCH   1  15
BRANCH   3  20
ATOM     20  C   UNL     1       1.183   9.499  19.259  0.00  0.00    +0.000 A 
ATOM     21  C   UNL     1       1.639   9.168  17.958  0.00  0.00    +0.000 A 
ATOM     22  C   UNL     1       2.335   7.987  17.686  0.00  0.00    +0.000 A 
ATOM     23  C   UNL     1       2.567   7.076  18.704  0.00  0.00    +0.000 A 
ATOM     24  C   UNL     1       2.099   7.345  19.987  0.00  0.00    +0.000 A 
ATOM     25  C   UNL     1       1.415   8.545  20.283  0.00  0.00    +0.000 A 
ATOM     26  C   UNL     1       1.006   8.770  21.716  0.00  0.00    +0.000 C 
ENDBRANCH   3  20
BRANCH   9  27
ATOM     27  C   UNL     1       2.603  14.726  18.825  0.00  0.00    +0.000 C 
ATOM     28  C   UNL     1       2.633  16.093  18.134  0.00  0.00    +0.000 C 
ATOM     29  C   UNL     1       3.565  14.707  20.015  0.00  0.00    +0.000 C 
ENDBRANCH   9  27
TORSDOF 3
ENDMDL
MODEL 9
REMARK VINA RESULT:      -7.8      4.073      7.408
REMARK  Name = 
REMARK  7 active torsions:
REMARK  status: ('A' for Active; 'I' for Inactive)
REMARK    1  A    between atoms: C_1  and  C_2
REMARK    2  A    between atoms: C_6  and  C_8
REMARK    3  A    between atoms: C_10  and  C_11
REMARK    4  A    between atoms: C_16  and  C_17
REMARK    5  A    between atoms: N_23  and  C_24
REMARK    6  A    between atoms: C_24  and  C_25
REMARK    7  A    between atoms: C_24  and  C_26
REMARK                            x       y       z     vdW  Elec       q    Type
REMARK                         _______ _______ _______ _____ _____    ______ ____
ROOT
ATOM      1  C   UNL     1       0.101  10.387  18.959  0.00  0.00    +0.000 A 
ATOM      2  C   UNL     1       0.220  11.300  20.010  0.00  0.00    +0.000 A 
ATOM      3  C   UNL     1      -0.870  12.103  20.375  0.00  0.00    +0.000 A 
ATOM      4  N   UNL     1      -2.080  12.033  19.762  0.00  0.00    +0.000 NA
ATOM      5  C   UNL     1      -2.143  11.170  18.725  0.00  0.00    +0.000 A 
ATOM      6  C   UNL     1      -1.125  10.341  18.280  0.00  0.00    +0.000 A 
ATOM      7  C   UNL     1      -1.674   9.660  17.173  0.00  0.00    +0.000 A 
ATOM      8  N   UNL     1      -2.938  10.006  16.929  0.00  0.00    +0.000 NA
ATOM      9  N   UNL     1      -3.200  10.945  17.870  0.00  0.00    +0.000 N 
ENDROOT
BRANCH   1  15
ATOM     10  C   UNL     1       4.773   4.631  18.893  0.00  0.00    +0.000 C 
ATOM     11  C   UNL     1       3.918   5.822  18.770  0.00  0.00    +0.000 A 
ATOM     12  C   UNL     1       2.826   6.316  19.443  0.00  0.00    +0.000 A 
ATOM     13  C   UNL     1       2.520   7.533  18.783  0.00  0.00    +0.000 A 
ATOM     14  N   UNL     1       1.483   8.381  19.136  0.00  0.00    +0.000 N 
ATOM     15  C   UNL     1       1.232   9.565  18.465  0.00  0.00    +0.000 C 
ATOM     16  O   UNL     1       1.849   9.995  17.500  0.00  0.00    +0.000 OA
ATOM     17  N   UNL     1       3.377   7.742  17.781  0.00  0.00    +0.000 NA
ATOM     18  O   UNL     1       4.242   6.676  17.769  0.00  0.00    +0.000 OA
ATOM     19  H   UNL     1       0.883   8.072  19.886  0.00  0.00    +0.000 HD
ENDBRANCH   1  15
BRANCH   3  20
ATOM     20  C   UNL     1      -0.712  13.132  21.448  0.00  0.00    +0.000 A 
ATOM     21  C   UNL     1      -0.015  14.333  21.162  0.00  0.00    +0.000 A 
ATOM     22  C   UNL     1       0.068  15.387  22.075  0.00  0.00    +0.000 A 
ATOM     23  C   UNL     1      -0.516  15.261  23.325  0.00  0.00    +0.000 A 
ATOM     24  C   UNL     1      -1.174  14.081  23.660  0.00  0.00    +0.000 A 
ATOM     25  C   UNL     1      -1.287  13.016  22.739  0.00  0.00    +0.000 A 
ATOM     26  C   UNL     1      -2.074  11.807  23.176  0.00  0.00    +0.000 C 
ENDBRANCH   3  20
BRANCH   9  27
ATOM     27  C   UNL     1      -4.500  11.607  17.862  0.00  0.00    +0.000 C 
ATOM     28  C   UNL     1      -4.953  11.925  16.433  0.00  0.00    +0.000 C 
ATOM     29  C   UNL     1      -5.551  10.758  18.580  0.00  0.00    +0.000 C 
ENDBRANCH   9  27
TORSDOF 3
ENDMDL
