MODEL 1
REMARK VINA RESULT:      -8.8      0.000      0.000
REMARK  Name = 
REMARK  5 active torsions:
REMARK  status: ('A' for Active; 'I' for Inactive)
REMARK    1  A    between atoms: C_2  and  O_3
REMARK    2  A    between atoms: C_2  and  C_15
REMARK    3  A    between atoms: O_3  and  C_4
REMARK    4  A    between atoms: C_7  and  N_8
REMARK    5  A    between atoms: N_17  and  C_18
REMARK                            x       y       z     vdW  Elec       q    Type
REMARK                         _______ _______ _______ _____ _____    ______ ____
ROOT
ATOM      1  C   UNL     1       4.157   4.905  17.965  0.00  0.00    +0.000 A 
ATOM      2  N   UNL     1       3.484   6.046  17.805  0.00  0.00    +0.000 NA
ATOM      3  N   UNL     1       2.718   6.212  18.928  0.00  0.00    +0.000 N 
ATOM      4  C   UNL     1       2.761   5.051  19.705  0.00  0.00    +0.000 A 
ATOM      5  C   UNL     1       3.739   4.248  19.144  0.00  0.00    +0.000 A 
ATOM      6  C   UNL     1       4.220   2.957  19.669  0.00  0.00    +0.000 C 
ATOM      7  C   UNL     1       3.426   2.422  20.855  0.00  0.00    +0.000 C 
ATOM      8  C   UNL     1       2.132   3.158  21.250  0.00  0.00    +0.000 C 
ATOM      9  C   UNL     1       1.977   4.666  20.908  0.00  0.00    +0.000 C 
ENDROOT
BRANCH   3  10
ATOM     10  C   UNL     1       2.107   7.501  19.093  0.00  0.00    +0.000 A 
ATOM     11  C   UNL     1       2.082   8.358  17.960  0.00  0.00    +0.000 A 
ATOM     12  C   UNL     1       1.592   9.663  18.028  0.00  0.00    +0.000 A 
ATOM     13  C   UNL     1       1.106  10.132  19.233  0.00  0.00    +0.000 A 
ATOM     14  F   UNL     1       0.639  11.384  19.314  0.00  0.00    +0.000 F 
ATOM     15  C   UNL     1       1.099   9.310  20.368  0.00  0.00    +0.000 A 
ATOM     16  C   UNL     1       1.598   7.994  20.298  0.00  0.00    +0.000 A 
ENDBRANCH   3  10
BRANCH   1  18
ATOM     17  O   UNL     1       4.889   4.085  15.869  0.00  0.00    +0.000 OA
ATOM     18  C   UNL     1       5.167   4.437  17.008  0.00  0.00    +0.000 C 
BRANCH  18  19
ATOM     19  O   UNL     1       6.458   4.439  17.549  0.00  0.00    +0.000 OA
BRANCH  19  20
ATOM     20  C   UNL     1       7.053   5.686  17.791  0.00  0.00    +0.000 A 
ATOM     21  C   UNL     1       6.726   6.726  16.925  0.00  0.00    +0.000 A 
ATOM     22  C   UNL     1       7.250   8.004  17.146  0.00  0.00    +0.000 A 
ATOM     23  C   UNL     1       8.105   8.231  18.236  0.00  0.00    +0.000 A 
ATOM     24  C   UNL     1       8.407   7.176  19.112  0.00  0.00    +0.000 A 
ATOM     25  C   UNL     1       7.867   5.909  18.899  0.00  0.00    +0.000 A 
BRANCH  23  26
ATOM     26  N   UNL     1       8.668   9.504  18.473  0.00  0.00    +0.000 N 
ATOM     27  C   UNL     1       8.673  10.622  17.676  0.00  0.00    +0.000 A 
ATOM     28  N   UNL     1       9.337  11.584  18.275  0.00  0.00    +0.000 NA
ATOM     29  N   UNL     1       9.739  11.064  19.477  0.00  0.00    +0.000 NA
ATOM     30  N   UNL     1       9.326   9.812  19.616  0.00  0.00    +0.000 NA
ENDBRANCH  23  26
ENDBRANCH  19  20
ENDBRANCH  18  19
ENDBRANCH   1  18
TORSDOF 5
ENDMDL
MODEL 2
REMARK VINA RESULT:      -8.8      0.191      1.263
REMARK  Name = 
REMARK  5 active torsions:
REMARK  status: ('A' for Active; 'I' for Inactive)
REMARK    1  A    between atoms: C_2  and  O_3
REMARK    2  A    between atoms: C_2  and  C_15
REMARK    3  A    between atoms: O_3  and  C_4
REMARK    4  A    between atoms: C_7  and  N_8
REMARK    5  A    between atoms: N_17  and  C_18
REMARK                            x       y       z     vdW  Elec       q    Type
REMARK                         _______ _______ _______ _____ _____    ______ ____
ROOT
ATOM      1  C   UNL     1       4.281   4.803  18.046  0.00  0.00    +0.000 A 
ATOM      2  N   UNL     1       3.645   5.956  17.828  0.00  0.00    +0.000 NA
ATOM      3  N   UNL     1       2.836   6.171  18.912  0.00  0.00    +0.000 N 
ATOM      4  C   UNL     1       2.817   5.031  19.720  0.00  0.00    +0.000 A 
ATOM      5  C   UNL     1       3.797   4.189  19.224  0.00  0.00    +0.000 A 
ATOM      6  C   UNL     1       4.223   2.901  19.802  0.00  0.00    +0.000 C 
ATOM      7  C   UNL     1       3.366   2.419  20.966  0.00  0.00    +0.000 C 
ATOM      8  C   UNL     1       2.076   3.197  21.286  0.00  0.00    +0.000 C 
ATOM      9  C   UNL     1       1.974   4.697  20.898  0.00  0.00    +0.000 C 
ENDROOT
BRANCH   3  10
ATOM     10  C   UNL     1       2.252   7.478  19.017  0.00  0.00    +0.000 A 
ATOM     11  C   UNL     1       1.729   7.856  20.283  0.00  0.00    +0.000 A 
ATOM     12  C   UNL     1       1.063   9.066  20.478  0.00  0.00    +0.000 A 
ATOM     13  C   UNL     1       0.915   9.928  19.408  0.00  0.00    +0.000 A 
ATOM     14  F   UNL     1       0.272  11.090  19.581  0.00  0.00    +0.000 F 
ATOM     15  C   UNL     1       1.432   9.597  18.149  0.00  0.00    +0.000 A 
ATOM     16  C   UNL     1       2.102   8.372  17.952  0.00  0.00    +0.000 A 
ENDBRANCH   3  10
BRANCH   1  18
ATOM     17  O   UNL     1       5.064   3.791  16.056  0.00  0.00    +0.000 OA
ATOM     18  C   UNL     1       5.319   4.285  17.147  0.00  0.00    +0.000 C 
BRANCH  18  19
ATOM     19  O   UNL     1       6.606   4.420  17.680  0.00  0.00    +0.000 OA
BRANCH  19  20
ATOM     20  C   UNL     1       7.089   5.722  17.876  0.00  0.00    +0.000 A 
ATOM     21  C   UNL     1       7.906   5.936  18.983  0.00  0.00    +0.000 A 
ATOM     22  C   UNL     1       8.457   7.202  19.204  0.00  0.00    +0.000 A 
ATOM     23  C   UNL     1       8.182   8.251  18.312  0.00  0.00    +0.000 A 
ATOM     24  C   UNL     1       7.373   8.012  17.189  0.00  0.00    +0.000 A 
ATOM     25  C   UNL     1       6.842   6.744  16.962  0.00  0.00    +0.000 A 
BRANCH  23  26
ATOM     26  N   UNL     1       8.705   9.546  18.519  0.00  0.00    +0.000 N 
ATOM     27  C   UNL     1       8.721  10.629  17.675  0.00  0.00    +0.000 A 
ATOM     28  N   UNL     1       9.335  11.631  18.260  0.00  0.00    +0.000 NA
ATOM     29  N   UNL     1       9.694  11.173  19.500  0.00  0.00    +0.000 NA
ATOM     30  N   UNL     1       9.304   9.918  19.676  0.00  0.00    +0.000 NA
ENDBRANCH  23  26
ENDBRANCH  19  20
ENDBRANCH  18  19
ENDBRANCH   1  18
TORSDOF 5
ENDMDL
MODEL 3
REMARK VINA RESULT:      -8.5      0.931      1.047
REMARK  Name = 
REMARK  5 active torsions:
REMARK  status: ('A' for Active; 'I' for Inactive)
REMARK    1  A    between atoms: C_2  and  O_3
REMARK    2  A    between atoms: C_2  and  C_15
REMARK    3  A    between atoms: O_3  and  C_4
REMARK    4  A    between atoms: C_7  and  N_8
REMARK    5  A    between atoms: N_17  and  C_18
REMARK                            x       y       z     vdW  Elec       q    Type
REMARK                         _______ _______ _______ _____ _____    ______ ____
ROOT
ATOM      1  C   UNL     1       4.268   4.808  17.450  0.00  0.00    +0.000 A 
ATOM      2  N   UNL     1       3.759   6.041  17.495  0.00  0.00    +0.000 NA
ATOM      3  N   UNL     1       2.704   6.000  18.367  0.00  0.00    +0.000 N 
ATOM      4  C   UNL     1       2.425   4.674  18.711  0.00  0.00    +0.000 A 
ATOM      5  C   UNL     1       3.466   3.918  18.200  0.00  0.00    +0.000 A 
ATOM      6  C   UNL     1       3.672   2.469  18.388  0.00  0.00    +0.000 C 
ATOM      7  C   UNL     1       2.520   1.754  19.083  0.00  0.00    +0.000 C 
ATOM      8  C   UNL     1       1.224   2.546  19.339  0.00  0.00    +0.000 C 
ATOM      9  C   UNL     1       1.290   4.093  19.472  0.00  0.00    +0.000 C 
ENDROOT
BRANCH   3  10
ATOM     10  C   UNL     1       2.167   7.269  18.771  0.00  0.00    +0.000 A 
ATOM     11  C   UNL     1       2.082   8.284  17.780  0.00  0.00    +0.000 A 
ATOM     12  C   UNL     1       1.657   9.579  18.080  0.00  0.00    +0.000 A 
ATOM     13  C   UNL     1       1.298   9.880  19.380  0.00  0.00    +0.000 A 
ATOM     14  F   UNL     1       0.895  11.121  19.682  0.00  0.00    +0.000 F 
ATOM     15  C   UNL     1       1.352   8.900  20.380  0.00  0.00    +0.000 A 
ATOM     16  C   UNL     1       1.785   7.594  20.076  0.00  0.00    +0.000 A 
ENDBRANCH   3  10
BRANCH   1  18
ATOM     17  O   UNL     1       5.469   4.205  15.503  0.00  0.00    +0.000 OA
ATOM     18  C   UNL     1       5.483   4.476  16.697  0.00  0.00    +0.000 C 
BRANCH  18  19
ATOM     19  O   UNL     1       6.632   4.505  17.495  0.00  0.00    +0.000 OA
BRANCH  19  20
ATOM     20  C   UNL     1       7.194   5.760  17.771  0.00  0.00    +0.000 A 
ATOM     21  C   UNL     1       6.915   6.791  16.879  0.00  0.00    +0.000 A 
ATOM     22  C   UNL     1       7.408   8.076  17.128  0.00  0.00    +0.000 A 
ATOM     23  C   UNL     1       8.183   8.320  18.273  0.00  0.00    +0.000 A 
ATOM     24  C   UNL     1       8.438   7.271  19.174  0.00  0.00    +0.000 A 
ATOM     25  C   UNL     1       7.928   5.998  18.931  0.00  0.00    +0.000 A 
BRANCH  23  26
ATOM     26  N   UNL     1       8.714   9.600  18.541  0.00  0.00    +0.000 N 
ATOM     27  C   UNL     1       9.420  10.044  19.631  0.00  0.00    +0.000 A 
ATOM     28  N   UNL     1       9.697  11.319  19.484  0.00  0.00    +0.000 NA
ATOM     29  N   UNL     1       9.169  11.676  18.271  0.00  0.00    +0.000 NA
ATOM     30  N   UNL     1       8.586  10.640  17.683  0.00  0.00    +0.000 NA
ENDBRANCH  23  26
ENDBRANCH  19  20
ENDBRANCH  18  19
ENDBRANCH   1  18
TORSDOF 5
ENDMDL
MODEL 4
REMARK VINA RESULT:      -8.5      4.812      7.990
REMARK  Name = 
REMARK  5 active torsions:
REMARK  status: ('A' for Active; 'I' for Inactive)
REMARK    1  A    between atoms: C_2  and  O_3
REMARK    2  A    between atoms: C_2  and  C_15
REMARK    3  A    between atoms: O_3  and  C_4
REMARK    4  A    between atoms: C_7  and  N_8
REMARK    5  A    between atoms: N_17  and  C_18
REMARK                            x       y       z     vdW  Elec       q    Type
REMARK                         _______ _______ _______ _____ _____    ______ ____
ROOT
ATOM      1  C   UNL     1       2.593   6.820  19.417  0.00  0.00    +0.000 A 
ATOM      2  N   UNL     1       3.691   6.876  18.659  0.00  0.00    +0.000 NA
ATOM      3  N   UNL     1       4.115   5.586  18.484  0.00  0.00    +0.000 N 
ATOM      4  C   UNL     1       3.387   4.732  19.318  0.00  0.00    +0.000 A 
ATOM      5  C   UNL     1       2.362   5.495  19.850  0.00  0.00    +0.000 A 
ATOM      6  C   UNL     1       1.269   5.014  20.715  0.00  0.00    +0.000 C 
ATOM      7  C   UNL     1       1.413   3.565  21.166  0.00  0.00    +0.000 C 
ATOM      8  C   UNL     1       2.730   2.834  20.846  0.00  0.00    +0.000 C 
ATOM      9  C   UNL     1       3.578   3.291  19.626  0.00  0.00    +0.000 C 
ENDROOT
BRANCH   3  10
ATOM     10  C   UNL     1       5.129   5.383  17.489  0.00  0.00    +0.000 A 
ATOM     11  C   UNL     1       4.820   5.771  16.158  0.00  0.00    +0.000 A 
ATOM     12  C   UNL     1       5.696   5.541  15.096  0.00  0.00    +0.000 A 
ATOM     13  C   UNL     1       6.906   4.925  15.350  0.00  0.00    +0.000 A 
ATOM     14  F   UNL     1       7.753   4.692  14.339  0.00  0.00    +0.000 F 
ATOM     15  C   UNL     1       7.253   4.543  16.653  0.00  0.00    +0.000 A 
ATOM     16  C   UNL     1       6.365   4.773  17.723  0.00  0.00    +0.000 A 
ENDBRANCH   3  10
BRANCH   1  18
ATOM     17  O   UNL     1       1.162   8.629  18.891  0.00  0.00    +0.000 OA
ATOM     18  C   UNL     1       1.787   8.004  19.738  0.00  0.00    +0.000 C 
BRANCH  18  19
ATOM     19  O   UNL     1       1.824   8.324  21.100  0.00  0.00    +0.000 OA
BRANCH  19  20
ATOM     20  C   UNL     1       0.922   9.296  21.559  0.00  0.00    +0.000 A 
ATOM     21  C   UNL     1       0.088   8.940  22.615  0.00  0.00    +0.000 A 
ATOM     22  C   UNL     1      -0.798   9.883  23.146  0.00  0.00    +0.000 A 
ATOM     23  C   UNL     1      -0.844  11.180  22.612  0.00  0.00    +0.000 A 
ATOM     24  C   UNL     1       0.020  11.528  21.560  0.00  0.00    +0.000 A 
ATOM     25  C   UNL     1       0.915  10.591  21.047  0.00  0.00    +0.000 A 
BRANCH  23  26
ATOM     26  N   UNL     1      -1.742  12.148  23.111  0.00  0.00    +0.000 N 
ATOM     27  C   UNL     1      -1.558  13.493  23.311  0.00  0.00    +0.000 A 
ATOM     28  N   UNL     1      -2.650  14.015  23.821  0.00  0.00    +0.000 NA
ATOM     29  N   UNL     1      -3.540  12.979  23.927  0.00  0.00    +0.000 NA
ATOM     30  N   UNL     1      -3.009  11.847  23.485  0.00  0.00    +0.000 NA
ENDBRANCH  23  26
ENDBRANCH  19  20
ENDBRANCH  18  19
ENDBRANCH   1  18
TORSDOF 5
ENDMDL
MODEL 5
REMARK VINA RESULT:      -8.5      1.148      1.708
REMARK  Name = 
REMARK  5 active torsions:
REMARK  status: ('A' for Active; 'I' for Inactive)
REMARK    1  A    between atoms: C_2  and  O_3
REMARK    2  A    between atoms: C_2  and  C_15
REMARK    3  A    between atoms: O_3  and  C_4
REMARK    4  A    between atoms: C_7  and  N_8
REMARK    5  A    between atoms: N_17  and  C_18
REMARK                            x       y       z     vdW  Elec       q    Type
REMARK                         _______ _______ _______ _____ _____    ______ ____
ROOT
ATOM      1  C   UNL     1       4.269   5.287  17.242  0.00  0.00    +0.000 A 
ATOM      2  N   UNL     1       3.727   6.480  17.496  0.00  0.00    +0.000 NA
ATOM      3  N   UNL     1       2.687   6.264  18.360  0.00  0.00    +0.000 N 
ATOM      4  C   UNL     1       2.451   4.892  18.482  0.00  0.00    +0.000 A 
ATOM      5  C   UNL     1       3.504   4.262  17.843  0.00  0.00    +0.000 A 
ATOM      6  C   UNL     1       3.752   2.809  17.785  0.00  0.00    +0.000 C 
ATOM      7  C   UNL     1       2.632   1.954  18.365  0.00  0.00    +0.000 C 
ATOM      8  C   UNL     1       1.318   2.655  18.762  0.00  0.00    +0.000 C 
ATOM      9  C   UNL     1       1.344   4.159  19.149  0.00  0.00    +0.000 C 
ENDROOT
BRANCH   3  10
ATOM     10  C   UNL     1       2.121   7.432  18.975  0.00  0.00    +0.000 A 
ATOM     11  C   UNL     1       1.846   7.364  20.367  0.00  0.00    +0.000 A 
ATOM     12  C   UNL     1       1.217   8.407  21.050  0.00  0.00    +0.000 A 
ATOM     13  C   UNL     1       0.862   9.545  20.351  0.00  0.00    +0.000 A 
ATOM     14  F   UNL     1       0.253  10.549  20.994  0.00  0.00    +0.000 F 
ATOM     15  C   UNL     1       1.134   9.654  18.982  0.00  0.00    +0.000 A 
ATOM     16  C   UNL     1       1.765   8.599  18.292  0.00  0.00    +0.000 A 
ENDBRANCH   3  10
BRANCH   1  18
ATOM     17  O   UNL     1       5.454   5.022  15.211  0.00  0.00    +0.000 OA
ATOM     18  C   UNL     1       5.481   5.121  16.431  0.00  0.00    +0.000 C 
BRANCH  18  19
ATOM     19  O   UNL     1       6.645   5.087  17.209  0.00  0.00    +0.000 OA
BRANCH  19  20
ATOM     20  C   UNL     1       7.190   6.316  17.607  0.00  0.00    +0.000 A 
ATOM     21  C   UNL     1       7.954   6.325  18.771  0.00  0.00    +0.000 A 
ATOM     22  C   UNL     1       8.564   7.511  19.192  0.00  0.00    +0.000 A 
ATOM     23  C   UNL     1       8.399   8.687  18.442  0.00  0.00    +0.000 A 
ATOM     24  C   UNL     1       7.642   8.655  17.259  0.00  0.00    +0.000 A 
ATOM     25  C   UNL     1       7.053   7.467  16.834  0.00  0.00    +0.000 A 
BRANCH  23  26
ATOM     26  N   UNL     1       8.983   9.906  18.852  0.00  0.00    +0.000 N 
ATOM     27  C   UNL     1       9.352  10.995  18.103  0.00  0.00    +0.000 A 
ATOM     28  N   UNL     1       9.885  11.905  18.886  0.00  0.00    +0.000 NA
ATOM     29  N   UNL     1       9.832  11.382  20.151  0.00  0.00    +0.000 NA
ATOM     30  N   UNL     1       9.273  10.180  20.146  0.00  0.00    +0.000 NA
ENDBRANCH  23  26
ENDBRANCH  19  20
ENDBRANCH  18  19
ENDBRANCH   1  18
TORSDOF 5
ENDMDL
MODEL 6
REMARK VINA RESULT:      -8.3      3.087      4.981
REMARK  Name = 
REMARK  5 active torsions:
REMARK  status: ('A' for Active; 'I' for Inactive)
REMARK    1  A    between atoms: C_2  and  O_3
REMARK    2  A    between atoms: C_2  and  C_15
REMARK    3  A    between atoms: O_3  and  C_4
REMARK    4  A    between atoms: C_7  and  N_8
REMARK    5  A    between atoms: N_17  and  C_18
REMARK                            x       y       z     vdW  Elec       q    Type
REMARK                         _______ _______ _______ _____ _____    ______ ____
ROOT
ATOM      1  C   UNL     1       4.813   5.640  19.221  0.00  0.00    +0.000 A 
ATOM      2  N   UNL     1       4.103   6.770  19.211  0.00  0.00    +0.000 NA
ATOM      3  N   UNL     1       2.810   6.424  19.502  0.00  0.00    +0.000 N 
ATOM      4  C   UNL     1       2.678   5.033  19.489  0.00  0.00    +0.000 A 
ATOM      5  C   UNL     1       3.963   4.525  19.395  0.00  0.00    +0.000 A 
ATOM      6  C   UNL     1       4.349   3.103  19.442  0.00  0.00    +0.000 C 
ATOM      7  C   UNL     1       3.176   2.130  19.437  0.00  0.00    +0.000 C 
ATOM      8  C   UNL     1       1.765   2.699  19.197  0.00  0.00    +0.000 C 
ATOM      9  C   UNL     1       1.466   4.177  19.568  0.00  0.00    +0.000 C 
ENDROOT
BRANCH   3  10
ATOM     10  C   UNL     1       1.917   7.508  19.803  0.00  0.00    +0.000 A 
ATOM     11  C   UNL     1       1.753   8.508  18.807  0.00  0.00    +0.000 A 
ATOM     12  C   UNL     1       0.978   9.649  19.024  0.00  0.00    +0.000 A 
ATOM     13  C   UNL     1       0.342   9.804  20.241  0.00  0.00    +0.000 A 
ATOM     14  F   UNL     1      -0.399  10.897  20.464  0.00  0.00    +0.000 F 
ATOM     15  C   UNL     1       0.468   8.829  21.240  0.00  0.00    +0.000 A 
ATOM     16  C   UNL     1       1.254   7.680  21.021  0.00  0.00    +0.000 A 
ENDBRANCH   3  10
BRANCH   1  18
ATOM     17  O   UNL     1       7.028   5.136  19.885  0.00  0.00    +0.000 OA
ATOM     18  C   UNL     1       6.271   5.617  19.051  0.00  0.00    +0.000 C 
BRANCH  18  19
ATOM     19  O   UNL     1       6.680   6.202  17.848  0.00  0.00    +0.000 OA
BRANCH  19  20
ATOM     20  C   UNL     1       6.396   5.506  16.663  0.00  0.00    +0.000 A 
ATOM     21  C   UNL     1       5.532   6.118  15.759  0.00  0.00    +0.000 A 
ATOM     22  C   UNL     1       5.249   5.494  14.539  0.00  0.00    +0.000 A 
ATOM     23  C   UNL     1       5.835   4.255  14.234  0.00  0.00    +0.000 A 
ATOM     24  C   UNL     1       6.722   3.663  15.149  0.00  0.00    +0.000 A 
ATOM     25  C   UNL     1       7.015   4.297  16.355  0.00  0.00    +0.000 A 
BRANCH  23  26
ATOM     26  N   UNL     1       5.554   3.589  13.021  0.00  0.00    +0.000 N 
ATOM     27  C   UNL     1       4.427   3.633  12.240  0.00  0.00    +0.000 A 
ATOM     28  N   UNL     1       4.577   2.834  11.209  0.00  0.00    +0.000 NA
ATOM     29  N   UNL     1       5.829   2.294  11.338  0.00  0.00    +0.000 NA
ATOM     30  N   UNL     1       6.438   2.756  12.422  0.00  0.00    +0.000 NA
ENDBRANCH  23  26
ENDBRANCH  19  20
ENDBRANCH  18  19
ENDBRANCH   1  18
TORSDOF 5
ENDMDL
MODEL 7
REMARK VINA RESULT:      -8.3      4.590      8.077
REMARK  Name = 
REMARK  5 active torsions:
REMARK  status: ('A' for Active; 'I' for Inactive)
REMARK    1  A    between atoms: C_2  and  O_3
REMARK    2  A    between atoms: C_2  and  C_15
REMARK    3  A    between atoms: O_3  and  C_4
REMARK    4  A    between atoms: C_7  and  N_8
REMARK    5  A    between atoms: N_17  and  C_18
REMARK                            x       y       z     vdW  Elec       q    Type
REMARK                         _______ _______ _______ _____ _____    ______ ____
ROOT
ATOM      1  C   UNL     1       2.487   6.727  19.560  0.00  0.00    +0.000 A 
ATOM      2  N   UNL     1       3.572   6.848  18.792  0.00  0.00    +0.000 NA
ATOM      3  N   UNL     1       3.902   5.586  18.375  0.00  0.00    +0.000 N 
ATOM      4  C   UNL     1       3.132   4.645  19.063  0.00  0.00    +0.000 A 
ATOM      5  C   UNL     1       2.172   5.363  19.755  0.00  0.00    +0.000 A 
ATOM      6  C   UNL     1       1.064   4.806  20.553  0.00  0.00    +0.000 C 
ATOM      7  C   UNL     1       1.115   3.293  20.732  0.00  0.00    +0.000 C 
ATOM      8  C   UNL     1       2.372   2.548  20.244  0.00  0.00    +0.000 C 
ATOM      9  C   UNL     1       3.227   3.162  19.102  0.00  0.00    +0.000 C 
ENDROOT
BRANCH   3  10
ATOM     10  C   UNL     1       4.881   5.501  17.329  0.00  0.00    +0.000 A 
ATOM     11  C   UNL     1       4.605   4.616  16.252  0.00  0.00    +0.000 A 
ATOM     12  C   UNL     1       5.523   4.389  15.225  0.00  0.00    +0.000 A 
ATOM     13  C   UNL     1       6.734   5.053  15.252  0.00  0.00    +0.000 A 
ATOM     14  F   UNL     1       7.626   4.838  14.277  0.00  0.00    +0.000 F 
ATOM     15  C   UNL     1       7.034   5.946  16.289  0.00  0.00    +0.000 A 
ATOM     16  C   UNL     1       6.108   6.171  17.327  0.00  0.00    +0.000 A 
ENDBRANCH   3  10
BRANCH   1  18
ATOM     17  O   UNL     1       1.231   7.866  21.211  0.00  0.00    +0.000 OA
ATOM     18  C   UNL     1       1.772   7.883  20.113  0.00  0.00    +0.000 C 
BRANCH  18  19
ATOM     19  O   UNL     1       1.782   8.983  19.247  0.00  0.00    +0.000 OA
BRANCH  19  20
ATOM     20  C   UNL     1       0.551   9.596  18.970  0.00  0.00    +0.000 A 
ATOM     21  C   UNL     1      -0.044   9.302  17.747  0.00  0.00    +0.000 A 
ATOM     22  C   UNL     1      -1.295   9.845  17.435  0.00  0.00    +0.000 A 
ATOM     23  C   UNL     1      -1.942  10.687  18.354  0.00  0.00    +0.000 A 
ATOM     24  C   UNL     1      -1.335  10.957  19.593  0.00  0.00    +0.000 A 
ATOM     25  C   UNL     1      -0.098  10.397  19.907  0.00  0.00    +0.000 A 
BRANCH  23  26
ATOM     26  N   UNL     1      -3.194  11.269  18.061  0.00  0.00    +0.000 N 
ATOM     27  C   UNL     1      -3.875  11.328  16.871  0.00  0.00    +0.000 A 
ATOM     28  N   UNL     1      -4.996  11.991  17.040  0.00  0.00    +0.000 NA
ATOM     29  N   UNL     1      -5.025  12.338  18.365  0.00  0.00    +0.000 NA
ATOM     30  N   UNL     1      -3.948  11.893  18.998  0.00  0.00    +0.000 NA
ENDBRANCH  23  26
ENDBRANCH  19  20
ENDBRANCH  18  19
ENDBRANCH   1  18
TORSDOF 5
ENDMDL
MODEL 8
REMARK VINA RESULT:      -8.2      4.451      6.880
REMARK  Name = 
REMARK  5 active torsions:
REMARK  status: ('A' for Active; 'I' for Inactive)
REMARK    1  A    between atoms: C_2  and  O_3
REMARK    2  A    between atoms: C_2  and  C_15
REMARK    3  A    between atoms: O_3  and  C_4
REMARK    4  A    between atoms: C_7  and  N_8
REMARK    5  A    between atoms: N_17  and  C_18
REMARK                            x       y       z     vdW  Elec       q    Type
REMARK                         _______ _______ _______ _____ _____    ______ ____
ROOT
ATOM      1  C   UNL     1       2.599   6.645  19.257  0.00  0.00    +0.000 A 
ATOM      2  N   UNL     1       3.653   6.670  18.438  0.00  0.00    +0.000 NA
ATOM      3  N   UNL     1       4.026   5.368  18.238  0.00  0.00    +0.000 N 
ATOM      4  C   UNL     1       3.320   4.534  19.111  0.00  0.00    +0.000 A 
ATOM      5  C   UNL     1       2.352   5.327  19.702  0.00  0.00    +0.000 A 
ATOM      6  C   UNL     1       1.296   4.877  20.628  0.00  0.00    +0.000 C 
ATOM      7  C   UNL     1       1.420   3.424  21.068  0.00  0.00    +0.000 C 
ATOM      8  C   UNL     1       2.694   2.654  20.672  0.00  0.00    +0.000 C 
ATOM      9  C   UNL     1       3.484   3.087  19.407  0.00  0.00    +0.000 C 
ENDROOT
BRANCH   3  10
ATOM     10  C   UNL     1       4.975   5.135  17.186  0.00  0.00    +0.000 A 
ATOM     11  C   UNL     1       6.110   5.988  17.136  0.00  0.00    +0.000 A 
ATOM     12  C   UNL     1       7.052   5.910  16.108  0.00  0.00    +0.000 A 
ATOM     13  C   UNL     1       6.879   4.965  15.115  0.00  0.00    +0.000 A 
ATOM     14  F   UNL     1       7.771   4.884  14.120  0.00  0.00    +0.000 F 
ATOM     15  C   UNL     1       5.781   4.096  15.141  0.00  0.00    +0.000 A 
ATOM     16  C   UNL     1       4.829   4.179  16.177  0.00  0.00    +0.000 A 
ENDBRANCH   3  10
BRANCH   1  18
ATOM     17  O   UNL     1       1.712   8.221  20.784  0.00  0.00    +0.000 OA
ATOM     18  C   UNL     1       1.850   7.853  19.625  0.00  0.00    +0.000 C 
BRANCH  18  19
ATOM     19  O   UNL     1       1.322   8.516  18.510  0.00  0.00    +0.000 OA
BRANCH  19  20
ATOM     20  C   UNL     1       1.177   9.908  18.597  0.00  0.00    +0.000 A 
ATOM     21  C   UNL     1       2.278  10.684  18.246  0.00  0.00    +0.000 A 
ATOM     22  C   UNL     1       2.178  12.079  18.266  0.00  0.00    +0.000 A 
ATOM     23  C   UNL     1       0.971  12.689  18.642  0.00  0.00    +0.000 A 
ATOM     24  C   UNL     1      -0.137  11.890  18.973  0.00  0.00    +0.000 A 
ATOM     25  C   UNL     1      -0.038  10.501  18.933  0.00  0.00    +0.000 A 
BRANCH  23  26
ATOM     26  N   UNL     1       0.844  14.095  18.694  0.00  0.00    +0.000 N 
ATOM     27  C   UNL     1      -0.283  14.867  18.823  0.00  0.00    +0.000 A 
ATOM     28  N   UNL     1       0.051  16.137  18.798  0.00  0.00    +0.000 NA
ATOM     29  N   UNL     1       1.414  16.159  18.668  0.00  0.00    +0.000 NA
ATOM     30  N   UNL     1       1.908  14.929  18.621  0.00  0.00    +0.000 NA
ENDBRANCH  23  26
ENDBRANCH  19  20
ENDBRANCH  18  19
ENDBRANCH   1  18
TORSDOF 5
ENDMDL
MODEL 9
REMARK VINA RESULT:      -8.2      4.826      7.988
REMARK  Name = 
REMARK  5 active torsions:
REMARK  status: ('A' for Active; 'I' for Inactive)
REMARK    1  A    between atoms: C_2  and  O_3
REMARK    2  A    between atoms: C_2  and  C_15
REMARK    3  A    between atoms: O_3  and  C_4
REMARK    4  A    between atoms: C_7  and  N_8
REMARK    5  A    between atoms: N_17  and  C_18
REMARK                            x       y       z     vdW  Elec       q    Type
REMARK                         _______ _______ _______ _____ _____    ______ ____
ROOT
ATOM      1  C   UNL     1       2.492   6.918  19.380  0.00  0.00    +0.000 A 
ATOM      2  N   UNL     1       3.558   7.005  18.581  0.00  0.00    +0.000 NA
ATOM      3  N   UNL     1       3.978   5.723  18.344  0.00  0.00    +0.000 N 
ATOM      4  C   UNL     1       3.287   4.838  19.176  0.00  0.00    +0.000 A 
ATOM      5  C   UNL     1       2.282   5.578  19.776  0.00  0.00    +0.000 A 
ATOM      6  C   UNL     1       1.226   5.063  20.667  0.00  0.00    +0.000 C 
ATOM      7  C   UNL     1       1.392   3.600  21.062  0.00  0.00    +0.000 C 
ATOM      8  C   UNL     1       2.697   2.886  20.662  0.00  0.00    +0.000 C 
ATOM      9  C   UNL     1       3.493   3.388  19.427  0.00  0.00    +0.000 C 
ENDROOT
BRANCH   3  10
ATOM     10  C   UNL     1       4.952   5.558  17.302  0.00  0.00    +0.000 A 
ATOM     11  C   UNL     1       4.641   4.640  16.263  0.00  0.00    +0.000 A 
ATOM     12  C   UNL     1       5.548   4.336  15.247  0.00  0.00    +0.000 A 
ATOM     13  C   UNL     1       6.783   4.955  15.246  0.00  0.00    +0.000 A 
ATOM     14  F   UNL     1       7.665   4.668  14.280  0.00  0.00    +0.000 F 
ATOM     15  C   UNL     1       7.118   5.879  16.245  0.00  0.00    +0.000 A 
ATOM     16  C   UNL     1       6.202   6.182  17.273  0.00  0.00    +0.000 A 
ENDBRANCH   3  10
BRANCH   1  18
ATOM     17  O   UNL     1       1.003   8.714  18.983  0.00  0.00    +0.000 OA
ATOM     18  C   UNL     1       1.697   8.087  19.774  0.00  0.00    +0.000 C 
BRANCH  18  19
ATOM     19  O   UNL     1       1.829   8.391  21.133  0.00  0.00    +0.000 OA
BRANCH  19  20
ATOM     20  C   UNL     1       0.939   9.331  21.673  0.00  0.00    +0.000 A 
ATOM     21  C   UNL     1       0.937  10.603  21.107  0.00  0.00    +0.000 A 
ATOM     22  C   UNL     1       0.037  11.567  21.571  0.00  0.00    +0.000 A 
ATOM     23  C   UNL     1      -0.857  11.251  22.607  0.00  0.00    +0.000 A 
ATOM     24  C   UNL     1      -0.855   9.956  23.153  0.00  0.00    +0.000 A 
ATOM     25  C   UNL     1       0.030   8.992  22.673  0.00  0.00    +0.000 A 
BRANCH  23  26
ATOM     26  N   UNL     1      -1.762  12.208  23.113  0.00  0.00    +0.000 N 
ATOM     27  C   UNL     1      -1.584  13.551  23.334  0.00  0.00    +0.000 A 
ATOM     28  N   UNL     1      -2.682  14.061  23.843  0.00  0.00    +0.000 NA
ATOM     29  N   UNL     1      -3.570  13.021  23.925  0.00  0.00    +0.000 NA
ATOM     30  N   UNL     1      -3.031  11.898  23.471  0.00  0.00    +0.000 NA
ENDBRANCH  23  26
ENDBRANCH  19  20
ENDBRANCH  18  19
ENDBRANCH   1  18
TORSDOF 5
ENDMDL
