MODEL 1
REMARK VINA RESULT:      -7.8      0.000      0.000
REMARK  Name = 
REMARK  6 active torsions:
REMARK  status: ('A' for Active; 'I' for Inactive)
REMARK    1  A    between atoms: N_1  and  C_2
REMARK    2  A    between atoms: C_2  and  C_3
REMARK    3  A    between atoms: C_3  and  C_4
REMARK    4  A    between atoms: C_4  and  C_5
REMARK    5  A    between atoms: C_9  and  N_10
REMARK    6  A    between atoms: C_18  and  C_19
REMARK                            x       y       z     vdW  Elec       q    Type
REMARK                         _______ _______ _______ _____ _____    ______ ____
ROOT
ATOM      1  C   UNL     1       2.346   6.702  19.342  0.00  0.00    +0.000 A 
ATOM      2  C   UNL     1       2.468   7.207  18.033  0.00  0.00    +0.000 A 
ATOM      3  C   UNL     1       2.185   8.538  17.722  0.00  0.00    +0.000 A 
ATOM      4  C   UNL     1       1.660   9.378  18.697  0.00  0.00    +0.000 A 
ATOM      5  C   UNL     1       1.365   8.856  19.958  0.00  0.00    +0.000 A 
ATOM      6  C   UNL     1       1.877   7.604  20.315  0.00  0.00    +0.000 A 
ENDROOT
BRANCH   5   7
ATOM      7  N   UNL     1       0.196   9.325  20.692  0.00  0.00    +0.000 N 
ATOM      8  C   UNL     1      -1.022   9.235  19.841  0.00  0.00    +0.000 C 
ATOM      9  C   UNL     1      -1.092  10.617  19.267  0.00  0.00    +0.000 A 
ATOM     10  C   UNL     1      -0.449  11.478  20.165  0.00  0.00    +0.000 A 
ATOM     11  C   UNL     1      -0.215  12.809  19.897  0.00  0.00    +0.000 A 
ATOM     12  C   UNL     1      -0.636  13.274  18.658  0.00  0.00    +0.000 A 
ATOM     13  F   UNL     1      -0.363  14.535  18.304  0.00  0.00    +0.000 F 
ATOM     14  C   UNL     1      -1.267  12.430  17.728  0.00  0.00    +0.000 A 
ATOM     15  C   UNL     1      -1.508  11.072  18.019  0.00  0.00    +0.000 A 
ATOM     16  C   UNL     1       0.257  10.649  21.162  0.00  0.00    +0.000 C 
ATOM     17  O   UNL     1       0.926  11.095  22.078  0.00  0.00    +0.000 OA
BRANCH  15  18
ATOM     18  C   UNL     1      -2.083  10.181  16.945  0.00  0.00    +0.000 C 
ATOM     19  F   UNL     1      -1.252   9.181  16.555  0.00  0.00    +0.000 F 
ATOM     20  F   UNL     1      -3.230   9.575  17.352  0.00  0.00    +0.000 F 
ATOM     21  F   UNL     1      -2.401  10.870  15.820  0.00  0.00    +0.000 F 
ENDBRANCH  15  18
ENDBRANCH   5   7
BRANCH   1  22
ATOM     22  C   UNL     1       2.639   5.161  19.701  0.00  0.00    +0.000 C 
ATOM     23  C   UNL     1       2.189   4.623  21.093  0.00  0.00    +0.000 C 
ATOM     24  O   UNL     1       1.002   4.024  20.523  0.00  0.00    +0.000 OA
ATOM     25  C   UNL     1       1.571   4.142  19.196  0.00  0.00    +0.000 C 
BRANCH  22  26
ATOM     26  C   UNL     1       4.077   4.787  19.312  0.00  0.00    +0.000 C 
BRANCH  26  27
ATOM     27  C   UNL     1       4.167   3.334  18.841  0.00  0.00    +0.000 C 
BRANCH  27  28
ATOM     28  N   UNL     1       5.076   2.586  19.699  0.00  0.00    +0.000 NA
ATOM     29  H   UNL     1       4.545   2.161  20.459  0.00  0.00    +0.000 HD
ATOM     30  H   UNL     1       5.726   3.232  20.146  0.00  0.00    +0.000 HD
ENDBRANCH  27  28
ENDBRANCH  26  27
ENDBRANCH  22  26
ENDBRANCH   1  22
TORSDOF 6
ENDMDL
MODEL 2
REMARK VINA RESULT:      -7.8      1.215      1.436
REMARK  Name = 
REMARK  6 active torsions:
REMARK  status: ('A' for Active; 'I' for Inactive)
REMARK    1  A    between atoms: N_1  and  C_2
REMARK    2  A    between atoms: C_2  and  C_3
REMARK    3  A    between atoms: C_3  and  C_4
REMARK    4  A    between atoms: C_4  and  C_5
REMARK    5  A    between atoms: C_9  and  N_10
REMARK    6  A    between atoms: C_18  and  C_19
REMARK                            x       y       z     vdW  Elec       q    Type
REMARK                         _______ _______ _______ _____ _____    ______ ____
ROOT
ATOM      1  C   UNL     1       2.243   5.492  19.489  0.00  0.00    +0.000 A 
ATOM      2  C   UNL     1       2.356   6.096  18.221  0.00  0.00    +0.000 A 
ATOM      3  C   UNL     1       2.303   7.480  18.051  0.00  0.00    +0.000 A 
ATOM      4  C   UNL     1       2.019   8.298  19.139  0.00  0.00    +0.000 A 
ATOM      5  C   UNL     1       1.729   7.713  20.373  0.00  0.00    +0.000 A 
ATOM      6  C   UNL     1       2.026   6.361  20.573  0.00  0.00    +0.000 A 
ENDROOT
BRANCH   5   7
ATOM      7  N   UNL     1       0.728   8.307  21.250  0.00  0.00    +0.000 N 
ATOM      8  C   UNL     1      -0.505   8.635  20.483  0.00  0.00    +0.000 C 
ATOM      9  C   UNL     1      -0.269  10.073  20.132  0.00  0.00    +0.000 A 
ATOM     10  C   UNL     1       0.587  10.607  21.104  0.00  0.00    +0.000 A 
ATOM     11  C   UNL     1       1.118  11.876  21.025  0.00  0.00    +0.000 A 
ATOM     12  C   UNL     1       0.777  12.621  19.904  0.00  0.00    +0.000 A 
ATOM     13  F   UNL     1       1.326  13.828  19.728  0.00  0.00    +0.000 F 
ATOM     14  C   UNL     1      -0.064  12.106  18.903  0.00  0.00    +0.000 A 
ATOM     15  C   UNL     1      -0.607  10.808  19.000  0.00  0.00    +0.000 A 
ATOM     16  C   UNL     1       1.112   9.487  21.910  0.00  0.00    +0.000 C 
ATOM     17  O   UNL     1       1.896   9.614  22.834  0.00  0.00    +0.000 OA
BRANCH  15  18
ATOM     18  C   UNL     1      -1.410  10.259  17.846  0.00  0.00    +0.000 C 
ATOM     19  F   UNL     1      -0.746   9.338  17.102  0.00  0.00    +0.000 F 
ATOM     20  F   UNL     1      -2.548   9.647  18.268  0.00  0.00    +0.000 F 
ATOM     21  F   UNL     1      -1.803  11.231  16.984  0.00  0.00    +0.000 F 
ENDBRANCH  15  18
ENDBRANCH   5   7
BRANCH   1  22
ATOM     22  C   UNL     1       2.271   3.895  19.686  0.00  0.00    +0.000 C 
ATOM     23  C   UNL     1       2.442   3.327  21.129  0.00  0.00    +0.000 C 
ATOM     24  O   UNL     1       1.020   3.085  21.246  0.00  0.00    +0.000 OA
ATOM     25  C   UNL     1       0.873   3.212  19.810  0.00  0.00    +0.000 C 
BRANCH  22  26
ATOM     26  C   UNL     1       3.182   3.243  18.637  0.00  0.00    +0.000 C 
BRANCH  26  27
ATOM     27  C   UNL     1       4.434   2.644  19.281  0.00  0.00    +0.000 C 
BRANCH  27  28
ATOM     28  N   UNL     1       5.549   3.575  19.166  0.00  0.00    +0.000 NA
ATOM     29  H   UNL     1       6.423   3.048  19.149  0.00  0.00    +0.000 HD
ATOM     30  H   UNL     1       5.594   4.154  20.005  0.00  0.00    +0.000 HD
ENDBRANCH  27  28
ENDBRANCH  26  27
ENDBRANCH  22  26
ENDBRANCH   1  22
TORSDOF 6
ENDMDL
MODEL 3
REMARK VINA RESULT:      -7.7      1.554      2.101
REMARK  Name = 
REMARK  6 active torsions:
REMARK  status: ('A' for Active; 'I' for Inactive)
REMARK    1  A    between atoms: N_1  and  C_2
REMARK    2  A    between atoms: C_2  and  C_3
REMARK    3  A    between atoms: C_3  and  C_4
REMARK    4  A    between atoms: C_4  and  C_5
REMARK    5  A    between atoms: C_9  and  N_10
REMARK    6  A    between atoms: C_18  and  C_19
REMARK                            x       y       z     vdW  Elec       q    Type
REMARK                         _______ _______ _______ _____ _____    ______ ____
ROOT
ATOM      1  C   UNL     1       2.252   5.725  19.084  0.00  0.00    +0.000 A 
ATOM      2  C   UNL     1       2.412   6.485  17.908  0.00  0.00    +0.000 A 
ATOM      3  C   UNL     1       2.396   7.881  17.919  0.00  0.00    +0.000 A 
ATOM      4  C   UNL     1       2.104   8.558  19.098  0.00  0.00    +0.000 A 
ATOM      5  C   UNL     1       1.769   7.826  20.239  0.00  0.00    +0.000 A 
ATOM      6  C   UNL     1       2.029   6.452  20.268  0.00  0.00    +0.000 A 
ENDROOT
BRANCH   5   7
ATOM      7  N   UNL     1       0.761   8.328  21.163  0.00  0.00    +0.000 N 
ATOM      8  C   UNL     1      -0.505   8.628  20.439  0.00  0.00    +0.000 C 
ATOM      9  C   UNL     1      -0.348  10.090  20.150  0.00  0.00    +0.000 A 
ATOM     10  C   UNL     1       0.503  10.622  21.128  0.00  0.00    +0.000 A 
ATOM     11  C   UNL     1       0.968  11.918  21.097  0.00  0.00    +0.000 A 
ATOM     12  C   UNL     1       0.564  12.696  20.020  0.00  0.00    +0.000 A 
ATOM     13  F   UNL     1       1.049  13.935  19.889  0.00  0.00    +0.000 F 
ATOM     14  C   UNL     1      -0.274  12.185  19.014  0.00  0.00    +0.000 A 
ATOM     15  C   UNL     1      -0.749  10.858  19.062  0.00  0.00    +0.000 A 
ATOM     16  C   UNL     1       1.102   9.494  21.870  0.00  0.00    +0.000 C 
ATOM     17  O   UNL     1       1.900   9.618  22.782  0.00  0.00    +0.000 OA
BRANCH  15  18
ATOM     18  C   UNL     1      -1.551  10.322  17.900  0.00  0.00    +0.000 C 
ATOM     19  F   UNL     1      -2.699   9.696  18.266  0.00  0.00    +0.000 F 
ATOM     20  F   UNL     1      -1.922  11.312  17.044  0.00  0.00    +0.000 F 
ATOM     21  F   UNL     1      -0.850   9.427  17.160  0.00  0.00    +0.000 F 
ENDBRANCH  15  18
ENDBRANCH   5   7
BRANCH   1  22
ATOM     22  C   UNL     1       2.237   4.116  19.073  0.00  0.00    +0.000 C 
ATOM     23  C   UNL     1       2.186   3.383  17.697  0.00  0.00    +0.000 C 
ATOM     24  O   UNL     1       3.611   3.139  17.728  0.00  0.00    +0.000 OA
ATOM     25  C   UNL     1       3.638   3.433  19.146  0.00  0.00    +0.000 C 
BRANCH  22  26
ATOM     26  C   UNL     1       1.239   3.584  20.111  0.00  0.00    +0.000 C 
BRANCH  26  27
ATOM     27  C   UNL     1       1.883   2.531  21.015  0.00  0.00    +0.000 C 
BRANCH  27  28
ATOM     28  N   UNL     1       2.221   3.117  22.304  0.00  0.00    +0.000 NA
ATOM     29  H   UNL     1       1.422   3.651  22.648  0.00  0.00    +0.000 HD
ATOM     30  H   UNL     1       2.972   3.797  22.180  0.00  0.00    +0.000 HD
ENDBRANCH  27  28
ENDBRANCH  26  27
ENDBRANCH  22  26
ENDBRANCH   1  22
TORSDOF 6
ENDMDL
MODEL 4
REMARK VINA RESULT:      -7.7      1.006      1.426
REMARK  Name = 
REMARK  6 active torsions:
REMARK  status: ('A' for Active; 'I' for Inactive)
REMARK    1  A    between atoms: N_1  and  C_2
REMARK    2  A    between atoms: C_2  and  C_3
REMARK    3  A    between atoms: C_3  and  C_4
REMARK    4  A    between atoms: C_4  and  C_5
REMARK    5  A    between atoms: C_9  and  N_10
REMARK    6  A    between atoms: C_18  and  C_19
REMARK                            x       y       z     vdW  Elec       q    Type
REMARK                         _______ _______ _______ _____ _____    ______ ____
ROOT
ATOM      1  C   UNL     1       2.328   6.737  19.291  0.00  0.00    +0.000 A 
ATOM      2  C   UNL     1       2.448   7.266  17.991  0.00  0.00    +0.000 A 
ATOM      3  C   UNL     1       2.175   8.605  17.707  0.00  0.00    +0.000 A 
ATOM      4  C   UNL     1       1.661   9.430  18.701  0.00  0.00    +0.000 A 
ATOM      5  C   UNL     1       1.367   8.885  19.953  0.00  0.00    +0.000 A 
ATOM      6  C   UNL     1       1.871   7.623  20.283  0.00  0.00    +0.000 A 
ENDROOT
BRANCH   5   7
ATOM      7  N   UNL     1       0.206   9.350  20.701  0.00  0.00    +0.000 N 
ATOM      8  C   UNL     1      -1.021   9.266  19.862  0.00  0.00    +0.000 C 
ATOM      9  C   UNL     1      -1.097  10.651  19.297  0.00  0.00    +0.000 A 
ATOM     10  C   UNL     1      -0.445  11.507  20.195  0.00  0.00    +0.000 A 
ATOM     11  C   UNL     1      -0.213  12.839  19.933  0.00  0.00    +0.000 A 
ATOM     12  C   UNL     1      -0.647  13.313  18.701  0.00  0.00    +0.000 A 
ATOM     13  F   UNL     1      -0.376  14.575  18.353  0.00  0.00    +0.000 F 
ATOM     14  C   UNL     1      -1.286  12.475  17.772  0.00  0.00    +0.000 A 
ATOM     15  C   UNL     1      -1.524  11.114  18.057  0.00  0.00    +0.000 A 
ATOM     16  C   UNL     1       0.271  10.671  21.179  0.00  0.00    +0.000 C 
ATOM     17  O   UNL     1       0.948  11.110  22.091  0.00  0.00    +0.000 OA
BRANCH  15  18
ATOM     18  C   UNL     1      -2.110  10.231  16.982  0.00  0.00    +0.000 C 
ATOM     19  F   UNL     1      -1.291   9.219  16.594  0.00  0.00    +0.000 F 
ATOM     20  F   UNL     1      -3.266   9.640  17.388  0.00  0.00    +0.000 F 
ATOM     21  F   UNL     1      -2.417  10.923  15.856  0.00  0.00    +0.000 F 
ENDBRANCH  15  18
ENDBRANCH   5   7
BRANCH   1  22
ATOM     22  C   UNL     1       2.610   5.187  19.618  0.00  0.00    +0.000 C 
ATOM     23  C   UNL     1       2.291   4.125  18.521  0.00  0.00    +0.000 C 
ATOM     24  O   UNL     1       3.681   4.056  18.126  0.00  0.00    +0.000 OA
ATOM     25  C   UNL     1       4.071   4.704  19.362  0.00  0.00    +0.000 C 
BRANCH  22  26
ATOM     26  C   UNL     1       2.082   4.831  21.015  0.00  0.00    +0.000 C 
BRANCH  26  27
ATOM     27  C   UNL     1       1.638   3.368  21.088  0.00  0.00    +0.000 C 
BRANCH  27  28
ATOM     28  N   UNL     1       2.480   2.636  22.023  0.00  0.00    +0.000 NA
ATOM     29  H   UNL     1       3.460   2.798  21.788  0.00  0.00    +0.000 HD
ATOM     30  H   UNL     1       2.331   1.634  21.898  0.00  0.00    +0.000 HD
ENDBRANCH  27  28
ENDBRANCH  26  27
ENDBRANCH  22  26
ENDBRANCH   1  22
TORSDOF 6
ENDMDL
MODEL 5
REMARK VINA RESULT:      -7.7      3.683      7.690
REMARK  Name = 
REMARK  6 active torsions:
REMARK  status: ('A' for Active; 'I' for Inactive)
REMARK    1  A    between atoms: N_1  and  C_2
REMARK    2  A    between atoms: C_2  and  C_3
REMARK    3  A    between atoms: C_3  and  C_4
REMARK    4  A    between atoms: C_4  and  C_5
REMARK    5  A    between atoms: C_9  and  N_10
REMARK    6  A    between atoms: C_18  and  C_19
REMARK                            x       y       z     vdW  Elec       q    Type
REMARK                         _______ _______ _______ _____ _____    ______ ____
ROOT
ATOM      1  C   UNL     1       0.998   9.350  19.593  0.00  0.00    +0.000 A 
ATOM      2  C   UNL     1       1.515   9.891  18.399  0.00  0.00    +0.000 A 
ATOM      3  C   UNL     1       2.297   9.139  17.521  0.00  0.00    +0.000 A 
ATOM      4  C   UNL     1       2.682   7.849  17.871  0.00  0.00    +0.000 A 
ATOM      5  C   UNL     1       2.329   7.352  19.128  0.00  0.00    +0.000 A 
ATOM      6  C   UNL     1       1.354   8.018  19.876  0.00  0.00    +0.000 A 
ENDROOT
BRANCH   5   7
ATOM      7  N   UNL     1       3.246   6.487  19.859  0.00  0.00    +0.000 N 
ATOM      8  C   UNL     1       4.458   6.205  19.041  0.00  0.00    +0.000 C 
ATOM      9  C   UNL     1       4.089   4.907  18.391  0.00  0.00    +0.000 A 
ATOM     10  C   UNL     1       3.162   4.268  19.225  0.00  0.00    +0.000 A 
ATOM     11  C   UNL     1       2.511   3.105  18.877  0.00  0.00    +0.000 A 
ATOM     12  C   UNL     1       2.802   2.584  17.624  0.00  0.00    +0.000 A 
ATOM     13  F   UNL     1       2.140   1.504  17.194  0.00  0.00    +0.000 F 
ATOM     14  C   UNL     1       3.712   3.212  16.756  0.00  0.00    +0.000 A 
ATOM     15  C   UNL     1       4.378   4.397  17.129  0.00  0.00    +0.000 A 
ATOM     16  C   UNL     1       2.733   5.239  20.252  0.00  0.00    +0.000 C 
ATOM     17  O   UNL     1       1.919   4.999  21.127  0.00  0.00    +0.000 OA
BRANCH  15  18
ATOM     18  C   UNL     1       5.257   5.095  16.118  0.00  0.00    +0.000 C 
ATOM     19  F   UNL     1       5.363   4.438  14.934  0.00  0.00    +0.000 F 
ATOM     20  F   UNL     1       4.792   6.336  15.816  0.00  0.00    +0.000 F 
ATOM     21  F   UNL     1       6.525   5.267  16.571  0.00  0.00    +0.000 F 
ENDBRANCH  15  18
ENDBRANCH   5   7
BRANCH   1  22
ATOM     22  C   UNL     1       0.123  10.221  20.624  0.00  0.00    +0.000 C 
ATOM     23  C   UNL     1       0.682  11.600  21.093  0.00  0.00    +0.000 C 
ATOM     24  O   UNL     1      -0.154  12.306  20.146  0.00  0.00    +0.000 OA
ATOM     25  C   UNL     1      -0.973  11.123  19.976  0.00  0.00    +0.000 C 
BRANCH  22  26
ATOM     26  C   UNL     1      -0.405   9.334  21.760  0.00  0.00    +0.000 C 
BRANCH  26  27
ATOM     27  C   UNL     1      -0.588  10.131  23.053  0.00  0.00    +0.000 C 
BRANCH  27  28
ATOM     28  N   UNL     1       0.226   9.556  24.115  0.00  0.00    +0.000 NA
ATOM     29  H   UNL     1       0.903  10.252  24.430  0.00  0.00    +0.000 HD
ATOM     30  H   UNL     1       0.780   8.787  23.737  0.00  0.00    +0.000 HD
ENDBRANCH  27  28
ENDBRANCH  26  27
ENDBRANCH  22  26
ENDBRANCH   1  22
TORSDOF 6
ENDMDL
MODEL 6
REMARK VINA RESULT:      -7.6      1.217      1.586
REMARK  Name = 
REMARK  6 active torsions:
REMARK  status: ('A' for Active; 'I' for Inactive)
REMARK    1  A    between atoms: N_1  and  C_2
REMARK    2  A    between atoms: C_2  and  C_3
REMARK    3  A    between atoms: C_3  and  C_4
REMARK    4  A    between atoms: C_4  and  C_5
REMARK    5  A    between atoms: C_9  and  N_10
REMARK    6  A    between atoms: C_18  and  C_19
REMARK                            x       y       z     vdW  Elec       q    Type
REMARK                         _______ _______ _______ _____ _____    ______ ____
ROOT
ATOM      1  C   UNL     1       2.505   5.903  18.985  0.00  0.00    +0.000 A 
ATOM      2  C   UNL     1       2.584   6.677  17.811  0.00  0.00    +0.000 A 
ATOM      3  C   UNL     1       2.434   8.065  17.826  0.00  0.00    +0.000 A 
ATOM      4  C   UNL     1       2.087   8.709  19.008  0.00  0.00    +0.000 A 
ATOM      5  C   UNL     1       1.831   7.945  20.149  0.00  0.00    +0.000 A 
ATOM      6  C   UNL     1       2.221   6.602  20.172  0.00  0.00    +0.000 A 
ENDROOT
BRANCH   5   7
ATOM      7  N   UNL     1       0.785   8.346  21.081  0.00  0.00    +0.000 N 
ATOM      8  C   UNL     1      -0.489   8.601  20.355  0.00  0.00    +0.000 C 
ATOM      9  C   UNL     1      -0.417  10.081  20.130  0.00  0.00    +0.000 A 
ATOM     10  C   UNL     1       0.391  10.620  21.140  0.00  0.00    +0.000 A 
ATOM     11  C   UNL     1       0.778  11.942  21.170  0.00  0.00    +0.000 A 
ATOM     12  C   UNL     1       0.339  12.740  20.121  0.00  0.00    +0.000 A 
ATOM     13  F   UNL     1       0.750  14.010  20.049  0.00  0.00    +0.000 F 
ATOM     14  C   UNL     1      -0.457  12.224  19.084  0.00  0.00    +0.000 A 
ATOM     15  C   UNL     1      -0.852  10.870  19.070  0.00  0.00    +0.000 A 
ATOM     16  C   UNL     1       1.049   9.499  21.841  0.00  0.00    +0.000 C 
ATOM     17  O   UNL     1       1.829   9.631  22.767  0.00  0.00    +0.000 OA
BRANCH  15  18
ATOM     18  C   UNL     1      -1.609  10.338  17.877  0.00  0.00    +0.000 C 
ATOM     19  F   UNL     1      -2.743   9.664  18.200  0.00  0.00    +0.000 F 
ATOM     20  F   UNL     1      -1.995  11.337  17.038  0.00  0.00    +0.000 F 
ATOM     21  F   UNL     1      -0.861   9.487  17.130  0.00  0.00    +0.000 F 
ENDBRANCH  15  18
ENDBRANCH   5   7
BRANCH   1  22
ATOM     22  C   UNL     1       2.644   4.300  18.969  0.00  0.00    +0.000 C 
ATOM     23  C   UNL     1       1.401   3.442  19.357  0.00  0.00    +0.000 C 
ATOM     24  O   UNL     1       1.084   3.197  17.967  0.00  0.00    +0.000 OA
ATOM     25  C   UNL     1       2.415   3.622  17.582  0.00  0.00    +0.000 C 
BRANCH  22  26
ATOM     26  C   UNL     1       3.949   3.869  19.655  0.00  0.00    +0.000 C 
BRANCH  26  27
ATOM     27  C   UNL     1       3.869   2.423  20.148  0.00  0.00    +0.000 C 
BRANCH  27  28
ATOM     28  N   UNL     1       5.182   1.798  20.075  0.00  0.00    +0.000 NA
ATOM     29  H   UNL     1       5.095   0.889  19.619  0.00  0.00    +0.000 HD
ATOM     30  H   UNL     1       5.515   1.599  21.019  0.00  0.00    +0.000 HD
ENDBRANCH  27  28
ENDBRANCH  26  27
ENDBRANCH  22  26
ENDBRANCH   1  22
TORSDOF 6
ENDMDL
MODEL 7
REMARK VINA RESULT:      -7.6      3.712      7.853
REMARK  Name = 
REMARK  6 active torsions:
REMARK  status: ('A' for Active; 'I' for Inactive)
REMARK    1  A    between atoms: N_1  and  C_2
REMARK    2  A    between atoms: C_2  and  C_3
REMARK    3  A    between atoms: C_3  and  C_4
REMARK    4  A    between atoms: C_4  and  C_5
REMARK    5  A    between atoms: C_9  and  N_10
REMARK    6  A    between atoms: C_18  and  C_19
REMARK                            x       y       z     vdW  Elec       q    Type
REMARK                         _______ _______ _______ _____ _____    ______ ____
ROOT
ATOM      1  C   UNL     1       0.769   9.471  19.604  0.00  0.00    +0.000 A 
ATOM      2  C   UNL     1       0.621   8.801  20.835  0.00  0.00    +0.000 A 
ATOM      3  C   UNL     1       1.374   7.672  21.160  0.00  0.00    +0.000 A 
ATOM      4  C   UNL     1       2.221   7.111  20.211  0.00  0.00    +0.000 A 
ATOM      5  C   UNL     1       2.254   7.652  18.924  0.00  0.00    +0.000 A 
ATOM      6  C   UNL     1       1.687   8.910  18.698  0.00  0.00    +0.000 A 
ENDROOT
BRANCH   5   7
ATOM      7  N   UNL     1       2.415   6.782  17.766  0.00  0.00    +0.000 N 
ATOM      8  C   UNL     1       1.530   5.590  17.885  0.00  0.00    +0.000 C 
ATOM      9  C   UNL     1       2.457   4.586  18.501  0.00  0.00    +0.000 A 
ATOM     10  C   UNL     1       3.763   4.945  18.143  0.00  0.00    +0.000 A 
ATOM     11  C   UNL     1       4.881   4.313  18.640  0.00  0.00    +0.000 A 
ATOM     12  C   UNL     1       4.659   3.288  19.550  0.00  0.00    +0.000 A 
ATOM     13  F   UNL     1       5.706   2.692  20.133  0.00  0.00    +0.000 F 
ATOM     14  C   UNL     1       3.362   2.918  19.944  0.00  0.00    +0.000 A 
ATOM     15  C   UNL     1       2.226   3.568  19.420  0.00  0.00    +0.000 A 
ATOM     16  C   UNL     1       3.714   6.293  17.541  0.00  0.00    +0.000 C 
ATOM     17  O   UNL     1       4.689   6.900  17.134  0.00  0.00    +0.000 OA
BRANCH  15  18
ATOM     18  C   UNL     1       0.861   3.212  19.960  0.00  0.00    +0.000 C 
ATOM     19  F   UNL     1       0.065   2.573  19.065  0.00  0.00    +0.000 F 
ATOM     20  F   UNL     1       0.945   2.388  21.039  0.00  0.00    +0.000 F 
ATOM     21  F   UNL     1       0.169   4.304  20.372  0.00  0.00    +0.000 F 
ENDBRANCH  15  18
ENDBRANCH   5   7
BRANCH   1  22
ATOM     22  C   UNL     1      -0.120  10.753  19.211  0.00  0.00    +0.000 C 
ATOM     23  C   UNL     1      -0.715  11.626  20.358  0.00  0.00    +0.000 C 
ATOM     24  O   UNL     1       0.342  12.604  20.216  0.00  0.00    +0.000 OA
ATOM     25  C   UNL     1       0.682  12.059  18.918  0.00  0.00    +0.000 C 
BRANCH  22  26
ATOM     26  C   UNL     1      -1.124  10.389  18.108  0.00  0.00    +0.000 C 
BRANCH  26  27
ATOM     27  C   UNL     1      -1.948  11.605  17.680  0.00  0.00    +0.000 C 
BRANCH  27  28
ATOM     28  N   UNL     1      -2.306  11.496  16.272  0.00  0.00    +0.000 NA
ATOM     29  H   UNL     1      -1.614  10.918  15.796  0.00  0.00    +0.000 HD
ATOM     30  H   UNL     1      -2.242  12.416  15.836  0.00  0.00    +0.000 HD
ENDBRANCH  27  28
ENDBRANCH  26  27
ENDBRANCH  22  26
ENDBRANCH   1  22
TORSDOF 6
ENDMDL
MODEL 8
REMARK VINA RESULT:      -7.6      4.094      8.067
REMARK  Name = 
REMARK  6 active torsions:
REMARK  status: ('A' for Active; 'I' for Inactive)
REMARK    1  A    between atoms: N_1  and  C_2
REMARK    2  A    between atoms: C_2  and  C_3
REMARK    3  A    between atoms: C_3  and  C_4
REMARK    4  A    between atoms: C_4  and  C_5
REMARK    5  A    between atoms: C_9  and  N_10
REMARK    6  A    between atoms: C_18  and  C_19
REMARK                            x       y       z     vdW  Elec       q    Type
REMARK                         _______ _______ _______ _____ _____    ______ ____
ROOT
ATOM      1  C   UNL     1       1.582   8.609  19.339  0.00  0.00    +0.000 A 
ATOM      2  C   UNL     1       2.209   9.252  18.253  0.00  0.00    +0.000 A 
ATOM      3  C   UNL     1       2.958   8.550  17.308  0.00  0.00    +0.000 A 
ATOM      4  C   UNL     1       3.196   7.192  17.485  0.00  0.00    +0.000 A 
ATOM      5  C   UNL     1       2.733   6.566  18.645  0.00  0.00    +0.000 A 
ATOM      6  C   UNL     1       1.790   7.222  19.444  0.00  0.00    +0.000 A 
ENDROOT
BRANCH   5   7
ATOM      7  N   UNL     1       3.523   5.519  19.279  0.00  0.00    +0.000 N 
ATOM      8  C   UNL     1       4.943   5.944  19.407  0.00  0.00    +0.000 C 
ATOM      9  C   UNL     1       5.548   5.356  18.169  0.00  0.00    +0.000 A 
ATOM     10  C   UNL     1       4.768   4.250  17.806  0.00  0.00    +0.000 A 
ATOM     11  C   UNL     1       4.960   3.542  16.640  0.00  0.00    +0.000 A 
ATOM     12  C   UNL     1       5.975   3.990  15.804  0.00  0.00    +0.000 A 
ATOM     13  F   UNL     1       6.156   3.397  14.618  0.00  0.00    +0.000 F 
ATOM     14  C   UNL     1       6.761   5.107  16.131  0.00  0.00    +0.000 A 
ATOM     15  C   UNL     1       6.559   5.818  17.332  0.00  0.00    +0.000 A 
ATOM     16  C   UNL     1       3.537   4.276  18.621  0.00  0.00    +0.000 C 
ATOM     17  O   UNL     1       2.640   3.455  18.539  0.00  0.00    +0.000 OA
BRANCH  15  18
ATOM     18  C   UNL     1       7.352   7.078  17.583  0.00  0.00    +0.000 C 
ATOM     19  F   UNL     1       8.188   7.413  16.567  0.00  0.00    +0.000 F 
ATOM     20  F   UNL     1       6.543   8.155  17.770  0.00  0.00    +0.000 F 
ATOM     21  F   UNL     1       8.123   6.988  18.696  0.00  0.00    +0.000 F 
ENDBRANCH  15  18
ENDBRANCH   5   7
BRANCH   1  22
ATOM     22  C   UNL     1       0.745   9.417  20.450  0.00  0.00    +0.000 C 
ATOM     23  C   UNL     1       1.114  10.909  20.720  0.00  0.00    +0.000 C 
ATOM     24  O   UNL     1       0.020  11.371  19.893  0.00  0.00    +0.000 OA
ATOM     25  C   UNL     1      -0.588  10.057  19.950  0.00  0.00    +0.000 C 
BRANCH  22  26
ATOM     26  C   UNL     1       0.580   8.567  21.718  0.00  0.00    +0.000 C 
BRANCH  26  27
ATOM     27  C   UNL     1      -0.473   9.161  22.655  0.00  0.00    +0.000 C 
BRANCH  27  28
ATOM     28  N   UNL     1       0.157   9.622  23.885  0.00  0.00    +0.000 NA
ATOM     29  H   UNL     1       0.097  10.640  23.931  0.00  0.00    +0.000 HD
ATOM     30  H   UNL     1       1.154   9.407  23.856  0.00  0.00    +0.000 HD
ENDBRANCH  27  28
ENDBRANCH  26  27
ENDBRANCH  22  26
ENDBRANCH   1  22
TORSDOF 6
ENDMDL
MODEL 9
REMARK VINA RESULT:      -7.5      3.718      7.891
REMARK  Name = 
REMARK  6 active torsions:
REMARK  status: ('A' for Active; 'I' for Inactive)
REMARK    1  A    between atoms: N_1  and  C_2
REMARK    2  A    between atoms: C_2  and  C_3
REMARK    3  A    between atoms: C_3  and  C_4
REMARK    4  A    between atoms: C_4  and  C_5
REMARK    5  A    between atoms: C_9  and  N_10
REMARK    6  A    between atoms: C_18  and  C_19
REMARK                            x       y       z     vdW  Elec       q    Type
REMARK                         _______ _______ _______ _____ _____    ______ ____
ROOT
ATOM      1  C   UNL     1       1.050   9.407  19.294  0.00  0.00    +0.000 A 
ATOM      2  C   UNL     1       1.751   9.848  18.155  0.00  0.00    +0.000 A 
ATOM      3  C   UNL     1       2.577   8.998  17.418  0.00  0.00    +0.000 A 
ATOM      4  C   UNL     1       2.815   7.705  17.868  0.00  0.00    +0.000 A 
ATOM      5  C   UNL     1       2.272   7.299  19.089  0.00  0.00    +0.000 A 
ATOM      6  C   UNL     1       1.264   8.070  19.677  0.00  0.00    +0.000 A 
ENDROOT
BRANCH   5   7
ATOM      7  N   UNL     1       3.022   6.411  19.968  0.00  0.00    +0.000 N 
ATOM      8  C   UNL     1       4.341   6.076  19.365  0.00  0.00    +0.000 C 
ATOM      9  C   UNL     1       4.037   4.784  18.670  0.00  0.00    +0.000 A 
ATOM     10  C   UNL     1       2.962   4.189  19.342  0.00  0.00    +0.000 A 
ATOM     11  C   UNL     1       2.334   3.046  18.897  0.00  0.00    +0.000 A 
ATOM     12  C   UNL     1       2.811   2.500  17.712  0.00  0.00    +0.000 A 
ATOM     13  F   UNL     1       2.190   1.439  17.184  0.00  0.00    +0.000 F 
ATOM     14  C   UNL     1       3.875   3.084  17.005  0.00  0.00    +0.000 A 
ATOM     15  C   UNL     1       4.513   4.250  17.477  0.00  0.00    +0.000 A 
ATOM     16  C   UNL     1       2.403   5.186  20.277  0.00  0.00    +0.000 C 
ATOM     17  O   UNL     1       1.447   4.986  21.005  0.00  0.00    +0.000 OA
BRANCH  15  18
ATOM     18  C   UNL     1       5.574   4.903  16.623  0.00  0.00    +0.000 C 
ATOM     19  F   UNL     1       6.732   5.160  17.285  0.00  0.00    +0.000 F 
ATOM     20  F   UNL     1       5.916   4.126  15.561  0.00  0.00    +0.000 F 
ATOM     21  F   UNL     1       5.161   6.088  16.106  0.00  0.00    +0.000 F 
ENDBRANCH  15  18
ENDBRANCH   5   7
BRANCH   1  22
ATOM     22  C   UNL     1       0.122  10.390  20.167  0.00  0.00    +0.000 C 
ATOM     23  C   UNL     1      -0.259   9.961  21.617  0.00  0.00    +0.000 C 
ATOM     24  O   UNL     1       0.770  10.808  22.181  0.00  0.00    +0.000 OA
ATOM     25  C   UNL     1       0.878  11.524  20.927  0.00  0.00    +0.000 C 
BRANCH  22  26
ATOM     26  C   UNL     1      -1.059  10.897  19.326  0.00  0.00    +0.000 C 
BRANCH  26  27
ATOM     27  C   UNL     1      -0.814  12.319  18.819  0.00  0.00    +0.000 C 
BRANCH  27  28
ATOM     28  N   UNL     1      -1.353  12.471  17.475  0.00  0.00    +0.000 NA
ATOM     29  H   UNL     1      -2.029  11.727  17.300  0.00  0.00    +0.000 HD
ATOM     30  H   UNL     1      -0.607  12.328  16.793  0.00  0.00    +0.000 HD
ENDBRANCH  27  28
ENDBRANCH  26  27
ENDBRANCH  22  26
ENDBRANCH   1  22
TORSDOF 6
ENDMDL
