MODEL 1
REMARK VINA RESULT:      -7.2      0.000      0.000
REMARK  Name = 
REMARK  6 active torsions:
REMARK  status: ('A' for Active; 'I' for Inactive)
REMARK    1  A    between atoms: C_1  and  C_2
REMARK    2  A    between atoms: C_5  and  C_6
REMARK    3  A    between atoms: C_7  and  N_8
REMARK    4  A    between atoms: C_10  and  C_11
REMARK    5  A    between atoms: C_13  and  C_14
REMARK    6  A    between atoms: C_19  and  C_20
REMARK                            x       y       z     vdW  Elec       q    Type
REMARK                         _______ _______ _______ _____ _____    ______ ____
ROOT
ATOM      1  N   UNL     1       4.844   5.851  18.359  0.00  0.00    +0.000 N 
ATOM      2  C   UNL     1       4.574   6.553  17.095  0.00  0.00    +0.000 C 
ATOM      3  C   UNL     1       5.936   6.725  16.409  0.00  0.00    +0.000 C 
ATOM      4  C   UNL     1       6.963   6.584  17.544  0.00  0.00    +0.000 C 
ATOM      5  C   UNL     1       6.282   5.608  18.524  0.00  0.00    +0.000 C 
ENDROOT
BRANCH   1  12
ATOM      6  C   UNL     1       3.784   1.143  18.267  0.00  0.00    +0.000 C 
ATOM      7  C   UNL     1       3.456   2.544  18.691  0.00  0.00    +0.000 A 
ATOM      8  C   UNL     1       2.285   2.805  19.388  0.00  0.00    +0.000 A 
ATOM      9  N   UNL     1       1.937   4.046  19.774  0.00  0.00    +0.000 NA
ATOM     10  C   UNL     1       2.794   5.041  19.416  0.00  0.00    +0.000 A 
ATOM     11  C   UNL     1       2.357   6.428  19.780  0.00  0.00    +0.000 C 
ATOM     12  C   UNL     1       4.000   4.801  18.722  0.00  0.00    +0.000 A 
ATOM     13  N   UNL     1       4.335   3.532  18.375  0.00  0.00    +0.000 NA
ENDBRANCH   1  12
BRANCH   3  14
ATOM     14  C   UNL     1       6.122   5.733  15.302  0.00  0.00    +0.000 A 
ATOM     15  N   UNL     1       5.187   4.990  14.747  0.00  0.00    +0.000 NA
ATOM     16  C   UNL     1       5.887   4.192  13.876  0.00  0.00    +0.000 A 
ATOM     17  N   UNL     1       7.199   4.439  13.826  0.00  0.00    +0.000 NA
ATOM     18  N   UNL     1       7.334   5.379  14.774  0.00  0.00    +0.000 N 
ATOM     19  H   UNL     1       8.264   5.696  15.032  0.00  0.00    +0.000 HD
BRANCH  16  20
ATOM     20  C   UNL     1       5.252   3.072  13.068  0.00  0.00    +0.000 C 
ATOM     21  C   UNL     1       5.895   2.628  11.771  0.00  0.00    +0.000 C 
ATOM     22  C   UNL     1       4.639   3.427  11.726  0.00  0.00    +0.000 C 
ENDBRANCH  16  20
ENDBRANCH   3  14
BRANCH   4  23
ATOM     23  C   UNL     1       7.253   7.908  18.231  0.00  0.00    +0.000 C 
ATOM     24  C   UNL     1       7.980   9.022  17.520  0.00  0.00    +0.000 C 
ATOM     25  C   UNL     1       8.677   8.251  18.605  0.00  0.00    +0.000 C 
ENDBRANCH   4  23
TORSDOF 4
ENDMDL
MODEL 2
REMARK VINA RESULT:      -7.0      2.296      7.302
REMARK  Name = 
REMARK  6 active torsions:
REMARK  status: ('A' for Active; 'I' for Inactive)
REMARK    1  A    between atoms: C_1  and  C_2
REMARK    2  A    between atoms: C_5  and  C_6
REMARK    3  A    between atoms: C_7  and  N_8
REMARK    4  A    between atoms: C_10  and  C_11
REMARK    5  A    between atoms: C_13  and  C_14
REMARK    6  A    between atoms: C_19  and  C_20
REMARK                            x       y       z     vdW  Elec       q    Type
REMARK                         _______ _______ _______ _____ _____    ______ ____
ROOT
ATOM      1  N   UNL     1       4.558   4.746  18.150  0.00  0.00    +0.000 N 
ATOM      2  C   UNL     1       3.200   5.057  17.679  0.00  0.00    +0.000 C 
ATOM      3  C   UNL     1       2.365   5.318  18.940  0.00  0.00    +0.000 C 
ATOM      4  C   UNL     1       3.149   4.635  20.072  0.00  0.00    +0.000 C 
ATOM      5  C   UNL     1       4.616   4.759  19.617  0.00  0.00    +0.000 C 
ENDROOT
BRANCH   1  12
ATOM      6  C   UNL     1       7.748   8.351  17.790  0.00  0.00    +0.000 C 
ATOM      7  C   UNL     1       7.180   7.058  17.282  0.00  0.00    +0.000 A 
ATOM      8  C   UNL     1       7.681   6.484  16.124  0.00  0.00    +0.000 A 
ATOM      9  N   UNL     1       7.193   5.337  15.617  0.00  0.00    +0.000 NA
ATOM     10  C   UNL     1       6.155   4.782  16.299  0.00  0.00    +0.000 A 
ATOM     11  C   UNL     1       5.565   3.549  15.683  0.00  0.00    +0.000 C 
ATOM     12  C   UNL     1       5.635   5.337  17.490  0.00  0.00    +0.000 A 
ATOM     13  N   UNL     1       6.173   6.479  17.989  0.00  0.00    +0.000 NA
ENDBRANCH   1  12
BRANCH   3  14
ATOM     14  C   UNL     1       2.144   6.783  19.159  0.00  0.00    +0.000 A 
ATOM     15  N   UNL     1       1.730   7.358  20.270  0.00  0.00    +0.000 NA
ATOM     16  C   UNL     1       1.594   8.677  19.915  0.00  0.00    +0.000 A 
ATOM     17  N   UNL     1       1.951   8.957  18.659  0.00  0.00    +0.000 NA
ATOM     18  N   UNL     1       2.243   7.737  18.182  0.00  0.00    +0.000 N 
ATOM     19  H   UNL     1       2.458   7.626  17.196  0.00  0.00    +0.000 HD
BRANCH  16  20
ATOM     20  C   UNL     1       1.028   9.742  20.842  0.00  0.00    +0.000 C 
ATOM     21  C   UNL     1       0.086   9.339  21.957  0.00  0.00    +0.000 C 
ATOM     22  C   UNL     1      -0.459  10.034  20.758  0.00  0.00    +0.000 C 
ENDBRANCH  16  20
ENDBRANCH   3  14
BRANCH   4  23
ATOM     23  C   UNL     1       2.768   3.174  20.242  0.00  0.00    +0.000 C 
ATOM     24  C   UNL     1       1.329   2.724  20.195  0.00  0.00    +0.000 C 
ATOM     25  C   UNL     1       2.064   2.735  21.506  0.00  0.00    +0.000 C 
ENDBRANCH   4  23
TORSDOF 4
ENDMDL
MODEL 3
REMARK VINA RESULT:      -7.0      2.117      6.745
REMARK  Name = 
REMARK  6 active torsions:
REMARK  status: ('A' for Active; 'I' for Inactive)
REMARK    1  A    between atoms: C_1  and  C_2
REMARK    2  A    between atoms: C_5  and  C_6
REMARK    3  A    between atoms: C_7  and  N_8
REMARK    4  A    between atoms: C_10  and  C_11
REMARK    5  A    between atoms: C_13  and  C_14
REMARK    6  A    between atoms: C_19  and  C_20
REMARK                            x       y       z     vdW  Elec       q    Type
REMARK                         _______ _______ _______ _____ _____    ______ ____
ROOT
ATOM      1  N   UNL     1       4.420   4.041  17.629  0.00  0.00    +0.000 N 
ATOM      2  C   UNL     1       3.008   4.396  17.427  0.00  0.00    +0.000 C 
ATOM      3  C   UNL     1       2.509   4.931  18.776  0.00  0.00    +0.000 C 
ATOM      4  C   UNL     1       3.502   4.369  19.807  0.00  0.00    +0.000 C 
ATOM      5  C   UNL     1       4.824   4.282  19.019  0.00  0.00    +0.000 C 
ENDROOT
BRANCH   1  12
ATOM      6  C   UNL     1       6.129   3.599  13.137  0.00  0.00    +0.000 C 
ATOM      7  C   UNL     1       6.193   4.224  14.500  0.00  0.00    +0.000 A 
ATOM      8  C   UNL     1       7.203   5.124  14.807  0.00  0.00    +0.000 A 
ATOM      9  N   UNL     1       7.315   5.696  16.019  0.00  0.00    +0.000 NA
ATOM     10  C   UNL     1       6.388   5.318  16.941  0.00  0.00    +0.000 A 
ATOM     11  C   UNL     1       6.569   5.898  18.312  0.00  0.00    +0.000 C 
ATOM     12  C   UNL     1       5.340   4.416  16.651  0.00  0.00    +0.000 A 
ATOM     13  N   UNL     1       5.240   3.881  15.407  0.00  0.00    +0.000 NA
ENDBRANCH   1  12
BRANCH   3  14
ATOM     14  C   UNL     1       2.424   6.426  18.776  0.00  0.00    +0.000 A 
ATOM     15  N   UNL     1       1.796   7.177  19.658  0.00  0.00    +0.000 NA
ATOM     16  C   UNL     1       1.931   8.446  19.151  0.00  0.00    +0.000 A 
ATOM     17  N   UNL     1       2.653   8.525  18.030  0.00  0.00    +0.000 NA
ATOM     18  N   UNL     1       2.909   7.231  17.781  0.00  0.00    +0.000 N 
ATOM     19  H   UNL     1       3.372   6.973  16.915  0.00  0.00    +0.000 HD
BRANCH  16  20
ATOM     20  C   UNL     1       1.270   9.671  19.764  0.00  0.00    +0.000 C 
ATOM     21  C   UNL     1       0.065   9.499  20.664  0.00  0.00    +0.000 C 
ATOM     22  C   UNL     1      -0.124  10.036  19.287  0.00  0.00    +0.000 C 
ENDBRANCH  16  20
ENDBRANCH   3  14
BRANCH   4  23
ATOM     23  C   UNL     1       3.096   2.996  20.313  0.00  0.00    +0.000 C 
ATOM     24  C   UNL     1       1.651   2.562  20.344  0.00  0.00    +0.000 C 
ATOM     25  C   UNL     1       2.361   2.879  21.629  0.00  0.00    +0.000 C 
ENDBRANCH   4  23
TORSDOF 4
ENDMDL
MODEL 4
REMARK VINA RESULT:      -6.9      1.789      5.374
REMARK  Name = 
REMARK  6 active torsions:
REMARK  status: ('A' for Active; 'I' for Inactive)
REMARK    1  A    between atoms: C_1  and  C_2
REMARK    2  A    between atoms: C_5  and  C_6
REMARK    3  A    between atoms: C_7  and  N_8
REMARK    4  A    between atoms: C_10  and  C_11
REMARK    5  A    between atoms: C_13  and  C_14
REMARK    6  A    between atoms: C_19  and  C_20
REMARK                            x       y       z     vdW  Elec       q    Type
REMARK                         _______ _______ _______ _____ _____    ______ ____
ROOT
ATOM      1  N   UNL     1       4.877   4.603  17.667  0.00  0.00    +0.000 N 
ATOM      2  C   UNL     1       6.275   4.433  18.094  0.00  0.00    +0.000 C 
ATOM      3  C   UNL     1       7.121   5.235  17.096  0.00  0.00    +0.000 C 
ATOM      4  C   UNL     1       6.221   5.387  15.859  0.00  0.00    +0.000 C 
ATOM      5  C   UNL     1       4.799   5.423  16.453  0.00  0.00    +0.000 C 
ENDROOT
BRANCH   1  12
ATOM      6  C   UNL     1       1.988   7.740  19.927  0.00  0.00    +0.000 C 
ATOM      7  C   UNL     1       2.521   6.347  19.759  0.00  0.00    +0.000 A 
ATOM      8  C   UNL     1       2.109   5.336  20.613  0.00  0.00    +0.000 A 
ATOM      9  N   UNL     1       2.571   4.076  20.516  0.00  0.00    +0.000 NA
ATOM     10  C   UNL     1       3.493   3.857  19.539  0.00  0.00    +0.000 A 
ATOM     11  C   UNL     1       4.062   2.471  19.491  0.00  0.00    +0.000 C 
ATOM     12  C   UNL     1       3.918   4.865  18.645  0.00  0.00    +0.000 A 
ATOM     13  N   UNL     1       3.406   6.118  18.753  0.00  0.00    +0.000 NA
ENDBRANCH   1  12
BRANCH   3  14
ATOM     14  C   UNL     1       7.568   6.540  17.679  0.00  0.00    +0.000 A 
ATOM     15  N   UNL     1       7.458   7.729  17.122  0.00  0.00    +0.000 NA
ATOM     16  C   UNL     1       8.105   8.557  18.006  0.00  0.00    +0.000 A 
ATOM     17  N   UNL     1       8.565   7.951  19.104  0.00  0.00    +0.000 NA
ATOM     18  N   UNL     1       8.263   6.668  18.851  0.00  0.00    +0.000 N 
ATOM     19  H   UNL     1       8.589   5.946  19.487  0.00  0.00    +0.000 HD
BRANCH  16  20
ATOM     20  C   UNL     1       8.345  10.036  17.748  0.00  0.00    +0.000 C 
ATOM     21  C   UNL     1       9.747  10.597  17.862  0.00  0.00    +0.000 C 
ATOM     22  C   UNL     1       8.751  10.902  18.927  0.00  0.00    +0.000 C 
ENDBRANCH  16  20
ENDBRANCH   3  14
BRANCH   4  23
ATOM     23  C   UNL     1       6.362   4.224  14.892  0.00  0.00    +0.000 C 
ATOM     24  C   UNL     1       6.958   4.409  13.518  0.00  0.00    +0.000 C 
ATOM     25  C   UNL     1       5.482   4.170  13.664  0.00  0.00    +0.000 C 
ENDBRANCH   4  23
TORSDOF 4
ENDMDL
MODEL 5
REMARK VINA RESULT:      -6.8      1.596      6.257
REMARK  Name = 
REMARK  6 active torsions:
REMARK  status: ('A' for Active; 'I' for Inactive)
REMARK    1  A    between atoms: C_1  and  C_2
REMARK    2  A    between atoms: C_5  and  C_6
REMARK    3  A    between atoms: C_7  and  N_8
REMARK    4  A    between atoms: C_10  and  C_11
REMARK    5  A    between atoms: C_13  and  C_14
REMARK    6  A    between atoms: C_19  and  C_20
REMARK                            x       y       z     vdW  Elec       q    Type
REMARK                         _______ _______ _______ _____ _____    ______ ____
ROOT
ATOM      1  N   UNL     1       6.568   6.021  16.033  0.00  0.00    +0.000 N 
ATOM      2  C   UNL     1       5.100   6.097  15.976  0.00  0.00    +0.000 C 
ATOM      3  C   UNL     1       4.616   4.675  15.663  0.00  0.00    +0.000 C 
ATOM      4  C   UNL     1       5.838   3.977  15.044  0.00  0.00    +0.000 C 
ATOM      5  C   UNL     1       7.032   4.660  15.740  0.00  0.00    +0.000 C 
ENDROOT
BRANCH   1  12
ATOM      6  C   UNL     1       8.569  10.037  17.813  0.00  0.00    +0.000 C 
ATOM      7  C   UNL     1       8.198   8.590  17.960  0.00  0.00    +0.000 A 
ATOM      8  C   UNL     1       8.560   7.891  19.102  0.00  0.00    +0.000 A 
ATOM      9  N   UNL     1       8.268   6.588  19.273  0.00  0.00    +0.000 NA
ATOM     10  C   UNL     1       7.615   5.987  18.242  0.00  0.00    +0.000 A 
ATOM     11  C   UNL     1       7.367   4.517  18.407  0.00  0.00    +0.000 C 
ATOM     12  C   UNL     1       7.221   6.679  17.076  0.00  0.00    +0.000 A 
ATOM     13  N   UNL     1       7.505   8.001  16.950  0.00  0.00    +0.000 NA
ENDBRANCH   1  12
BRANCH   3  14
ATOM     14  C   UNL     1       4.089   3.992  16.887  0.00  0.00    +0.000 A 
ATOM     15  N   UNL     1       3.359   4.538  17.838  0.00  0.00    +0.000 NA
ATOM     16  C   UNL     1       3.235   3.531  18.763  0.00  0.00    +0.000 A 
ATOM     17  N   UNL     1       3.806   2.376  18.411  0.00  0.00    +0.000 NA
ATOM     18  N   UNL     1       4.387   2.705  17.246  0.00  0.00    +0.000 N 
ATOM     19  H   UNL     1       4.989   2.032  16.782  0.00  0.00    +0.000 HD
BRANCH  16  20
ATOM     20  C   UNL     1       2.560   3.709  20.114  0.00  0.00    +0.000 C 
ATOM     21  C   UNL     1       1.762   2.568  20.708  0.00  0.00    +0.000 C 
ATOM     22  C   UNL     1       1.043   3.746  20.147  0.00  0.00    +0.000 C 
ENDBRANCH  16  20
ENDBRANCH   3  14
BRANCH   4  23
ATOM     23  C   UNL     1       5.919   4.174  13.540  0.00  0.00    +0.000 C 
ATOM     24  C   UNL     1       4.905   3.558  12.609  0.00  0.00    +0.000 C 
ATOM     25  C   UNL     1       6.301   3.006  12.659  0.00  0.00    +0.000 C 
ENDBRANCH   4  23
TORSDOF 4
ENDMDL
MODEL 6
REMARK VINA RESULT:      -6.7      2.368      6.964
REMARK  Name = 
REMARK  6 active torsions:
REMARK  status: ('A' for Active; 'I' for Inactive)
REMARK    1  A    between atoms: C_1  and  C_2
REMARK    2  A    between atoms: C_5  and  C_6
REMARK    3  A    between atoms: C_7  and  N_8
REMARK    4  A    between atoms: C_10  and  C_11
REMARK    5  A    between atoms: C_13  and  C_14
REMARK    6  A    between atoms: C_19  and  C_20
REMARK                            x       y       z     vdW  Elec       q    Type
REMARK                         _______ _______ _______ _____ _____    ______ ____
ROOT
ATOM      1  N   UNL     1       4.719   4.615  18.136  0.00  0.00    +0.000 N 
ATOM      2  C   UNL     1       3.344   4.818  17.654  0.00  0.00    +0.000 C 
ATOM      3  C   UNL     1       2.487   5.043  18.907  0.00  0.00    +0.000 C 
ATOM      4  C   UNL     1       3.313   4.441  20.056  0.00  0.00    +0.000 C 
ATOM      5  C   UNL     1       4.770   4.661  19.602  0.00  0.00    +0.000 C 
ENDROOT
BRANCH   1  12
ATOM      6  C   UNL     1       7.792   8.324  17.836  0.00  0.00    +0.000 C 
ATOM      7  C   UNL     1       7.241   7.041  17.287  0.00  0.00    +0.000 A 
ATOM      8  C   UNL     1       7.715   6.537  16.084  0.00  0.00    +0.000 A 
ATOM      9  N   UNL     1       7.240   5.402  15.541  0.00  0.00    +0.000 NA
ATOM     10  C   UNL     1       6.243   4.785  16.232  0.00  0.00    +0.000 A 
ATOM     11  C   UNL     1       5.665   3.566  15.578  0.00  0.00    +0.000 C 
ATOM     12  C   UNL     1       5.754   5.267  17.466  0.00  0.00    +0.000 A 
ATOM     13  N   UNL     1       6.278   6.400  18.001  0.00  0.00    +0.000 NA
ENDBRANCH   1  12
BRANCH   3  14
ATOM     14  C   UNL     1       2.161   6.493  19.095  0.00  0.00    +0.000 A 
ATOM     15  N   UNL     1       1.975   7.386  18.145  0.00  0.00    +0.000 NA
ATOM     16  C   UNL     1       1.812   8.561  18.838  0.00  0.00    +0.000 A 
ATOM     17  N   UNL     1       1.838   8.432  20.167  0.00  0.00    +0.000 NA
ATOM     18  N   UNL     1       2.113   7.126  20.308  0.00  0.00    +0.000 N 
ATOM     19  H   UNL     1       2.292   6.752  21.235  0.00  0.00    +0.000 HD
BRANCH  16  20
ATOM     20  C   UNL     1       1.675   9.919  18.168  0.00  0.00    +0.000 C 
ATOM     21  C   UNL     1       1.343  11.135  19.006  0.00  0.00    +0.000 C 
ATOM     22  C   UNL     1       0.295  10.549  18.124  0.00  0.00    +0.000 C 
ENDBRANCH  16  20
ENDBRANCH   3  14
BRANCH   4  23
ATOM     23  C   UNL     1       3.038   2.961  20.255  0.00  0.00    +0.000 C 
ATOM     24  C   UNL     1       1.652   2.389  20.090  0.00  0.00    +0.000 C 
ATOM     25  C   UNL     1       2.249   2.510  21.463  0.00  0.00    +0.000 C 
ENDBRANCH   4  23
TORSDOF 4
ENDMDL
MODEL 7
REMARK VINA RESULT:      -6.4      2.022      5.177
REMARK  Name = 
REMARK  6 active torsions:
REMARK  status: ('A' for Active; 'I' for Inactive)
REMARK    1  A    between atoms: C_1  and  C_2
REMARK    2  A    between atoms: C_5  and  C_6
REMARK    3  A    between atoms: C_7  and  N_8
REMARK    4  A    between atoms: C_10  and  C_11
REMARK    5  A    between atoms: C_13  and  C_14
REMARK    6  A    between atoms: C_19  and  C_20
REMARK                            x       y       z     vdW  Elec       q    Type
REMARK                         _______ _______ _______ _____ _____    ______ ____
ROOT
ATOM      1  N   UNL     1       4.840   4.702  17.760  0.00  0.00    +0.000 N 
ATOM      2  C   UNL     1       6.238   4.521  18.181  0.00  0.00    +0.000 C 
ATOM      3  C   UNL     1       7.089   5.284  17.157  0.00  0.00    +0.000 C 
ATOM      4  C   UNL     1       6.182   5.419  15.922  0.00  0.00    +0.000 C 
ATOM      5  C   UNL     1       4.765   5.492  16.526  0.00  0.00    +0.000 C 
ENDROOT
BRANCH   1  12
ATOM      6  C   UNL     1       2.133   3.300  21.503  0.00  0.00    +0.000 C 
ATOM      7  C   UNL     1       2.570   4.361  20.536  0.00  0.00    +0.000 A 
ATOM      8  C   UNL     1       1.987   5.619  20.572  0.00  0.00    +0.000 A 
ATOM      9  N   UNL     1       2.330   6.598  19.714  0.00  0.00    +0.000 NA
ATOM     10  C   UNL     1       3.271   6.271  18.787  0.00  0.00    +0.000 A 
ATOM     11  C   UNL     1       3.587   7.341  17.785  0.00  0.00    +0.000 C 
ATOM     12  C   UNL     1       3.892   5.003  18.738  0.00  0.00    +0.000 A 
ATOM     13  N   UNL     1       3.543   4.049  19.639  0.00  0.00    +0.000 NA
ENDBRANCH   1  12
BRANCH   3  14
ATOM     14  C   UNL     1       7.561   6.595  17.704  0.00  0.00    +0.000 A 
ATOM     15  N   UNL     1       7.462   7.772  17.119  0.00  0.00    +0.000 NA
ATOM     16  C   UNL     1       8.130   8.612  17.975  0.00  0.00    +0.000 A 
ATOM     17  N   UNL     1       8.592   8.026  19.083  0.00  0.00    +0.000 NA
ATOM     18  N   UNL     1       8.269   6.742  18.866  0.00  0.00    +0.000 N 
ATOM     19  H   UNL     1       8.590   6.030  19.516  0.00  0.00    +0.000 HD
BRANCH  16  20
ATOM     20  C   UNL     1       8.390  10.080  17.679  0.00  0.00    +0.000 C 
ATOM     21  C   UNL     1       9.765  10.662  17.930  0.00  0.00    +0.000 C 
ATOM     22  C   UNL     1       8.649  11.004  18.856  0.00  0.00    +0.000 C 
ENDBRANCH  16  20
ENDBRANCH   3  14
BRANCH   4  23
ATOM     23  C   UNL     1       6.297   4.229  14.985  0.00  0.00    +0.000 C 
ATOM     24  C   UNL     1       6.934   4.359  13.623  0.00  0.00    +0.000 C 
ATOM     25  C   UNL     1       5.447   4.186  13.736  0.00  0.00    +0.000 C 
ENDBRANCH   4  23
TORSDOF 4
ENDMDL
MODEL 8
REMARK VINA RESULT:      -6.4      2.229      6.552
REMARK  Name = 
REMARK  6 active torsions:
REMARK  status: ('A' for Active; 'I' for Inactive)
REMARK    1  A    between atoms: C_1  and  C_2
REMARK    2  A    between atoms: C_5  and  C_6
REMARK    3  A    between atoms: C_7  and  N_8
REMARK    4  A    between atoms: C_10  and  C_11
REMARK    5  A    between atoms: C_13  and  C_14
REMARK    6  A    between atoms: C_19  and  C_20
REMARK                            x       y       z     vdW  Elec       q    Type
REMARK                         _______ _______ _______ _____ _____    ______ ____
ROOT
ATOM      1  N   UNL     1       4.445   3.876  17.674  0.00  0.00    +0.000 N 
ATOM      2  C   UNL     1       3.006   4.137  17.516  0.00  0.00    +0.000 C 
ATOM      3  C   UNL     1       2.500   4.564  18.900  0.00  0.00    +0.000 C 
ATOM      4  C   UNL     1       3.552   4.023  19.882  0.00  0.00    +0.000 C 
ATOM      5  C   UNL     1       4.860   4.074  19.068  0.00  0.00    +0.000 C 
ENDROOT
BRANCH   1  12
ATOM      6  C   UNL     1       6.193   3.688  13.179  0.00  0.00    +0.000 C 
ATOM      7  C   UNL     1       6.183   4.301  14.549  0.00  0.00    +0.000 A 
ATOM      8  C   UNL     1       7.079   5.311  14.867  0.00  0.00    +0.000 A 
ATOM      9  N   UNL     1       7.124   5.879  16.086  0.00  0.00    +0.000 NA
ATOM     10  C   UNL     1       6.248   5.384  17.002  0.00  0.00    +0.000 A 
ATOM     11  C   UNL     1       6.360   5.967  18.379  0.00  0.00    +0.000 C 
ATOM     12  C   UNL     1       5.314   4.368  16.701  0.00  0.00    +0.000 A 
ATOM     13  N   UNL     1       5.277   3.839  15.451  0.00  0.00    +0.000 NA
ENDBRANCH   1  12
BRANCH   3  14
ATOM     14  C   UNL     1       2.307   6.047  18.982  0.00  0.00    +0.000 A 
ATOM     15  N   UNL     1       2.071   6.865  17.976  0.00  0.00    +0.000 NA
ATOM     16  C   UNL     1       2.082   8.106  18.564  0.00  0.00    +0.000 A 
ATOM     17  N   UNL     1       2.261   8.094  19.888  0.00  0.00    +0.000 NA
ATOM     18  N   UNL     1       2.456   6.787  20.123  0.00  0.00    +0.000 N 
ATOM     19  H   UNL     1       2.719   6.483  21.055  0.00  0.00    +0.000 HD
BRANCH  16  20
ATOM     20  C   UNL     1       1.963   9.406  17.785  0.00  0.00    +0.000 C 
ATOM     21  C   UNL     1       1.778  10.710  18.530  0.00  0.00    +0.000 C 
ATOM     22  C   UNL     1       0.623  10.119  17.799  0.00  0.00    +0.000 C 
ENDBRANCH  16  20
ENDBRANCH   3  14
BRANCH   4  23
ATOM     23  C   UNL     1       3.258   2.599  20.322  0.00  0.00    +0.000 C 
ATOM     24  C   UNL     1       1.850   2.057  20.344  0.00  0.00    +0.000 C 
ATOM     25  C   UNL     1       2.552   2.362  21.637  0.00  0.00    +0.000 C 
ENDBRANCH   4  23
TORSDOF 4
ENDMDL
MODEL 9
REMARK VINA RESULT:      -6.4      1.801      5.497
REMARK  Name = 
REMARK  6 active torsions:
REMARK  status: ('A' for Active; 'I' for Inactive)
REMARK    1  A    between atoms: C_1  and  C_2
REMARK    2  A    between atoms: C_5  and  C_6
REMARK    3  A    between atoms: C_7  and  N_8
REMARK    4  A    between atoms: C_10  and  C_11
REMARK    5  A    between atoms: C_13  and  C_14
REMARK    6  A    between atoms: C_19  and  C_20
REMARK                            x       y       z     vdW  Elec       q    Type
REMARK                         _______ _______ _______ _____ _____    ______ ____
ROOT
ATOM      1  N   UNL     1       4.884   4.729  17.669  0.00  0.00    +0.000 N 
ATOM      2  C   UNL     1       6.303   4.746  18.055  0.00  0.00    +0.000 C 
ATOM      3  C   UNL     1       7.042   5.464  16.918  0.00  0.00    +0.000 C 
ATOM      4  C   UNL     1       6.095   5.356  15.712  0.00  0.00    +0.000 C 
ATOM      5  C   UNL     1       4.694   5.354  16.355  0.00  0.00    +0.000 C 
ENDROOT
BRANCH   1  12
ATOM      6  C   UNL     1       1.969   7.974  19.737  0.00  0.00    +0.000 C 
ATOM      7  C   UNL     1       2.526   6.582  19.664  0.00  0.00    +0.000 A 
ATOM      8  C   UNL     1       2.145   5.630  20.597  0.00  0.00    +0.000 A 
ATOM      9  N   UNL     1       2.630   4.374  20.586  0.00  0.00    +0.000 NA
ATOM     10  C   UNL     1       3.542   4.099  19.613  0.00  0.00    +0.000 A 
ATOM     11  C   UNL     1       4.137   2.724  19.658  0.00  0.00    +0.000 C 
ATOM     12  C   UNL     1       3.934   5.046  18.640  0.00  0.00    +0.000 A 
ATOM     13  N   UNL     1       3.401   6.294  18.663  0.00  0.00    +0.000 NA
ENDBRANCH   1  12
BRANCH   3  14
ATOM     14  C   UNL     1       7.384   6.874  17.291  0.00  0.00    +0.000 A 
ATOM     15  N   UNL     1       8.320   7.259  18.134  0.00  0.00    +0.000 NA
ATOM     16  C   UNL     1       8.153   8.620  18.198  0.00  0.00    +0.000 A 
ATOM     17  N   UNL     1       7.196   9.103  17.400  0.00  0.00    +0.000 NA
ATOM     18  N   UNL     1       6.687   7.977  16.876  0.00  0.00    +0.000 N 
ATOM     19  H   UNL     1       5.859   8.030  16.290  0.00  0.00    +0.000 HD
BRANCH  16  20
ATOM     20  C   UNL     1       8.938   9.520  19.139  0.00  0.00    +0.000 C 
ATOM     21  C   UNL     1       8.697  11.015  19.119  0.00  0.00    +0.000 C 
ATOM     22  C   UNL     1       9.951  10.471  18.527  0.00  0.00    +0.000 C 
ENDBRANCH  16  20
ENDBRANCH   3  14
BRANCH   4  23
ATOM     23  C   UNL     1       6.314   4.081  14.915  0.00  0.00    +0.000 C 
ATOM     24  C   UNL     1       6.982   4.103  13.563  0.00  0.00    +0.000 C 
ATOM     25  C   UNL     1       5.506   3.845  13.660  0.00  0.00    +0.000 C 
ENDBRANCH   4  23
TORSDOF 4
ENDMDL
