MODEL 1
REMARK VINA RESULT:      -8.0      0.000      0.000
REMARK  Name = 
REMARK  8 active torsions:
REMARK  status: ('A' for Active; 'I' for Inactive)
REMARK    1  A    between atoms: C_1  and  C_2
REMARK    2  A    between atoms: C_5  and  C_6
REMARK    3  A    between atoms: N_8  and  C_9
REMARK    4  A    between atoms: C_16  and  C_17
REMARK    5  A    between atoms: C_17  and  N_18
REMARK    6  A    between atoms: N_18  and  C_19
REMARK    7  A    between atoms: C_24  and  C_25
REMARK    8  A    between atoms: C_25  and  O_27
REMARK                            x       y       z     vdW  Elec       q    Type
REMARK                         _______ _______ _______ _____ _____    ______ ____
ROOT
ATOM      1  C   UNL     1       3.961   4.917  17.565  0.00  0.00    +0.000 A 
ATOM      2  N   UNL     1       4.471   4.223  16.536  0.00  0.00    +0.000 NA
ATOM      3  N   UNL     1       5.094   5.135  15.746  0.00  0.00    +0.000 N 
ATOM      4  C   UNL     1       4.958   6.405  16.251  0.00  0.00    +0.000 A 
ATOM      5  C   UNL     1       4.204   6.313  17.403  0.00  0.00    +0.000 A 
ENDROOT
BRANCH   1  10
ATOM      6  C   UNL     1       1.142   2.423  21.969  0.00  0.00    +0.000 C 
ATOM      7  C   UNL     1       1.870   3.059  20.824  0.00  0.00    +0.000 A 
ATOM      8  C   UNL     1       3.253   2.932  20.705  0.00  0.00    +0.000 A 
ATOM      9  C   UNL     1       3.922   3.508  19.624  0.00  0.00    +0.000 A 
ATOM     10  C   UNL     1       3.236   4.256  18.655  0.00  0.00    +0.000 A 
ATOM     11  C   UNL     1       1.845   4.367  18.770  0.00  0.00    +0.000 A 
ATOM     12  C   UNL     1       1.169   3.775  19.844  0.00  0.00    +0.000 A 
ENDBRANCH   1  10
BRANCH   3  13
ATOM     13  C   UNL     1       5.770   4.751  14.553  0.00  0.00    +0.000 A 
ATOM     14  C   UNL     1       5.168   3.837  13.677  0.00  0.00    +0.000 A 
ATOM     15  C   UNL     1       5.825   3.453  12.503  0.00  0.00    +0.000 A 
ATOM     16  C   UNL     1       7.077   3.972  12.195  0.00  0.00    +0.000 A 
ATOM     17  C   UNL     1       7.684   4.879  13.062  0.00  0.00    +0.000 A 
ATOM     18  C   UNL     1       7.035   5.272  14.235  0.00  0.00    +0.000 A 
ENDBRANCH   3  13
BRANCH   5  19
ATOM     19  C   UNL     1       3.725   7.450  18.233  0.00  0.00    +0.000 C 
BRANCH  19  20
ATOM     20  N   UNL     1       2.297   7.629  17.977  0.00  0.00    +0.000 NA
ATOM     21  H   UNL     1       1.774   7.293  18.779  0.00  0.00    +0.000 HD
BRANCH  20  22
ATOM     22  C   UNL     1       2.011   9.011  17.544  0.00  0.00    +0.000 C 
ATOM     23  C   UNL     1       2.210  10.028  18.693  0.00  0.00    +0.000 C 
ATOM     24  C   UNL     1       0.807   9.715  19.067  0.00  0.00    +0.000 C 
ATOM     25  C   UNL     1       0.485   9.266  17.685  0.00  0.00    +0.000 C 
ATOM     26  C   UNL     1      -0.042  10.488  20.013  0.00  0.00    +0.000 C 
ATOM     27  C   UNL     1       0.326   9.052  20.333  0.00  0.00    +0.000 C 
BRANCH  27  28
ATOM     28  C   UNL     1       1.288   8.731  21.421  0.00  0.00    +0.000 C 
ATOM     29  O   UNL     1       1.478   9.460  22.382  0.00  0.00    +0.000 OA
BRANCH  28  30
ATOM     30  O   UNL     1       1.972   7.581  21.219  0.00  0.00    +0.000 OA
ATOM     31  H   UNL     1       2.205   7.114  22.043  0.00  0.00    +0.000 HD
ENDBRANCH  28  30
ENDBRANCH  27  28
ENDBRANCH  20  22
ENDBRANCH  19  20
ENDBRANCH   5  19
TORSDOF 7
ENDMDL
MODEL 2
REMARK VINA RESULT:      -7.9      3.835      6.823
REMARK  Name = 
REMARK  8 active torsions:
REMARK  status: ('A' for Active; 'I' for Inactive)
REMARK    1  A    between atoms: C_1  and  C_2
REMARK    2  A    between atoms: C_5  and  C_6
REMARK    3  A    between atoms: N_8  and  C_9
REMARK    4  A    between atoms: C_16  and  C_17
REMARK    5  A    between atoms: C_17  and  N_18
REMARK    6  A    between atoms: N_18  and  C_19
REMARK    7  A    between atoms: C_24  and  C_25
REMARK    8  A    between atoms: C_25  and  O_27
REMARK                            x       y       z     vdW  Elec       q    Type
REMARK                         _______ _______ _______ _____ _____    ______ ____
ROOT
ATOM      1  C   UNL     1       7.313   6.346  16.819  0.00  0.00    +0.000 A 
ATOM      2  N   UNL     1       7.588   7.658  16.746  0.00  0.00    +0.000 NA
ATOM      3  N   UNL     1       8.041   8.010  17.977  0.00  0.00    +0.000 N 
ATOM      4  C   UNL     1       8.029   6.940  18.836  0.00  0.00    +0.000 A 
ATOM      5  C   UNL     1       7.532   5.857  18.141  0.00  0.00    +0.000 A 
ENDROOT
BRANCH   1  10
ATOM      6  C   UNL     1       5.456   3.250  12.289  0.00  0.00    +0.000 C 
ATOM      7  C   UNL     1       5.934   4.060  13.456  0.00  0.00    +0.000 A 
ATOM      8  C   UNL     1       7.256   4.496  13.522  0.00  0.00    +0.000 A 
ATOM      9  C   UNL     1       7.689   5.269  14.601  0.00  0.00    +0.000 A 
ATOM     10  C   UNL     1       6.826   5.595  15.657  0.00  0.00    +0.000 A 
ATOM     11  C   UNL     1       5.495   5.170  15.578  0.00  0.00    +0.000 A 
ATOM     12  C   UNL     1       5.053   4.409  14.489  0.00  0.00    +0.000 A 
ENDBRANCH   1  10
BRANCH   3  13
ATOM     13  C   UNL     1       8.448   9.344  18.267  0.00  0.00    +0.000 A 
ATOM     14  C   UNL     1       8.028  10.394  17.439  0.00  0.00    +0.000 A 
ATOM     15  C   UNL     1       8.424  11.707  17.715  0.00  0.00    +0.000 A 
ATOM     16  C   UNL     1       9.232  11.983  18.812  0.00  0.00    +0.000 A 
ATOM     17  C   UNL     1       9.655  10.945  19.640  0.00  0.00    +0.000 A 
ATOM     18  C   UNL     1       9.264   9.630  19.375  0.00  0.00    +0.000 A 
ENDBRANCH   3  13
BRANCH   5  19
ATOM     19  C   UNL     1       7.251   4.508  18.700  0.00  0.00    +0.000 C 
BRANCH  19  20
ATOM     20  N   UNL     1       5.825   4.235  18.531  0.00  0.00    +0.000 NA
ATOM     21  H   UNL     1       5.652   3.253  18.718  0.00  0.00    +0.000 HD
BRANCH  20  22
ATOM     22  C   UNL     1       5.013   5.198  19.300  0.00  0.00    +0.000 C 
ATOM     23  C   UNL     1       3.764   4.531  19.925  0.00  0.00    +0.000 C 
ATOM     24  C   UNL     1       3.100   4.808  18.625  0.00  0.00    +0.000 C 
ATOM     25  C   UNL     1       4.044   5.918  18.322  0.00  0.00    +0.000 C 
ATOM     26  C   UNL     1       1.640   4.732  18.352  0.00  0.00    +0.000 C 
ATOM     27  C   UNL     1       2.592   3.800  17.626  0.00  0.00    +0.000 C 
BRANCH  27  28
ATOM     28  C   UNL     1       2.633   2.348  17.942  0.00  0.00    +0.000 C 
ATOM     29  O   UNL     1       1.665   1.723  18.346  0.00  0.00    +0.000 OA
BRANCH  28  30
ATOM     30  O   UNL     1       3.859   1.794  17.792  0.00  0.00    +0.000 OA
ATOM     31  H   UNL     1       4.173   1.781  16.869  0.00  0.00    +0.000 HD
ENDBRANCH  28  30
ENDBRANCH  27  28
ENDBRANCH  20  22
ENDBRANCH  19  20
ENDBRANCH   5  19
TORSDOF 7
ENDMDL
MODEL 3
REMARK VINA RESULT:      -7.9      2.617      7.473
REMARK  Name = 
REMARK  8 active torsions:
REMARK  status: ('A' for Active; 'I' for Inactive)
REMARK    1  A    between atoms: C_1  and  C_2
REMARK    2  A    between atoms: C_5  and  C_6
REMARK    3  A    between atoms: N_8  and  C_9
REMARK    4  A    between atoms: C_16  and  C_17
REMARK    5  A    between atoms: C_17  and  N_18
REMARK    6  A    between atoms: N_18  and  C_19
REMARK    7  A    between atoms: C_24  and  C_25
REMARK    8  A    between atoms: C_25  and  O_27
REMARK                            x       y       z     vdW  Elec       q    Type
REMARK                         _______ _______ _______ _____ _____    ______ ____
ROOT
ATOM      1  C   UNL     1       1.924   6.871  19.404  0.00  0.00    +0.000 A 
ATOM      2  N   UNL     1       1.233   7.386  20.434  0.00  0.00    +0.000 NA
ATOM      3  N   UNL     1       1.160   8.722  20.199  0.00  0.00    +0.000 N 
ATOM      4  C   UNL     1       1.823   9.061  19.046  0.00  0.00    +0.000 A 
ATOM      5  C   UNL     1       2.361   7.904  18.523  0.00  0.00    +0.000 A 
ENDROOT
BRANCH   1  10
ATOM      6  C   UNL     1       3.042   1.215  18.848  0.00  0.00    +0.000 C 
ATOM      7  C   UNL     1       2.744   2.676  18.998  0.00  0.00    +0.000 A 
ATOM      8  C   UNL     1       1.923   3.329  18.080  0.00  0.00    +0.000 A 
ATOM      9  C   UNL     1       1.631   4.685  18.238  0.00  0.00    +0.000 A 
ATOM     10  C   UNL     1       2.180   5.431  19.292  0.00  0.00    +0.000 A 
ATOM     11  C   UNL     1       2.990   4.768  20.220  0.00  0.00    +0.000 A 
ATOM     12  C   UNL     1       3.270   3.403  20.074  0.00  0.00    +0.000 A 
ENDBRANCH   1  10
BRANCH   3  13
ATOM     13  C   UNL     1       0.476   9.598  21.090  0.00  0.00    +0.000 A 
ATOM     14  C   UNL     1       0.091   9.139  22.357  0.00  0.00    +0.000 A 
ATOM     15  C   UNL     1      -0.582   9.992  23.238  0.00  0.00    +0.000 A 
ATOM     16  C   UNL     1      -0.874  11.300  22.866  0.00  0.00    +0.000 A 
ATOM     17  C   UNL     1      -0.497  11.764  21.608  0.00  0.00    +0.000 A 
ATOM     18  C   UNL     1       0.179  10.921  20.721  0.00  0.00    +0.000 A 
ENDBRANCH   3  13
BRANCH   5  19
ATOM     19  C   UNL     1       3.243   7.806  17.329  0.00  0.00    +0.000 C 
BRANCH  19  20
ATOM     20  N   UNL     1       4.365   6.931  17.665  0.00  0.00    +0.000 NA
ATOM     21  H   UNL     1       4.262   6.616  18.624  0.00  0.00    +0.000 HD
BRANCH  20  22
ATOM     22  C   UNL     1       4.528   5.876  16.646  0.00  0.00    +0.000 C 
ATOM     23  C   UNL     1       5.192   4.606  17.231  0.00  0.00    +0.000 C 
ATOM     24  C   UNL     1       6.484   5.277  16.935  0.00  0.00    +0.000 C 
ATOM     25  C   UNL     1       5.859   6.127  15.885  0.00  0.00    +0.000 C 
ATOM     26  C   UNL     1       7.825   4.634  16.931  0.00  0.00    +0.000 C 
ATOM     27  C   UNL     1       7.522   5.738  17.926  0.00  0.00    +0.000 C 
BRANCH  27  28
ATOM     28  C   UNL     1       7.358   5.441  19.374  0.00  0.00    +0.000 C 
ATOM     29  O   UNL     1       6.270   5.319  19.912  0.00  0.00    +0.000 OA
BRANCH  28  30
ATOM     30  O   UNL     1       8.528   5.373  20.050  0.00  0.00    +0.000 OA
ATOM     31  H   UNL     1       8.520   5.855  20.898  0.00  0.00    +0.000 HD
ENDBRANCH  28  30
ENDBRANCH  27  28
ENDBRANCH  20  22
ENDBRANCH  19  20
ENDBRANCH   5  19
TORSDOF 7
ENDMDL
MODEL 4
REMARK VINA RESULT:      -7.9      2.440      5.865
REMARK  Name = 
REMARK  8 active torsions:
REMARK  status: ('A' for Active; 'I' for Inactive)
REMARK    1  A    between atoms: C_1  and  C_2
REMARK    2  A    between atoms: C_5  and  C_6
REMARK    3  A    between atoms: N_8  and  C_9
REMARK    4  A    between atoms: C_16  and  C_17
REMARK    5  A    between atoms: C_17  and  N_18
REMARK    6  A    between atoms: N_18  and  C_19
REMARK    7  A    between atoms: C_24  and  C_25
REMARK    8  A    between atoms: C_25  and  O_27
REMARK                            x       y       z     vdW  Elec       q    Type
REMARK                         _______ _______ _______ _____ _____    ______ ____
ROOT
ATOM      1  C   UNL     1       2.640   7.370  18.706  0.00  0.00    +0.000 A 
ATOM      2  N   UNL     1       3.480   7.304  17.661  0.00  0.00    +0.000 NA
ATOM      3  N   UNL     1       4.165   6.141  17.810  0.00  0.00    +0.000 N 
ATOM      4  C   UNL     1       3.787   5.484  18.955  0.00  0.00    +0.000 A 
ATOM      5  C   UNL     1       2.833   6.260  19.580  0.00  0.00    +0.000 A 
ENDROOT
BRANCH   1  10
ATOM      6  C   UNL     1      -1.185  11.677  19.325  0.00  0.00    +0.000 C 
ATOM      7  C   UNL     1      -0.187  10.570  19.164  0.00  0.00    +0.000 A 
ATOM      8  C   UNL     1       0.188  10.133  17.895  0.00  0.00    +0.000 A 
ATOM      9  C   UNL     1       1.135   9.116  17.753  0.00  0.00    +0.000 A 
ATOM     10  C   UNL     1       1.702   8.486  18.870  0.00  0.00    +0.000 A 
ATOM     11  C   UNL     1       1.335   8.939  20.142  0.00  0.00    +0.000 A 
ATOM     12  C   UNL     1       0.399   9.971  20.288  0.00  0.00    +0.000 A 
ENDBRANCH   1  10
BRANCH   3  13
ATOM     13  C   UNL     1       5.146   5.727  16.864  0.00  0.00    +0.000 A 
ATOM     14  C   UNL     1       4.862   4.674  15.983  0.00  0.00    +0.000 A 
ATOM     15  C   UNL     1       5.820   4.260  15.052  0.00  0.00    +0.000 A 
ATOM     16  C   UNL     1       7.058   4.889  14.989  0.00  0.00    +0.000 A 
ATOM     17  C   UNL     1       7.350   5.935  15.861  0.00  0.00    +0.000 A 
ATOM     18  C   UNL     1       6.399   6.359  16.794  0.00  0.00    +0.000 A 
ENDBRANCH   3  13
BRANCH   5  19
ATOM     19  C   UNL     1       2.209   5.989  20.903  0.00  0.00    +0.000 C 
BRANCH  19  20
ATOM     20  N   UNL     1       2.551   4.623  21.294  0.00  0.00    +0.000 NA
ATOM     21  H   UNL     1       3.138   4.654  22.121  0.00  0.00    +0.000 HD
BRANCH  20  22
ATOM     22  C   UNL     1       1.339   3.785  21.386  0.00  0.00    +0.000 C 
ATOM     23  C   UNL     1       1.667   2.279  21.251  0.00  0.00    +0.000 C 
ATOM     24  C   UNL     1       1.564   2.499  19.785  0.00  0.00    +0.000 C 
ATOM     25  C   UNL     1       0.696   3.693  19.975  0.00  0.00    +0.000 C 
ATOM     26  C   UNL     1       1.472   1.441  18.744  0.00  0.00    +0.000 C 
ATOM     27  C   UNL     1       2.666   2.376  18.764  0.00  0.00    +0.000 C 
BRANCH  27  28
ATOM     28  C   UNL     1       4.012   1.893  19.170  0.00  0.00    +0.000 C 
ATOM     29  O   UNL     1       4.741   2.505  19.934  0.00  0.00    +0.000 OA
BRANCH  28  30
ATOM     30  O   UNL     1       4.376   0.735  18.571  0.00  0.00    +0.000 OA
ATOM     31  H   UNL     1       4.485   0.811  17.605  0.00  0.00    +0.000 HD
ENDBRANCH  28  30
ENDBRANCH  27  28
ENDBRANCH  20  22
ENDBRANCH  19  20
ENDBRANCH   5  19
TORSDOF 7
ENDMDL
MODEL 5
REMARK VINA RESULT:      -7.8      2.456      5.888
REMARK  Name = 
REMARK  8 active torsions:
REMARK  status: ('A' for Active; 'I' for Inactive)
REMARK    1  A    between atoms: C_1  and  C_2
REMARK    2  A    between atoms: C_5  and  C_6
REMARK    3  A    between atoms: N_8  and  C_9
REMARK    4  A    between atoms: C_16  and  C_17
REMARK    5  A    between atoms: C_17  and  N_18
REMARK    6  A    between atoms: N_18  and  C_19
REMARK    7  A    between atoms: C_24  and  C_25
REMARK    8  A    between atoms: C_25  and  O_27
REMARK                            x       y       z     vdW  Elec       q    Type
REMARK                         _______ _______ _______ _____ _____    ______ ____
ROOT
ATOM      1  C   UNL     1       2.779   7.311  18.653  0.00  0.00    +0.000 A 
ATOM      2  N   UNL     1       3.568   7.205  17.573  0.00  0.00    +0.000 NA
ATOM      3  N   UNL     1       4.228   6.026  17.712  0.00  0.00    +0.000 N 
ATOM      4  C   UNL     1       3.885   5.399  18.884  0.00  0.00    +0.000 A 
ATOM      5  C   UNL     1       2.982   6.211  19.538  0.00  0.00    +0.000 A 
ENDROOT
BRANCH   1  10
ATOM      6  C   UNL     1      -0.656  11.905  19.465  0.00  0.00    +0.000 C 
ATOM      7  C   UNL     1       0.224  10.711  19.253  0.00  0.00    +0.000 A 
ATOM      8  C   UNL     1       0.455   9.807  20.288  0.00  0.00    +0.000 A 
ATOM      9  C   UNL     1       1.258   8.684  20.076  0.00  0.00    +0.000 A 
ATOM     10  C   UNL     1       1.879   8.455  18.840  0.00  0.00    +0.000 A 
ATOM     11  C   UNL     1       1.631   9.356  17.798  0.00  0.00    +0.000 A 
ATOM     12  C   UNL     1       0.812  10.474  18.003  0.00  0.00    +0.000 A 
ENDBRANCH   1  10
BRANCH   3  13
ATOM     13  C   UNL     1       5.154   5.570  16.730  0.00  0.00    +0.000 A 
ATOM     14  C   UNL     1       6.498   5.960  16.808  0.00  0.00    +0.000 A 
ATOM     15  C   UNL     1       7.414   5.519  15.848  0.00  0.00    +0.000 A 
ATOM     16  C   UNL     1       7.002   4.691  14.810  0.00  0.00    +0.000 A 
ATOM     17  C   UNL     1       5.668   4.300  14.724  0.00  0.00    +0.000 A 
ATOM     18  C   UNL     1       4.745   4.732  15.679  0.00  0.00    +0.000 A 
ENDBRANCH   3  13
BRANCH   5  19
ATOM     19  C   UNL     1       2.411   5.979  20.891  0.00  0.00    +0.000 C 
BRANCH  19  20
ATOM     20  N   UNL     1       2.697   4.597  21.273  0.00  0.00    +0.000 NA
ATOM     21  H   UNL     1       3.305   4.598  22.085  0.00  0.00    +0.000 HD
BRANCH  20  22
ATOM     22  C   UNL     1       1.448   3.819  21.395  0.00  0.00    +0.000 C 
ATOM     23  C   UNL     1       1.702   2.297  21.278  0.00  0.00    +0.000 C 
ATOM     24  C   UNL     1       1.587   2.501  19.811  0.00  0.00    +0.000 C 
ATOM     25  C   UNL     1       0.779   3.737  19.995  0.00  0.00    +0.000 C 
ATOM     26  C   UNL     1       1.430   1.433  18.788  0.00  0.00    +0.000 C 
ATOM     27  C   UNL     1       2.666   2.311  18.776  0.00  0.00    +0.000 C 
BRANCH  27  28
ATOM     28  C   UNL     1       3.994   1.770  19.170  0.00  0.00    +0.000 C 
ATOM     29  O   UNL     1       4.702   2.287  20.019  0.00  0.00    +0.000 OA
BRANCH  28  30
ATOM     30  O   UNL     1       4.368   0.680  18.460  0.00  0.00    +0.000 OA
ATOM     31  H   UNL     1       4.749   0.891  17.588  0.00  0.00    +0.000 HD
ENDBRANCH  28  30
ENDBRANCH  27  28
ENDBRANCH  20  22
ENDBRANCH  19  20
ENDBRANCH   5  19
TORSDOF 7
ENDMDL
MODEL 6
REMARK VINA RESULT:      -7.8      3.213      6.532
REMARK  Name = 
REMARK  8 active torsions:
REMARK  status: ('A' for Active; 'I' for Inactive)
REMARK    1  A    between atoms: C_1  and  C_2
REMARK    2  A    between atoms: C_5  and  C_6
REMARK    3  A    between atoms: N_8  and  C_9
REMARK    4  A    between atoms: C_16  and  C_17
REMARK    5  A    between atoms: C_17  and  N_18
REMARK    6  A    between atoms: N_18  and  C_19
REMARK    7  A    between atoms: C_24  and  C_25
REMARK    8  A    between atoms: C_25  and  O_27
REMARK                            x       y       z     vdW  Elec       q    Type
REMARK                         _______ _______ _______ _____ _____    ______ ____
ROOT
ATOM      1  C   UNL     1       6.859   5.885  16.489  0.00  0.00    +0.000 A 
ATOM      2  N   UNL     1       7.414   7.107  16.459  0.00  0.00    +0.000 NA
ATOM      3  N   UNL     1       7.571   7.475  17.757  0.00  0.00    +0.000 N 
ATOM      4  C   UNL     1       7.093   6.509  18.608  0.00  0.00    +0.000 A 
ATOM      5  C   UNL     1       6.593   5.484  17.832  0.00  0.00    +0.000 A 
ENDROOT
BRANCH   1  10
ATOM      6  C   UNL     1       5.802   2.831  11.682  0.00  0.00    +0.000 C 
ATOM      7  C   UNL     1       6.071   3.630  12.921  0.00  0.00    +0.000 A 
ATOM      8  C   UNL     1       7.258   4.346  13.058  0.00  0.00    +0.000 A 
ATOM      9  C   UNL     1       7.492   5.107  14.205  0.00  0.00    +0.000 A 
ATOM     10  C   UNL     1       6.567   5.141  15.259  0.00  0.00    +0.000 A 
ATOM     11  C   UNL     1       5.369   4.433  15.110  0.00  0.00    +0.000 A 
ATOM     12  C   UNL     1       5.124   3.684  13.952  0.00  0.00    +0.000 A 
ENDBRANCH   1  10
BRANCH   3  13
ATOM     13  C   UNL     1       8.153   8.725  18.112  0.00  0.00    +0.000 A 
ATOM     14  C   UNL     1       7.903   9.857  17.323  0.00  0.00    +0.000 A 
ATOM     15  C   UNL     1       8.471  11.089  17.663  0.00  0.00    +0.000 A 
ATOM     16  C   UNL     1       9.286  11.203  18.784  0.00  0.00    +0.000 A 
ATOM     17  C   UNL     1       9.540  10.083  19.573  0.00  0.00    +0.000 A 
ATOM     18  C   UNL     1       8.976   8.848  19.244  0.00  0.00    +0.000 A 
ENDBRANCH   3  13
BRANCH   5  19
ATOM     19  C   UNL     1       5.888   4.271  18.326  0.00  0.00    +0.000 C 
BRANCH  19  20
ATOM     20  N   UNL     1       4.626   4.695  18.929  0.00  0.00    +0.000 NA
ATOM     21  H   UNL     1       4.786   5.534  19.476  0.00  0.00    +0.000 HD
BRANCH  20  22
ATOM     22  C   UNL     1       3.560   4.775  17.911  0.00  0.00    +0.000 C 
ATOM     23  C   UNL     1       2.163   4.959  18.551  0.00  0.00    +0.000 C 
ATOM     24  C   UNL     1       2.135   3.477  18.655  0.00  0.00    +0.000 C 
ATOM     25  C   UNL     1       3.117   3.331  17.546  0.00  0.00    +0.000 C 
ATOM     26  C   UNL     1       0.941   2.642  18.953  0.00  0.00    +0.000 C 
ATOM     27  C   UNL     1       2.113   2.651  19.915  0.00  0.00    +0.000 C 
BRANCH  27  28
ATOM     28  C   UNL     1       2.011   3.313  21.242  0.00  0.00    +0.000 C 
ATOM     29  O   UNL     1       2.405   4.448  21.456  0.00  0.00    +0.000 OA
BRANCH  28  30
ATOM     30  O   UNL     1       1.488   2.519  22.206  0.00  0.00    +0.000 OA
ATOM     31  H   UNL     1       1.238   2.999  23.017  0.00  0.00    +0.000 HD
ENDBRANCH  28  30
ENDBRANCH  27  28
ENDBRANCH  20  22
ENDBRANCH  19  20
ENDBRANCH   5  19
TORSDOF 7
ENDMDL
MODEL 7
REMARK VINA RESULT:      -7.8      1.735      6.892
REMARK  Name = 
REMARK  8 active torsions:
REMARK  status: ('A' for Active; 'I' for Inactive)
REMARK    1  A    between atoms: C_1  and  C_2
REMARK    2  A    between atoms: C_5  and  C_6
REMARK    3  A    between atoms: N_8  and  C_9
REMARK    4  A    between atoms: C_16  and  C_17
REMARK    5  A    between atoms: C_17  and  N_18
REMARK    6  A    between atoms: N_18  and  C_19
REMARK    7  A    between atoms: C_24  and  C_25
REMARK    8  A    between atoms: C_25  and  O_27
REMARK                            x       y       z     vdW  Elec       q    Type
REMARK                         _______ _______ _______ _____ _____    ______ ____
ROOT
ATOM      1  C   UNL     1       4.701   5.774  17.055  0.00  0.00    +0.000 A 
ATOM      2  N   UNL     1       3.779   6.750  17.045  0.00  0.00    +0.000 NA
ATOM      3  N   UNL     1       3.423   6.935  18.343  0.00  0.00    +0.000 N 
ATOM      4  C   UNL     1       4.091   6.067  19.170  0.00  0.00    +0.000 A 
ATOM      5  C   UNL     1       4.896   5.276  18.377  0.00  0.00    +0.000 A 
ENDROOT
BRANCH   1  10
ATOM      6  C   UNL     1       7.347   3.859  12.271  0.00  0.00    +0.000 C 
ATOM      7  C   UNL     1       6.659   4.363  13.503  0.00  0.00    +0.000 A 
ATOM      8  C   UNL     1       7.322   5.213  14.387  0.00  0.00    +0.000 A 
ATOM      9  C   UNL     1       6.667   5.697  15.521  0.00  0.00    +0.000 A 
ATOM     10  C   UNL     1       5.351   5.316  15.822  0.00  0.00    +0.000 A 
ATOM     11  C   UNL     1       4.684   4.476  14.923  0.00  0.00    +0.000 A 
ATOM     12  C   UNL     1       5.332   4.003  13.775  0.00  0.00    +0.000 A 
ENDBRANCH   1  10
BRANCH   3  13
ATOM     13  C   UNL     1       2.462   7.917  18.718  0.00  0.00    +0.000 A 
ATOM     14  C   UNL     1       1.934   7.911  20.016  0.00  0.00    +0.000 A 
ATOM     15  C   UNL     1       0.989   8.870  20.394  0.00  0.00    +0.000 A 
ATOM     16  C   UNL     1       0.567   9.838  19.489  0.00  0.00    +0.000 A 
ATOM     17  C   UNL     1       1.086   9.851  18.196  0.00  0.00    +0.000 A 
ATOM     18  C   UNL     1       2.033   8.898  17.809  0.00  0.00    +0.000 A 
ENDBRANCH   3  13
BRANCH   5  19
ATOM     19  C   UNL     1       5.728   4.132  18.835  0.00  0.00    +0.000 C 
BRANCH  19  20
ATOM     20  N   UNL     1       4.830   3.051  19.236  0.00  0.00    +0.000 NA
ATOM     21  H   UNL     1       4.265   3.364  20.019  0.00  0.00    +0.000 HD
BRANCH  20  22
ATOM     22  C   UNL     1       4.093   2.523  18.071  0.00  0.00    +0.000 C 
ATOM     23  C   UNL     1       2.726   3.224  17.887  0.00  0.00    +0.000 C 
ATOM     24  C   UNL     1       2.202   2.214  18.843  0.00  0.00    +0.000 C 
ATOM     25  C   UNL     1       3.300   1.264  18.519  0.00  0.00    +0.000 C 
ATOM     26  C   UNL     1       0.768   1.920  19.109  0.00  0.00    +0.000 C 
ATOM     27  C   UNL     1       1.644   2.465  20.221  0.00  0.00    +0.000 C 
BRANCH  27  28
ATOM     28  C   UNL     1       1.475   3.856  20.718  0.00  0.00    +0.000 C 
ATOM     29  O   UNL     1       0.637   4.626  20.279  0.00  0.00    +0.000 OA
BRANCH  28  30
ATOM     30  O   UNL     1       2.376   4.207  21.666  0.00  0.00    +0.000 OA
ATOM     31  H   UNL     1       2.107   4.981  22.194  0.00  0.00    +0.000 HD
ENDBRANCH  28  30
ENDBRANCH  27  28
ENDBRANCH  20  22
ENDBRANCH  19  20
ENDBRANCH   5  19
TORSDOF 7
ENDMDL
MODEL 8
REMARK VINA RESULT:      -7.8      1.717      6.934
REMARK  Name = 
REMARK  8 active torsions:
REMARK  status: ('A' for Active; 'I' for Inactive)
REMARK    1  A    between atoms: C_1  and  C_2
REMARK    2  A    between atoms: C_5  and  C_6
REMARK    3  A    between atoms: N_8  and  C_9
REMARK    4  A    between atoms: C_16  and  C_17
REMARK    5  A    between atoms: C_17  and  N_18
REMARK    6  A    between atoms: N_18  and  C_19
REMARK    7  A    between atoms: C_24  and  C_25
REMARK    8  A    between atoms: C_25  and  O_27
REMARK                            x       y       z     vdW  Elec       q    Type
REMARK                         _______ _______ _______ _____ _____    ______ ____
ROOT
ATOM      1  C   UNL     1       4.754   5.723  17.079  0.00  0.00    +0.000 A 
ATOM      2  N   UNL     1       3.831   6.697  17.045  0.00  0.00    +0.000 NA
ATOM      3  N   UNL     1       3.467   6.907  18.336  0.00  0.00    +0.000 N 
ATOM      4  C   UNL     1       4.130   6.055  19.184  0.00  0.00    +0.000 A 
ATOM      5  C   UNL     1       4.941   5.251  18.411  0.00  0.00    +0.000 A 
ENDROOT
BRANCH   1  10
ATOM      6  C   UNL     1       7.271   3.935  12.177  0.00  0.00    +0.000 C 
ATOM      7  C   UNL     1       6.623   4.388  13.450  0.00  0.00    +0.000 A 
ATOM      8  C   UNL     1       5.320   4.003  13.759  0.00  0.00    +0.000 A 
ATOM      9  C   UNL     1       4.730   4.411  14.957  0.00  0.00    +0.000 A 
ATOM     10  C   UNL     1       5.411   5.242  15.859  0.00  0.00    +0.000 A 
ATOM     11  C   UNL     1       6.726   5.613  15.553  0.00  0.00    +0.000 A 
ATOM     12  C   UNL     1       7.326   5.191  14.360  0.00  0.00    +0.000 A 
ENDBRANCH   1  10
BRANCH   3  13
ATOM     13  C   UNL     1       2.503   7.896  18.687  0.00  0.00    +0.000 A 
ATOM     14  C   UNL     1       1.940   7.892  19.971  0.00  0.00    +0.000 A 
ATOM     15  C   UNL     1       0.992   8.858  20.324  0.00  0.00    +0.000 A 
ATOM     16  C   UNL     1       0.601   9.829  19.409  0.00  0.00    +0.000 A 
ATOM     17  C   UNL     1       1.155   9.839  18.130  0.00  0.00    +0.000 A 
ATOM     18  C   UNL     1       2.105   8.880  17.767  0.00  0.00    +0.000 A 
ENDBRANCH   3  13
BRANCH   5  19
ATOM     19  C   UNL     1       5.770   4.115  18.896  0.00  0.00    +0.000 C 
BRANCH  19  20
ATOM     20  N   UNL     1       4.871   3.033  19.292  0.00  0.00    +0.000 NA
ATOM     21  H   UNL     1       4.303   3.346  20.073  0.00  0.00    +0.000 HD
BRANCH  20  22
ATOM     22  C   UNL     1       4.138   2.507  18.124  0.00  0.00    +0.000 C 
ATOM     23  C   UNL     1       2.760   3.189  17.950  0.00  0.00    +0.000 C 
ATOM     24  C   UNL     1       2.255   2.162  18.897  0.00  0.00    +0.000 C 
ATOM     25  C   UNL     1       3.366   1.231  18.560  0.00  0.00    +0.000 C 
ATOM     26  C   UNL     1       0.826   1.843  19.163  0.00  0.00    +0.000 C 
ATOM     27  C   UNL     1       1.697   2.389  20.279  0.00  0.00    +0.000 C 
BRANCH  27  28
ATOM     28  C   UNL     1       1.509   3.772  20.791  0.00  0.00    +0.000 C 
ATOM     29  O   UNL     1       2.290   4.315  21.555  0.00  0.00    +0.000 OA
BRANCH  28  30
ATOM     30  O   UNL     1       0.359   4.353  20.375  0.00  0.00    +0.000 OA
ATOM     31  H   UNL     1       0.125   4.142  19.452  0.00  0.00    +0.000 HD
ENDBRANCH  28  30
ENDBRANCH  27  28
ENDBRANCH  20  22
ENDBRANCH  19  20
ENDBRANCH   5  19
TORSDOF 7
ENDMDL
MODEL 9
REMARK VINA RESULT:      -7.8      1.731      6.937
REMARK  Name = 
REMARK  8 active torsions:
REMARK  status: ('A' for Active; 'I' for Inactive)
REMARK    1  A    between atoms: C_1  and  C_2
REMARK    2  A    between atoms: C_5  and  C_6
REMARK    3  A    between atoms: N_8  and  C_9
REMARK    4  A    between atoms: C_16  and  C_17
REMARK    5  A    between atoms: C_17  and  N_18
REMARK    6  A    between atoms: N_18  and  C_19
REMARK    7  A    between atoms: C_24  and  C_25
REMARK    8  A    between atoms: C_25  and  O_27
REMARK                            x       y       z     vdW  Elec       q    Type
REMARK                         _______ _______ _______ _____ _____    ______ ____
ROOT
ATOM      1  C   UNL     1       4.738   5.713  17.133  0.00  0.00    +0.000 A 
ATOM      2  N   UNL     1       3.823   6.694  17.102  0.00  0.00    +0.000 NA
ATOM      3  N   UNL     1       3.446   6.891  18.392  0.00  0.00    +0.000 N 
ATOM      4  C   UNL     1       4.094   6.023  19.236  0.00  0.00    +0.000 A 
ATOM      5  C   UNL     1       4.908   5.223  18.462  0.00  0.00    +0.000 A 
ENDROOT
BRANCH   1  10
ATOM      6  C   UNL     1       7.297   3.971  12.237  0.00  0.00    +0.000 C 
ATOM      7  C   UNL     1       6.638   4.412  13.508  0.00  0.00    +0.000 A 
ATOM      8  C   UNL     1       5.326   4.039  13.794  0.00  0.00    +0.000 A 
ATOM      9  C   UNL     1       4.727   4.435  14.991  0.00  0.00    +0.000 A 
ATOM     10  C   UNL     1       5.406   5.243  15.914  0.00  0.00    +0.000 A 
ATOM     11  C   UNL     1       6.728   5.602  15.631  0.00  0.00    +0.000 A 
ATOM     12  C   UNL     1       7.339   5.192  14.439  0.00  0.00    +0.000 A 
ENDBRANCH   1  10
BRANCH   3  13
ATOM     13  C   UNL     1       2.485   7.881  18.745  0.00  0.00    +0.000 A 
ATOM     14  C   UNL     1       2.100   8.843  17.801  0.00  0.00    +0.000 A 
ATOM     15  C   UNL     1       1.158   9.820  18.139  0.00  0.00    +0.000 A 
ATOM     16  C   UNL     1       0.596   9.847  19.410  0.00  0.00    +0.000 A 
ATOM     17  C   UNL     1       0.975   8.895  20.355  0.00  0.00    +0.000 A 
ATOM     18  C   UNL     1       1.913   7.913  20.028  0.00  0.00    +0.000 A 
ENDBRANCH   3  13
BRANCH   5  19
ATOM     19  C   UNL     1       5.725   4.076  18.940  0.00  0.00    +0.000 C 
BRANCH  19  20
ATOM     20  N   UNL     1       4.817   2.978  19.266  0.00  0.00    +0.000 NA
ATOM     21  H   UNL     1       4.274   3.231  20.085  0.00  0.00    +0.000 HD
BRANCH  20  22
ATOM     22  C   UNL     1       4.047   2.564  18.076  0.00  0.00    +0.000 C 
ATOM     23  C   UNL     1       2.677   3.280  17.997  0.00  0.00    +0.000 C 
ATOM     24  C   UNL     1       2.177   2.184  18.865  0.00  0.00    +0.000 C 
ATOM     25  C   UNL     1       3.263   1.268  18.422  0.00  0.00    +0.000 C 
ATOM     26  C   UNL     1       0.750   1.865  19.141  0.00  0.00    +0.000 C 
ATOM     27  C   UNL     1       1.657   2.301  20.276  0.00  0.00    +0.000 C 
BRANCH  27  28
ATOM     28  C   UNL     1       1.505   3.638  20.908  0.00  0.00    +0.000 C 
ATOM     29  O   UNL     1       0.817   4.527  20.436  0.00  0.00    +0.000 OA
BRANCH  28  30
ATOM     30  O   UNL     1       2.246   3.795  22.030  0.00  0.00    +0.000 OA
ATOM     31  H   UNL     1       3.194   3.942  21.857  0.00  0.00    +0.000 HD
ENDBRANCH  28  30
ENDBRANCH  27  28
ENDBRANCH  20  22
ENDBRANCH  19  20
ENDBRANCH   5  19
TORSDOF 7
ENDMDL
