MODEL 1
REMARK VINA RESULT:      -8.0      0.000      0.000
REMARK  Name = 
REMARK  3 active torsions:
REMARK  status: ('A' for Active; 'I' for Inactive)
REMARK    1  A    between atoms: C_1  and  N_2
REMARK    2  A    between atoms: C_6  and  C_7
REMARK    3  A    between atoms: C_15  and  C_17
REMARK                            x       y       z     vdW  Elec       q    Type
REMARK                         _______ _______ _______ _____ _____    ______ ____
ROOT
ATOM      1  C   UNL     1       5.636   4.682  14.755  0.00  0.00    +0.000 C 
ATOM      2  C   UNL     1       5.795   3.941  15.894  0.00  0.00    +0.000 C 
ATOM      3  C   UNL     1       5.341   4.416  17.305  0.00  0.00    +0.000 C 
ATOM      4  C   UNL     1       6.173   5.350  18.259  0.00  0.00    +0.000 C 
ATOM      5  C   UNL     1       6.056   6.796  17.662  0.00  0.00    +0.000 C 
ATOM      6  C   UNL     1       5.129   6.551  16.446  0.00  0.00    +0.000 C 
ATOM      7  C   UNL     1       5.213   6.185  14.912  0.00  0.00    +0.000 C 
ATOM      8  N   UNL     1       4.320   5.389  16.997  0.00  0.00    +0.000 N 
ATOM      9  C   UNL     1       3.160   5.178  17.744  0.00  0.00    +0.000 C 
ATOM     10  O   UNL     1       2.681   4.029  17.780  0.00  0.00    +0.000 OA
ENDROOT
BRANCH   9  11
ATOM     11  C   UNL     1       2.503   6.141  18.646  0.00  0.00    +0.000 A 
ATOM     12  C   UNL     1       2.251   5.952  19.986  0.00  0.00    +0.000 A 
ATOM     13  N   UNL     1       1.764   6.922  20.807  0.00  0.00    +0.000 NA
ATOM     14  C   UNL     1       1.521   8.156  20.299  0.00  0.00    +0.000 A 
ATOM     15  C   UNL     1       1.122   9.201  21.127  0.00  0.00    +0.000 A 
ATOM     16  C   UNL     1       0.895  10.504  20.647  0.00  0.00    +0.000 A 
ATOM     17  C   UNL     1       1.054  10.772  19.295  0.00  0.00    +0.000 A 
ATOM     18  C   UNL     1       1.451   9.756  18.438  0.00  0.00    +0.000 A 
ATOM     19  C   UNL     1       1.697   8.446  18.937  0.00  0.00    +0.000 A 
ATOM     20  C   UNL     1       2.172   7.410  18.118  0.00  0.00    +0.000 A 
ENDBRANCH   9  11
BRANCH   1  26
ATOM     21  C   UNL     1       8.120   5.425  13.183  0.00  0.00    +0.000 C 
ATOM     22  N   UNL     1       7.127   4.439  12.819  0.00  0.00    +0.000 N 
ATOM     23  N   UNL     1       7.336   3.711  11.699  0.00  0.00    +0.000 NA
ATOM     24  C   UNL     1       6.278   2.898  11.647  0.00  0.00    +0.000 A 
ATOM     25  C   UNL     1       5.394   3.110  12.722  0.00  0.00    +0.000 A 
ATOM     26  C   UNL     1       5.964   4.096  13.488  0.00  0.00    +0.000 A 
ENDBRANCH   1  26
TORSDOF 2
ENDMDL
MODEL 2
REMARK VINA RESULT:      -7.2      4.372      9.345
REMARK  Name = 
REMARK  3 active torsions:
REMARK  status: ('A' for Active; 'I' for Inactive)
REMARK    1  A    between atoms: C_1  and  N_2
REMARK    2  A    between atoms: C_6  and  C_7
REMARK    3  A    between atoms: C_15  and  C_17
REMARK                            x       y       z     vdW  Elec       q    Type
REMARK                         _______ _______ _______ _____ _____    ______ ____
ROOT
ATOM      1  C   UNL     1       1.126  12.735  20.166  0.00  0.00    +0.000 C 
ATOM      2  C   UNL     1       0.128  12.038  20.792  0.00  0.00    +0.000 C 
ATOM      3  C   UNL     1      -0.173  10.535  20.529  0.00  0.00    +0.000 C 
ATOM      4  C   UNL     1      -1.052   9.978  19.350  0.00  0.00    +0.000 C 
ATOM      5  C   UNL     1      -0.171  10.095  18.057  0.00  0.00    +0.000 C 
ATOM      6  C   UNL     1       1.146  10.669  18.635  0.00  0.00    +0.000 C 
ATOM      7  C   UNL     1       1.833  12.059  18.939  0.00  0.00    +0.000 C 
ATOM      8  N   UNL     1       1.087  10.045  20.020  0.00  0.00    +0.000 N 
ATOM      9  C   UNL     1       1.484   8.870  20.659  0.00  0.00    +0.000 C 
ATOM     10  O   UNL     1       1.467   8.840  21.904  0.00  0.00    +0.000 OA
ENDROOT
BRANCH   9  11
ATOM     11  C   UNL     1       1.779   7.574  20.022  0.00  0.00    +0.000 A 
ATOM     12  C   UNL     1       2.431   7.392  18.823  0.00  0.00    +0.000 A 
ATOM     13  N   UNL     1       2.799   6.173  18.341  0.00  0.00    +0.000 NA
ATOM     14  C   UNL     1       2.531   5.064  19.077  0.00  0.00    +0.000 A 
ATOM     15  C   UNL     1       2.983   3.813  18.668  0.00  0.00    +0.000 A 
ATOM     16  C   UNL     1       2.759   2.645  19.419  0.00  0.00    +0.000 A 
ATOM     17  C   UNL     1       2.048   2.721  20.607  0.00  0.00    +0.000 A 
ATOM     18  C   UNL     1       1.581   3.951  21.048  0.00  0.00    +0.000 A 
ATOM     19  C   UNL     1       1.830   5.130  20.290  0.00  0.00    +0.000 A 
ATOM     20  C   UNL     1       1.441   6.403  20.737  0.00  0.00    +0.000 A 
ENDBRANCH   9  11
BRANCH   1  26
ATOM     21  C   UNL     1      -0.169  15.162  18.890  0.00  0.00    +0.000 C 
ATOM     22  N   UNL     1       0.766  15.158  19.993  0.00  0.00    +0.000 N 
ATOM     23  N   UNL     1       1.063  16.340  20.578  0.00  0.00    +0.000 NA
ATOM     24  C   UNL     1       1.918  16.009  21.549  0.00  0.00    +0.000 A 
ATOM     25  C   UNL     1       2.174  14.625  21.578  0.00  0.00    +0.000 A 
ATOM     26  C   UNL     1       1.407  14.079  20.580  0.00  0.00    +0.000 A 
ENDBRANCH   1  26
TORSDOF 2
ENDMDL
MODEL 3
REMARK VINA RESULT:      -6.9      2.395      3.923
REMARK  Name = 
REMARK  3 active torsions:
REMARK  status: ('A' for Active; 'I' for Inactive)
REMARK    1  A    between atoms: C_1  and  N_2
REMARK    2  A    between atoms: C_6  and  C_7
REMARK    3  A    between atoms: C_15  and  C_17
REMARK                            x       y       z     vdW  Elec       q    Type
REMARK                         _______ _______ _______ _____ _____    ______ ____
ROOT
ATOM      1  C   UNL     1       4.607   5.286  17.919  0.00  0.00    +0.000 C 
ATOM      2  C   UNL     1       3.358   5.199  17.365  0.00  0.00    +0.000 C 
ATOM      3  C   UNL     1       2.063   5.694  18.070  0.00  0.00    +0.000 C 
ATOM      4  C   UNL     1       1.231   4.871  19.122  0.00  0.00    +0.000 C 
ATOM      5  C   UNL     1       2.053   4.916  20.457  0.00  0.00    +0.000 C 
ATOM      6  C   UNL     1       3.257   5.799  20.046  0.00  0.00    +0.000 C 
ATOM      7  C   UNL     1       4.709   5.664  19.438  0.00  0.00    +0.000 C 
ATOM      8  N   UNL     1       2.567   6.669  19.008  0.00  0.00    +0.000 N 
ATOM      9  C   UNL     1       1.851   7.865  18.950  0.00  0.00    +0.000 C 
ATOM     10  O   UNL     1       1.655   8.383  17.834  0.00  0.00    +0.000 OA
ENDROOT
BRANCH   9  11
ATOM     11  C   UNL     1       1.143   8.526  20.061  0.00  0.00    +0.000 A 
ATOM     12  C   UNL     1       1.347   8.293  21.403  0.00  0.00    +0.000 A 
ATOM     13  N   UNL     1       0.766   9.024  22.393  0.00  0.00    +0.000 NA
ATOM     14  C   UNL     1      -0.052  10.054  22.060  0.00  0.00    +0.000 A 
ATOM     15  C   UNL     1      -0.581  10.888  23.040  0.00  0.00    +0.000 A 
ATOM     16  C   UNL     1      -1.403  11.989  22.735  0.00  0.00    +0.000 A 
ATOM     17  C   UNL     1      -1.721  12.259  21.413  0.00  0.00    +0.000 A 
ATOM     18  C   UNL     1      -1.212  11.450  20.407  0.00  0.00    +0.000 A 
ATOM     19  C   UNL     1      -0.366  10.351  20.725  0.00  0.00    +0.000 A 
ATOM     20  C   UNL     1       0.230   9.554  19.734  0.00  0.00    +0.000 A 
ENDBRANCH   9  11
BRANCH   1  26
ATOM     21  C   UNL     1       7.454   5.504  18.937  0.00  0.00    +0.000 C 
ATOM     22  N   UNL     1       7.031   5.008  17.647  0.00  0.00    +0.000 N 
ATOM     23  N   UNL     1       7.978   4.524  16.811  0.00  0.00    +0.000 NA
ATOM     24  C   UNL     1       7.285   4.137  15.737  0.00  0.00    +0.000 A 
ATOM     25  C   UNL     1       5.906   4.380  15.881  0.00  0.00    +0.000 A 
ATOM     26  C   UNL     1       5.749   4.926  17.131  0.00  0.00    +0.000 A 
ENDBRANCH   1  26
TORSDOF 2
ENDMDL
MODEL 4
REMARK VINA RESULT:      -6.9      1.608      8.100
REMARK  Name = 
REMARK  3 active torsions:
REMARK  status: ('A' for Active; 'I' for Inactive)
REMARK    1  A    between atoms: C_1  and  N_2
REMARK    2  A    between atoms: C_6  and  C_7
REMARK    3  A    between atoms: C_15  and  C_17
REMARK                            x       y       z     vdW  Elec       q    Type
REMARK                         _______ _______ _______ _____ _____    ______ ____
ROOT
ATOM      1  C   UNL     1       2.816   6.523  19.052  0.00  0.00    +0.000 C 
ATOM      2  C   UNL     1       4.100   6.264  19.447  0.00  0.00    +0.000 C 
ATOM      3  C   UNL     1       5.125   5.466  18.591  0.00  0.00    +0.000 C 
ATOM      4  C   UNL     1       5.236   3.898  18.537  0.00  0.00    +0.000 C 
ATOM      5  C   UNL     1       4.027   3.406  17.666  0.00  0.00    +0.000 C 
ATOM      6  C   UNL     1       3.367   4.751  17.272  0.00  0.00    +0.000 C 
ATOM      7  C   UNL     1       2.271   5.762  17.793  0.00  0.00    +0.000 C 
ATOM      8  N   UNL     1       4.609   5.626  17.252  0.00  0.00    +0.000 N 
ATOM      9  C   UNL     1       5.605   6.014  16.355  0.00  0.00    +0.000 C 
ATOM     10  O   UNL     1       6.339   6.972  16.665  0.00  0.00    +0.000 OA
ENDROOT
BRANCH   9  11
ATOM     11  C   UNL     1       6.007   5.312  15.123  0.00  0.00    +0.000 A 
ATOM     12  C   UNL     1       7.297   5.005  14.751  0.00  0.00    +0.000 A 
ATOM     13  N   UNL     1       7.608   4.237  13.671  0.00  0.00    +0.000 NA
ATOM     14  C   UNL     1       6.605   3.724  12.915  0.00  0.00    +0.000 A 
ATOM     15  C   UNL     1       6.881   2.851  11.866  0.00  0.00    +0.000 A 
ATOM     16  C   UNL     1       5.870   2.268  11.081  0.00  0.00    +0.000 A 
ATOM     17  C   UNL     1       4.542   2.576  11.337  0.00  0.00    +0.000 A 
ATOM     18  C   UNL     1       4.227   3.442  12.374  0.00  0.00    +0.000 A 
ATOM     19  C   UNL     1       5.257   4.012  13.174  0.00  0.00    +0.000 A 
ATOM     20  C   UNL     1       4.979   4.832  14.279  0.00  0.00    +0.000 A 
ENDBRANCH   9  11
BRANCH   1  26
ATOM     21  C   UNL     1       1.915   9.271  18.141  0.00  0.00    +0.000 C 
ATOM     22  N   UNL     1       1.578   8.616  19.386  0.00  0.00    +0.000 N 
ATOM     23  N   UNL     1       0.721   9.246  20.222  0.00  0.00    +0.000 NA
ATOM     24  C   UNL     1       0.602   8.401  21.248  0.00  0.00    +0.000 A 
ATOM     25  C   UNL     1       1.383   7.243  21.074  0.00  0.00    +0.000 A 
ATOM     26  C   UNL     1       1.996   7.383  19.854  0.00  0.00    +0.000 A 
ENDBRANCH   1  26
TORSDOF 2
ENDMDL
MODEL 5
REMARK VINA RESULT:      -6.9      4.390      9.138
REMARK  Name = 
REMARK  3 active torsions:
REMARK  status: ('A' for Active; 'I' for Inactive)
REMARK    1  A    between atoms: C_1  and  N_2
REMARK    2  A    between atoms: C_6  and  C_7
REMARK    3  A    between atoms: C_15  and  C_17
REMARK                            x       y       z     vdW  Elec       q    Type
REMARK                         _______ _______ _______ _____ _____    ______ ____
ROOT
ATOM      1  C   UNL     1       0.848  12.713  19.747  0.00  0.00    +0.000 C 
ATOM      2  C   UNL     1      -0.110  12.001  20.417  0.00  0.00    +0.000 C 
ATOM      3  C   UNL     1      -0.311  10.466  20.265  0.00  0.00    +0.000 C 
ATOM      4  C   UNL     1      -1.141   9.769  19.124  0.00  0.00    +0.000 C 
ATOM      5  C   UNL     1      -0.255   9.848  17.831  0.00  0.00    +0.000 C 
ATOM      6  C   UNL     1       1.016  10.546  18.373  0.00  0.00    +0.000 C 
ATOM      7  C   UNL     1       1.609  11.996  18.578  0.00  0.00    +0.000 C 
ATOM      8  N   UNL     1       0.982  10.023  19.800  0.00  0.00    +0.000 N 
ATOM      9  C   UNL     1       1.448   8.926  20.526  0.00  0.00    +0.000 C 
ATOM     10  O   UNL     1       1.420   8.986  21.769  0.00  0.00    +0.000 OA
ENDROOT
BRANCH   9  11
ATOM     11  C   UNL     1       1.831   7.608  19.988  0.00  0.00    +0.000 A 
ATOM     12  C   UNL     1       2.581   7.384  18.855  0.00  0.00    +0.000 A 
ATOM     13  N   UNL     1       3.023   6.155  18.473  0.00  0.00    +0.000 NA
ATOM     14  C   UNL     1       2.732   5.079  19.247  0.00  0.00    +0.000 A 
ATOM     15  C   UNL     1       3.253   3.824  18.945  0.00  0.00    +0.000 A 
ATOM     16  C   UNL     1       3.005   2.691  19.741  0.00  0.00    +0.000 A 
ATOM     17  C   UNL     1       2.200   2.806  20.864  0.00  0.00    +0.000 A 
ATOM     18  C   UNL     1       1.662   4.041  21.198  0.00  0.00    +0.000 A 
ATOM     19  C   UNL     1       1.935   5.185  20.396  0.00  0.00    +0.000 A 
ATOM     20  C   UNL     1       1.473   6.466  20.739  0.00  0.00    +0.000 A 
ENDBRANCH   9  11
BRANCH   1  26
ATOM     21  C   UNL     1       3.294  13.757  21.202  0.00  0.00    +0.000 C 
ATOM     22  N   UNL     1       2.187  14.538  20.697  0.00  0.00    +0.000 N 
ATOM     23  N   UNL     1       2.253  15.884  20.816  0.00  0.00    +0.000 NA
ATOM     24  C   UNL     1       1.118  16.308  20.257  0.00  0.00    +0.000 A 
ATOM     25  C   UNL     1       0.326  15.241  19.791  0.00  0.00    +0.000 A 
ATOM     26  C   UNL     1       1.037  14.099  20.063  0.00  0.00    +0.000 A 
ENDBRANCH   1  26
TORSDOF 2
ENDMDL
MODEL 6
REMARK VINA RESULT:      -6.8      5.554      9.597
REMARK  Name = 
REMARK  3 active torsions:
REMARK  status: ('A' for Active; 'I' for Inactive)
REMARK    1  A    between atoms: C_1  and  N_2
REMARK    2  A    between atoms: C_6  and  C_7
REMARK    3  A    between atoms: C_15  and  C_17
REMARK                            x       y       z     vdW  Elec       q    Type
REMARK                         _______ _______ _______ _____ _____    ______ ____
ROOT
ATOM      1  C   UNL     1       0.689  10.448  19.465  0.00  0.00    +0.000 C 
ATOM      2  C   UNL     1       1.320  11.432  20.176  0.00  0.00    +0.000 C 
ATOM      3  C   UNL     1       0.590  12.663  20.786  0.00  0.00    +0.000 C 
ATOM      4  C   UNL     1       0.238  13.985  20.010  0.00  0.00    +0.000 C 
ATOM      5  C   UNL     1      -0.983  13.636  19.087  0.00  0.00    +0.000 C 
ATOM      6  C   UNL     1      -1.235  12.154  19.461  0.00  0.00    +0.000 C 
ATOM      7  C   UNL     1      -0.795  10.702  19.023  0.00  0.00    +0.000 C 
ATOM      8  N   UNL     1      -0.770  12.194  20.907  0.00  0.00    +0.000 N 
ATOM      9  C   UNL     1      -1.298  12.456  22.173  0.00  0.00    +0.000 C 
ATOM     10  O   UNL     1      -0.627  12.134  23.171  0.00  0.00    +0.000 OA
ENDROOT
BRANCH   9  11
ATOM     11  C   UNL     1      -2.515  13.229  22.479  0.00  0.00    +0.000 A 
ATOM     12  C   UNL     1      -2.800  14.500  22.032  0.00  0.00    +0.000 A 
ATOM     13  N   UNL     1      -3.996  15.119  22.231  0.00  0.00    +0.000 NA
ATOM     14  C   UNL     1      -4.980  14.459  22.893  0.00  0.00    +0.000 A 
ATOM     15  C   UNL     1      -6.247  15.018  23.025  0.00  0.00    +0.000 A 
ATOM     16  C   UNL     1      -7.305  14.352  23.671  0.00  0.00    +0.000 A 
ATOM     17  C   UNL     1      -7.089  13.096  24.218  0.00  0.00    +0.000 A 
ATOM     18  C   UNL     1      -5.839  12.505  24.106  0.00  0.00    +0.000 A 
ATOM     19  C   UNL     1      -4.781  13.180  23.433  0.00  0.00    +0.000 A 
ATOM     20  C   UNL     1      -3.524  12.587  23.232  0.00  0.00    +0.000 A 
ENDBRANCH   9  11
BRANCH   1  26
ATOM     21  C   UNL     1       1.246   8.118  21.322  0.00  0.00    +0.000 C 
ATOM     22  N   UNL     1       1.633   8.231  19.933  0.00  0.00    +0.000 N 
ATOM     23  N   UNL     1       2.252   7.175  19.359  0.00  0.00    +0.000 NA
ATOM     24  C   UNL     1       2.460   7.574  18.102  0.00  0.00    +0.000 A 
ATOM     25  C   UNL     1       1.984   8.879  17.876  0.00  0.00    +0.000 A 
ATOM     26  C   UNL     1       1.431   9.289  19.063  0.00  0.00    +0.000 A 
ENDBRANCH   1  26
TORSDOF 2
ENDMDL
MODEL 7
REMARK VINA RESULT:      -6.8      1.048      1.625
REMARK  Name = 
REMARK  3 active torsions:
REMARK  status: ('A' for Active; 'I' for Inactive)
REMARK    1  A    between atoms: C_1  and  N_2
REMARK    2  A    between atoms: C_6  and  C_7
REMARK    3  A    between atoms: C_15  and  C_17
REMARK                            x       y       z     vdW  Elec       q    Type
REMARK                         _______ _______ _______ _____ _____    ______ ____
ROOT
ATOM      1  C   UNL     1       5.549   4.860  14.782  0.00  0.00    +0.000 C 
ATOM      2  C   UNL     1       5.554   4.262  16.013  0.00  0.00    +0.000 C 
ATOM      3  C   UNL     1       5.145   4.985  17.328  0.00  0.00    +0.000 C 
ATOM      4  C   UNL     1       6.092   5.895  18.195  0.00  0.00    +0.000 C 
ATOM      5  C   UNL     1       6.228   7.249  17.414  0.00  0.00    +0.000 C 
ATOM      6  C   UNL     1       5.307   6.994  16.195  0.00  0.00    +0.000 C 
ATOM      7  C   UNL     1       5.372   6.417  14.726  0.00  0.00    +0.000 C 
ATOM      8  N   UNL     1       4.305   6.058  16.849  0.00  0.00    +0.000 N 
ATOM      9  C   UNL     1       3.106   6.135  17.560  0.00  0.00    +0.000 C 
ATOM     10  O   UNL     1       2.446   5.091  17.719  0.00  0.00    +0.000 OA
ENDROOT
BRANCH   9  11
ATOM     11  C   UNL     1       2.590   7.301  18.299  0.00  0.00    +0.000 A 
ATOM     12  C   UNL     1       2.373   8.557  17.779  0.00  0.00    +0.000 A 
ATOM     13  N   UNL     1       1.768   9.565  18.467  0.00  0.00    +0.000 NA
ATOM     14  C   UNL     1       1.336   9.334  19.732  0.00  0.00    +0.000 A 
ATOM     15  C   UNL     1       0.623  10.305  20.428  0.00  0.00    +0.000 A 
ATOM     16  C   UNL     1       0.126  10.093  21.727  0.00  0.00    +0.000 A 
ATOM     17  C   UNL     1       0.359   8.882  22.360  0.00  0.00    +0.000 A 
ATOM     18  C   UNL     1       1.066   7.888  21.698  0.00  0.00    +0.000 A 
ATOM     19  C   UNL     1       1.549   8.106  20.377  0.00  0.00    +0.000 A 
ATOM     20  C   UNL     1       2.202   7.102  19.643  0.00  0.00    +0.000 A 
ENDBRANCH   9  11
BRANCH   1  26
ATOM     21  C   UNL     1       8.017   5.219  13.058  0.00  0.00    +0.000 C 
ATOM     22  N   UNL     1       6.969   4.239  12.878  0.00  0.00    +0.000 N 
ATOM     23  N   UNL     1       7.111   3.334  11.883  0.00  0.00    +0.000 NA
ATOM     24  C   UNL     1       6.016   2.577  11.984  0.00  0.00    +0.000 A 
ATOM     25  C   UNL     1       5.175   3.000  13.031  0.00  0.00    +0.000 A 
ATOM     26  C   UNL     1       5.812   4.065  13.618  0.00  0.00    +0.000 A 
ENDBRANCH   1  26
TORSDOF 2
ENDMDL
MODEL 8
REMARK VINA RESULT:      -6.7      4.212      8.885
REMARK  Name = 
REMARK  3 active torsions:
REMARK  status: ('A' for Active; 'I' for Inactive)
REMARK    1  A    between atoms: C_1  and  N_2
REMARK    2  A    between atoms: C_6  and  C_7
REMARK    3  A    between atoms: C_15  and  C_17
REMARK                            x       y       z     vdW  Elec       q    Type
REMARK                         _______ _______ _______ _____ _____    ______ ____
ROOT
ATOM      1  C   UNL     1       1.105  12.800  19.438  0.00  0.00    +0.000 C 
ATOM      2  C   UNL     1       0.062  12.249  20.133  0.00  0.00    +0.000 C 
ATOM      3  C   UNL     1      -0.239  10.724  20.177  0.00  0.00    +0.000 C 
ATOM      4  C   UNL     1      -1.050   9.927  19.090  0.00  0.00    +0.000 C 
ATOM      5  C   UNL     1      -0.089   9.769  17.860  0.00  0.00    +0.000 C 
ATOM      6  C   UNL     1       1.196  10.456  18.385  0.00  0.00    +0.000 C 
ATOM      7  C   UNL     1       1.878  11.879  18.430  0.00  0.00    +0.000 C 
ATOM      8  N   UNL     1       1.044  10.140  19.864  0.00  0.00    +0.000 N 
ATOM      9  C   UNL     1       1.387   9.128  20.761  0.00  0.00    +0.000 C 
ATOM     10  O   UNL     1       1.293   9.363  21.981  0.00  0.00    +0.000 OA
ENDROOT
BRANCH   9  11
ATOM     11  C   UNL     1       1.706   7.727  20.434  0.00  0.00    +0.000 A 
ATOM     12  C   UNL     1       1.192   6.613  21.058  0.00  0.00    +0.000 A 
ATOM     13  N   UNL     1       1.413   5.339  20.631  0.00  0.00    +0.000 NA
ATOM     14  C   UNL     1       2.168   5.136  19.522  0.00  0.00    +0.000 A 
ATOM     15  C   UNL     1       2.330   3.857  18.997  0.00  0.00    +0.000 A 
ATOM     16  C   UNL     1       3.073   3.607  17.829  0.00  0.00    +0.000 A 
ATOM     17  C   UNL     1       3.689   4.662  17.172  0.00  0.00    +0.000 A 
ATOM     18  C   UNL     1       3.551   5.951  17.665  0.00  0.00    +0.000 A 
ATOM     19  C   UNL     1       2.780   6.195  18.837  0.00  0.00    +0.000 A 
ATOM     20  C   UNL     1       2.552   7.491  19.326  0.00  0.00    +0.000 A 
ENDBRANCH   9  11
BRANCH   1  26
ATOM     21  C   UNL     1       3.304  13.894  21.214  0.00  0.00    +0.000 C 
ATOM     22  N   UNL     1       2.412  14.657  20.369  0.00  0.00    +0.000 N 
ATOM     23  N   UNL     1       2.597  15.994  20.296  0.00  0.00    +0.000 NA
ATOM     24  C   UNL     1       1.650  16.399  19.445  0.00  0.00    +0.000 A 
ATOM     25  C   UNL     1       0.860  15.329  18.986  0.00  0.00    +0.000 A 
ATOM     26  C   UNL     1       1.374  14.201  19.574  0.00  0.00    +0.000 A 
ENDBRANCH   1  26
TORSDOF 2
ENDMDL
MODEL 9
REMARK VINA RESULT:      -6.6      5.616      9.669
REMARK  Name = 
REMARK  3 active torsions:
REMARK  status: ('A' for Active; 'I' for Inactive)
REMARK    1  A    between atoms: C_1  and  N_2
REMARK    2  A    between atoms: C_6  and  C_7
REMARK    3  A    between atoms: C_15  and  C_17
REMARK                            x       y       z     vdW  Elec       q    Type
REMARK                         _______ _______ _______ _____ _____    ______ ____
ROOT
ATOM      1  C   UNL     1       0.557  10.671  19.589  0.00  0.00    +0.000 C 
ATOM      2  C   UNL     1       1.150  11.584  20.418  0.00  0.00    +0.000 C 
ATOM      3  C   UNL     1       0.369  12.687  21.189  0.00  0.00    +0.000 C 
ATOM      4  C   UNL     1      -0.057  14.080  20.596  0.00  0.00    +0.000 C 
ATOM      5  C   UNL     1      -1.272  13.793  19.644  0.00  0.00    +0.000 C 
ATOM      6  C   UNL     1      -1.447  12.265  19.822  0.00  0.00    +0.000 C 
ATOM      7  C   UNL     1      -0.943  10.906  19.195  0.00  0.00    +0.000 C 
ATOM      8  N   UNL     1      -0.965  12.139  21.258  0.00  0.00    +0.000 N 
ATOM      9  C   UNL     1      -1.489  12.207  22.550  0.00  0.00    +0.000 C 
ATOM     10  O   UNL     1      -0.789  11.791  23.493  0.00  0.00    +0.000 OA
ENDROOT
BRANCH   9  11
ATOM     11  C   UNL     1      -2.737  12.872  22.964  0.00  0.00    +0.000 A 
ATOM     12  C   UNL     1      -2.850  13.861  23.914  0.00  0.00    +0.000 A 
ATOM     13  N   UNL     1      -4.004  14.539  24.166  0.00  0.00    +0.000 NA
ATOM     14  C   UNL     1      -5.112  14.247  23.439  0.00  0.00    +0.000 A 
ATOM     15  C   UNL     1      -6.280  14.988  23.595  0.00  0.00    +0.000 A 
ATOM     16  C   UNL     1      -7.439  14.743  22.836  0.00  0.00    +0.000 A 
ATOM     17  C   UNL     1      -7.441  13.716  21.903  0.00  0.00    +0.000 A 
ATOM     18  C   UNL     1      -6.296  12.956  21.719  0.00  0.00    +0.000 A 
ATOM     19  C   UNL     1      -5.122  13.225  22.478  0.00  0.00    +0.000 A 
ATOM     20  C   UNL     1      -3.920  12.529  22.271  0.00  0.00    +0.000 A 
ENDBRANCH   9  11
BRANCH   1  26
ATOM     21  C   UNL     1       1.189   8.116  21.094  0.00  0.00    +0.000 C 
ATOM     22  N   UNL     1       1.585   8.446  19.743  0.00  0.00    +0.000 N 
ATOM     23  N   UNL     1       2.252   7.511  19.031  0.00  0.00    +0.000 NA
ATOM     24  C   UNL     1       2.455   8.097  17.849  0.00  0.00    +0.000 A 
ATOM     25  C   UNL     1       1.930   9.402  17.808  0.00  0.00    +0.000 A 
ATOM     26  C   UNL     1       1.349   9.612  19.034  0.00  0.00    +0.000 A 
ENDBRANCH   1  26
TORSDOF 2
ENDMDL
