MODEL 1
REMARK VINA RESULT:      -8.9      0.000      0.000
REMARK  Name = 
REMARK  6 active torsions:
REMARK  status: ('A' for Active; 'I' for Inactive)
REMARK    1  A    between atoms: C_2  and  C_22
REMARK    2  A    between atoms: N_3  and  C_4
REMARK    3  A    between atoms: C_6  and  S_7
REMARK    4  A    between atoms: S_7  and  N_10
REMARK    5  A    between atoms: N_10  and  C_11
REMARK    6  A    between atoms: C_20  and  O_21
REMARK                            x       y       z     vdW  Elec       q    Type
REMARK                         _______ _______ _______ _____ _____    ______ ____
ROOT
ATOM      1  C   UNL     1       3.077   6.197  19.462  0.00  0.00    +0.000 A 
ATOM      2  C   UNL     1       3.971   6.589  18.468  0.00  0.00    +0.000 A 
ATOM      3  C   UNL     1       4.741   5.634  17.804  0.00  0.00    +0.000 A 
ATOM      4  C   UNL     1       4.663   4.282  18.150  0.00  0.00    +0.000 A 
ATOM      5  C   UNL     1       3.784   3.882  19.161  0.00  0.00    +0.000 A 
ATOM      6  C   UNL     1       3.004   4.838  19.812  0.00  0.00    +0.000 A 
ENDROOT
BRANCH   1   9
ATOM      7  O   UNL     1       1.687   8.593  18.476  0.00  0.00    +0.000 OA
ATOM      8  C   UNL     1       1.698   8.259  19.658  0.00  0.00    +0.000 C 
ATOM      9  N   UNL     1       2.263   7.106  20.164  0.00  0.00    +0.000 N 
ATOM     10  H   UNL     1       2.093   6.852  21.134  0.00  0.00    +0.000 HD
BRANCH   8  11
ATOM     11  C   UNL     1       0.963   9.130  20.610  0.00  0.00    +0.000 A 
ATOM     12  C   UNL     1       0.340   8.469  21.687  0.00  0.00    +0.000 A 
ATOM     13  C   UNL     1      -0.388   9.185  22.635  0.00  0.00    +0.000 A 
ATOM     14  C   UNL     1      -0.501  10.561  22.502  0.00  0.00    +0.000 A 
ATOM     15  F   UNL     1      -1.194  11.253  23.415  0.00  0.00    +0.000 F 
ATOM     16  C   UNL     1       0.084  11.231  21.434  0.00  0.00    +0.000 A 
ATOM     17  C   UNL     1       0.812  10.518  20.477  0.00  0.00    +0.000 A 
ATOM     18 CL   UNL     1       1.434  11.424  19.143  0.00  0.00    +0.000 Cl
ENDBRANCH   8  11
ENDBRANCH   1   9
BRANCH   3  19
ATOM     19  S   UNL     1       5.876   6.184  16.546  0.00  0.00    +0.000 S 
ATOM     20  O   UNL     1       5.122   6.844  15.504  0.00  0.00    +0.000 OA
ATOM     21  O   UNL     1       6.962   6.861  17.226  0.00  0.00    +0.000 OA
BRANCH  19  22
ATOM     22  N   UNL     1       6.528   4.742  15.948  0.00  0.00    +0.000 N 
ATOM     23  H   UNL     1       6.199   3.933  16.472  0.00  0.00    +0.000 HD
BRANCH  22  24
ATOM     24  C   UNL     1       6.709   4.592  14.546  0.00  0.00    +0.000 A 
ATOM     25  C   UNL     1       7.674   5.359  13.889  0.00  0.00    +0.000 A 
ATOM     26  C   UNL     1       7.892   5.184  12.522  0.00  0.00    +0.000 A 
ATOM     27  C   UNL     1       7.134   4.255  11.809  0.00  0.00    +0.000 A 
ATOM     28  C   UNL     1       6.167   3.498  12.470  0.00  0.00    +0.000 A 
ATOM     29 CL   UNL     1       5.214   2.374  11.578  0.00  0.00    +0.000 Cl
ATOM     30  C   UNL     1       5.959   3.651  13.842  0.00  0.00    +0.000 A 
ENDBRANCH  22  24
ENDBRANCH  19  22
ENDBRANCH   3  19
BRANCH   6  31
ATOM     31  O   UNL     1       2.145   4.470  20.816  0.00  0.00    +0.000 OA
ATOM     32  H   UNL     1       1.652   3.684  20.527  0.00  0.00    +0.000 HD
ENDBRANCH   6  31
TORSDOF 6
ENDMDL
MODEL 2
REMARK VINA RESULT:      -8.7      1.036      1.121
REMARK  Name = 
REMARK  6 active torsions:
REMARK  status: ('A' for Active; 'I' for Inactive)
REMARK    1  A    between atoms: C_2  and  C_22
REMARK    2  A    between atoms: N_3  and  C_4
REMARK    3  A    between atoms: C_6  and  S_7
REMARK    4  A    between atoms: S_7  and  N_10
REMARK    5  A    between atoms: N_10  and  C_11
REMARK    6  A    between atoms: C_20  and  O_21
REMARK                            x       y       z     vdW  Elec       q    Type
REMARK                         _______ _______ _______ _____ _____    ______ ____
ROOT
ATOM      1  C   UNL     1       2.867   5.519  19.957  0.00  0.00    +0.000 A 
ATOM      2  C   UNL     1       3.979   5.741  19.145  0.00  0.00    +0.000 A 
ATOM      3  C   UNL     1       4.723   4.661  18.668  0.00  0.00    +0.000 A 
ATOM      4  C   UNL     1       4.395   3.350  19.026  0.00  0.00    +0.000 A 
ATOM      5  C   UNL     1       3.294   3.119  19.856  0.00  0.00    +0.000 A 
ATOM      6  C   UNL     1       2.544   4.201  20.318  0.00  0.00    +0.000 A 
ENDROOT
BRANCH   1   9
ATOM      7  O   UNL     1       2.249   8.136  18.767  0.00  0.00    +0.000 OA
ATOM      8  C   UNL     1       1.878   7.801  19.889  0.00  0.00    +0.000 C 
ATOM      9  N   UNL     1       2.069   6.561  20.464  0.00  0.00    +0.000 N 
ATOM     10  H   UNL     1       1.598   6.339  21.338  0.00  0.00    +0.000 HD
BRANCH   8  11
ATOM     11  C   UNL     1       1.078   8.790  20.655  0.00  0.00    +0.000 A 
ATOM     12  C   UNL     1       1.126   8.660  22.058  0.00  0.00    +0.000 A 
ATOM     13  C   UNL     1       0.405   9.525  22.877  0.00  0.00    +0.000 A 
ATOM     14  C   UNL     1      -0.372  10.515  22.296  0.00  0.00    +0.000 A 
ATOM     15  F   UNL     1      -1.062  11.353  23.080  0.00  0.00    +0.000 F 
ATOM     16  C   UNL     1      -0.456  10.647  20.914  0.00  0.00    +0.000 A 
ATOM     17  C   UNL     1       0.262   9.779  20.086  0.00  0.00    +0.000 A 
ATOM     18 CL   UNL     1       0.034   9.966  18.384  0.00  0.00    +0.000 Cl
ENDBRANCH   8  11
ENDBRANCH   1   9
BRANCH   3  19
ATOM     19  S   UNL     1       6.140   4.994  17.641  0.00  0.00    +0.000 S 
ATOM     20  O   UNL     1       5.933   6.256  16.968  0.00  0.00    +0.000 OA
ATOM     21  O   UNL     1       7.314   4.768  18.460  0.00  0.00    +0.000 OA
BRANCH  19  22
ATOM     22  N   UNL     1       6.109   3.736  16.511  0.00  0.00    +0.000 N 
ATOM     23  H   UNL     1       5.393   3.046  16.732  0.00  0.00    +0.000 HD
BRANCH  22  24
ATOM     24  C   UNL     1       6.344   4.029  15.140  0.00  0.00    +0.000 A 
ATOM     25  C   UNL     1       7.445   4.812  14.780  0.00  0.00    +0.000 A 
ATOM     26  C   UNL     1       7.709   5.065  13.434  0.00  0.00    +0.000 A 
ATOM     27  C   UNL     1       6.866   4.552  12.450  0.00  0.00    +0.000 A 
ATOM     28  C   UNL     1       5.765   3.777  12.816  0.00  0.00    +0.000 A 
ATOM     29 CL   UNL     1       4.710   3.172  11.597  0.00  0.00    +0.000 Cl
ATOM     30  C   UNL     1       5.506   3.500  14.160  0.00  0.00    +0.000 A 
ENDBRANCH  22  24
ENDBRANCH  19  22
ENDBRANCH   3  19
BRANCH   6  31
ATOM     31  O   UNL     1       1.468   3.999  21.145  0.00  0.00    +0.000 OA
ATOM     32  H   UNL     1       0.874   3.353  20.727  0.00  0.00    +0.000 HD
ENDBRANCH   6  31
TORSDOF 6
ENDMDL
MODEL 3
REMARK VINA RESULT:      -8.7      1.801      2.084
REMARK  Name = 
REMARK  6 active torsions:
REMARK  status: ('A' for Active; 'I' for Inactive)
REMARK    1  A    between atoms: C_2  and  C_22
REMARK    2  A    between atoms: N_3  and  C_4
REMARK    3  A    between atoms: C_6  and  S_7
REMARK    4  A    between atoms: S_7  and  N_10
REMARK    5  A    between atoms: N_10  and  C_11
REMARK    6  A    between atoms: C_20  and  O_21
REMARK                            x       y       z     vdW  Elec       q    Type
REMARK                         _______ _______ _______ _____ _____    ______ ____
ROOT
ATOM      1  C   UNL     1       2.573   7.162  18.689  0.00  0.00    +0.000 A 
ATOM      2  C   UNL     1       3.495   7.238  17.646  0.00  0.00    +0.000 A 
ATOM      3  C   UNL     1       4.572   6.352  17.598  0.00  0.00    +0.000 A 
ATOM      4  C   UNL     1       4.768   5.407  18.609  0.00  0.00    +0.000 A 
ATOM      5  C   UNL     1       3.859   5.337  19.670  0.00  0.00    +0.000 A 
ATOM      6  C   UNL     1       2.776   6.215  19.705  0.00  0.00    +0.000 A 
ENDROOT
BRANCH   1   9
ATOM      7  O   UNL     1       2.166   9.831  17.524  0.00  0.00    +0.000 OA
ATOM      8  C   UNL     1       1.360   9.297  18.282  0.00  0.00    +0.000 C 
ATOM      9  N   UNL     1       1.461   8.018  18.792  0.00  0.00    +0.000 N 
ATOM     10  H   UNL     1       0.671   7.618  19.294  0.00  0.00    +0.000 HD
BRANCH   8  11
ATOM     11  C   UNL     1       0.130  10.062  18.604  0.00  0.00    +0.000 A 
ATOM     12  C   UNL     1      -0.901   9.995  17.647  0.00  0.00    +0.000 A 
ATOM     13  C   UNL     1      -2.096  10.685  17.839  0.00  0.00    +0.000 A 
ATOM     14  C   UNL     1      -2.258  11.450  18.984  0.00  0.00    +0.000 A 
ATOM     15  F   UNL     1      -3.407  12.108  19.177  0.00  0.00    +0.000 F 
ATOM     16  C   UNL     1      -1.245  11.552  19.931  0.00  0.00    +0.000 A 
ATOM     17  C   UNL     1      -0.041  10.866  19.742  0.00  0.00    +0.000 A 
ATOM     18 CL   UNL     1       1.188  11.116  20.930  0.00  0.00    +0.000 Cl
ENDBRANCH   8  11
ENDBRANCH   1   9
BRANCH   3  19
ATOM     19  S   UNL     1       5.728   6.493  16.251  0.00  0.00    +0.000 S 
ATOM     20  O   UNL     1       5.087   7.204  15.168  0.00  0.00    +0.000 OA
ATOM     21  O   UNL     1       6.977   6.963  16.817  0.00  0.00    +0.000 OA
BRANCH  19  22
ATOM     22  N   UNL     1       5.997   4.886  15.795  0.00  0.00    +0.000 N 
ATOM     23  H   UNL     1       5.357   4.248  16.265  0.00  0.00    +0.000 HD
BRANCH  22  24
ATOM     24  C   UNL     1       6.349   4.597  14.449  0.00  0.00    +0.000 A 
ATOM     25  C   UNL     1       7.495   5.176  13.895  0.00  0.00    +0.000 A 
ATOM     26  C   UNL     1       7.874   4.860  12.590  0.00  0.00    +0.000 A 
ATOM     27  C   UNL     1       7.101   3.981  11.834  0.00  0.00    +0.000 A 
ATOM     28  C   UNL     1       5.954   3.412  12.390  0.00  0.00    +0.000 A 
ATOM     29 CL   UNL     1       4.988   2.351  11.439  0.00  0.00    +0.000 Cl
ATOM     30  C   UNL     1       5.581   3.705  13.703  0.00  0.00    +0.000 A 
ENDBRANCH  22  24
ENDBRANCH  19  22
ENDBRANCH   3  19
BRANCH   6  31
ATOM     31  O   UNL     1       1.881   6.173  20.744  0.00  0.00    +0.000 OA
ATOM     32  H   UNL     1       1.353   5.361  20.664  0.00  0.00    +0.000 HD
ENDBRANCH   6  31
TORSDOF 6
ENDMDL
MODEL 4
REMARK VINA RESULT:      -8.4      1.367      1.647
REMARK  Name = 
REMARK  6 active torsions:
REMARK  status: ('A' for Active; 'I' for Inactive)
REMARK    1  A    between atoms: C_2  and  C_22
REMARK    2  A    between atoms: N_3  and  C_4
REMARK    3  A    between atoms: C_6  and  S_7
REMARK    4  A    between atoms: S_7  and  N_10
REMARK    5  A    between atoms: N_10  and  C_11
REMARK    6  A    between atoms: C_20  and  O_21
REMARK                            x       y       z     vdW  Elec       q    Type
REMARK                         _______ _______ _______ _____ _____    ______ ____
ROOT
ATOM      1  C   UNL     1       2.875   5.562  19.858  0.00  0.00    +0.000 A 
ATOM      2  C   UNL     1       3.888   5.798  18.930  0.00  0.00    +0.000 A 
ATOM      3  C   UNL     1       4.633   4.733  18.421  0.00  0.00    +0.000 A 
ATOM      4  C   UNL     1       4.409   3.426  18.862  0.00  0.00    +0.000 A 
ATOM      5  C   UNL     1       3.409   3.182  19.809  0.00  0.00    +0.000 A 
ATOM      6  C   UNL     1       2.656   4.248  20.303  0.00  0.00    +0.000 A 
ENDROOT
BRANCH   1   9
ATOM      7  O   UNL     1       2.195   8.188  18.725  0.00  0.00    +0.000 OA
ATOM      8  C   UNL     1       1.860   7.834  19.852  0.00  0.00    +0.000 C 
ATOM      9  N   UNL     1       2.081   6.588  20.403  0.00  0.00    +0.000 N 
ATOM     10  H   UNL     1       1.638   6.348  21.287  0.00  0.00    +0.000 HD
BRANCH   8  11
ATOM     11  C   UNL     1       1.072   8.802  20.655  0.00  0.00    +0.000 A 
ATOM     12  C   UNL     1       1.150   8.643  22.053  0.00  0.00    +0.000 A 
ATOM     13  C   UNL     1       0.442   9.488  22.905  0.00  0.00    +0.000 A 
ATOM     14  C   UNL     1      -0.351  10.486  22.361  0.00  0.00    +0.000 A 
ATOM     15  F   UNL     1      -1.028  11.305  23.176  0.00  0.00    +0.000 F 
ATOM     16  C   UNL     1      -0.464  10.647  20.985  0.00  0.00    +0.000 A 
ATOM     17  C   UNL     1       0.241   9.799  20.124  0.00  0.00    +0.000 A 
ATOM     18 CL   UNL     1      -0.023  10.022  18.430  0.00  0.00    +0.000 Cl
ENDBRANCH   8  11
ENDBRANCH   1   9
BRANCH   3  19
ATOM     19  S   UNL     1       5.921   5.085  17.243  0.00  0.00    +0.000 S 
ATOM     20  O   UNL     1       5.582   6.302  16.541  0.00  0.00    +0.000 OA
ATOM     21  O   UNL     1       7.182   4.956  17.947  0.00  0.00    +0.000 OA
BRANCH  19  22
ATOM     22  N   UNL     1       5.846   3.774  16.177  0.00  0.00    +0.000 N 
ATOM     23  H   UNL     1       5.035   3.185  16.358  0.00  0.00    +0.000 HD
BRANCH  22  24
ATOM     24  C   UNL     1       6.240   3.958  14.823  0.00  0.00    +0.000 A 
ATOM     25  C   UNL     1       5.536   3.308  13.805  0.00  0.00    +0.000 A 
ATOM     26  C   UNL     1       5.886   3.520  12.472  0.00  0.00    +0.000 A 
ATOM     27  C   UNL     1       6.947   4.368  12.156  0.00  0.00    +0.000 A 
ATOM     28  C   UNL     1       7.650   5.007  13.178  0.00  0.00    +0.000 A 
ATOM     29 CL   UNL     1       8.979   6.028  12.781  0.00  0.00    +0.000 Cl
ATOM     30  C   UNL     1       7.292   4.818  14.513  0.00  0.00    +0.000 A 
ENDBRANCH  22  24
ENDBRANCH  19  22
ENDBRANCH   3  19
BRANCH   6  31
ATOM     31  O   UNL     1       1.680   4.034  21.242  0.00  0.00    +0.000 OA
ATOM     32  H   UNL     1       2.072   3.555  21.992  0.00  0.00    +0.000 HD
ENDBRANCH   6  31
TORSDOF 6
ENDMDL
MODEL 5
REMARK VINA RESULT:      -8.4      1.954      2.515
REMARK  Name = 
REMARK  6 active torsions:
REMARK  status: ('A' for Active; 'I' for Inactive)
REMARK    1  A    between atoms: C_2  and  C_22
REMARK    2  A    between atoms: N_3  and  C_4
REMARK    3  A    between atoms: C_6  and  S_7
REMARK    4  A    between atoms: S_7  and  N_10
REMARK    5  A    between atoms: N_10  and  C_11
REMARK    6  A    between atoms: C_20  and  O_21
REMARK                            x       y       z     vdW  Elec       q    Type
REMARK                         _______ _______ _______ _____ _____    ______ ____
ROOT
ATOM      1  C   UNL     1       2.911   5.991  19.623  0.00  0.00    +0.000 A 
ATOM      2  C   UNL     1       4.248   6.212  19.296  0.00  0.00    +0.000 A 
ATOM      3  C   UNL     1       5.136   5.139  19.219  0.00  0.00    +0.000 A 
ATOM      4  C   UNL     1       4.715   3.837  19.506  0.00  0.00    +0.000 A 
ATOM      5  C   UNL     1       3.380   3.608  19.854  0.00  0.00    +0.000 A 
ATOM      6  C   UNL     1       2.492   4.683  19.916  0.00  0.00    +0.000 A 
ENDROOT
BRANCH   1   9
ATOM      7  O   UNL     1       2.687   8.446  18.021  0.00  0.00    +0.000 OA
ATOM      8  C   UNL     1       1.954   8.195  18.974  0.00  0.00    +0.000 C 
ATOM      9  N   UNL     1       1.961   7.026  19.709  0.00  0.00    +0.000 N 
ATOM     10  H   UNL     1       1.220   6.858  20.385  0.00  0.00    +0.000 HD
BRANCH   8  11
ATOM     11  C   UNL     1       0.915   9.200  19.307  0.00  0.00    +0.000 A 
ATOM     12  C   UNL     1       0.246   9.776  18.209  0.00  0.00    +0.000 A 
ATOM     13  C   UNL     1      -0.740  10.740  18.402  0.00  0.00    +0.000 A 
ATOM     14  C   UNL     1      -1.053  11.138  19.693  0.00  0.00    +0.000 A 
ATOM     15  F   UNL     1      -2.005  12.059  19.884  0.00  0.00    +0.000 F 
ATOM     16  C   UNL     1      -0.389  10.603  20.791  0.00  0.00    +0.000 A 
ATOM     17  C   UNL     1       0.605   9.637  20.604  0.00  0.00    +0.000 A 
ATOM     18 CL   UNL     1       1.430   9.090  22.020  0.00  0.00    +0.000 Cl
ENDBRANCH   8  11
ENDBRANCH   1   9
BRANCH   3  19
ATOM     19  S   UNL     1       6.837   5.472  18.806  0.00  0.00    +0.000 S 
ATOM     20  O   UNL     1       6.900   6.732  18.101  0.00  0.00    +0.000 OA
ATOM     21  O   UNL     1       7.612   5.250  20.010  0.00  0.00    +0.000 OA
BRANCH  19  22
ATOM     22  N   UNL     1       7.239   4.211  17.753  0.00  0.00    +0.000 N 
ATOM     23  H   UNL     1       7.234   3.308  18.225  0.00  0.00    +0.000 HD
BRANCH  22  24
ATOM     24  C   UNL     1       6.779   4.257  16.409  0.00  0.00    +0.000 A 
ATOM     25  C   UNL     1       5.510   3.761  16.097  0.00  0.00    +0.000 A 
ATOM     26  C   UNL     1       5.031   3.846  14.789  0.00  0.00    +0.000 A 
ATOM     27  C   UNL     1       5.826   4.409  13.791  0.00  0.00    +0.000 A 
ATOM     28  C   UNL     1       7.094   4.895  14.109  0.00  0.00    +0.000 A 
ATOM     29 CL   UNL     1       8.082   5.562  12.865  0.00  0.00    +0.000 Cl
ATOM     30  C   UNL     1       7.571   4.835  15.419  0.00  0.00    +0.000 A 
ENDBRANCH  22  24
ENDBRANCH  19  22
ENDBRANCH   3  19
BRANCH   6  31
ATOM     31  O   UNL     1       1.182   4.483  20.269  0.00  0.00    +0.000 OA
ATOM     32  H   UNL     1       0.786   5.344  20.488  0.00  0.00    +0.000 HD
ENDBRANCH   6  31
TORSDOF 6
ENDMDL
MODEL 6
REMARK VINA RESULT:      -8.4      1.424      1.715
REMARK  Name = 
REMARK  6 active torsions:
REMARK  status: ('A' for Active; 'I' for Inactive)
REMARK    1  A    between atoms: C_2  and  C_22
REMARK    2  A    between atoms: N_3  and  C_4
REMARK    3  A    between atoms: C_6  and  S_7
REMARK    4  A    between atoms: S_7  and  N_10
REMARK    5  A    between atoms: N_10  and  C_11
REMARK    6  A    between atoms: C_20  and  O_21
REMARK                            x       y       z     vdW  Elec       q    Type
REMARK                         _______ _______ _______ _____ _____    ______ ____
ROOT
ATOM      1  C   UNL     1       3.150   6.529  18.947  0.00  0.00    +0.000 A 
ATOM      2  C   UNL     1       3.996   6.678  17.849  0.00  0.00    +0.000 A 
ATOM      3  C   UNL     1       4.988   5.729  17.596  0.00  0.00    +0.000 A 
ATOM      4  C   UNL     1       5.177   4.644  18.456  0.00  0.00    +0.000 A 
ATOM      5  C   UNL     1       4.346   4.497  19.571  0.00  0.00    +0.000 A 
ATOM      6  C   UNL     1       3.346   5.440  19.811  0.00  0.00    +0.000 A 
ENDROOT
BRANCH   1   9
ATOM      7  O   UNL     1       2.371   8.991  17.540  0.00  0.00    +0.000 OA
ATOM      8  C   UNL     1       1.856   8.625  18.594  0.00  0.00    +0.000 C 
ATOM      9  N   UNL     1       2.125   7.443  19.254  0.00  0.00    +0.000 N 
ATOM     10  H   UNL     1       1.542   7.168  20.041  0.00  0.00    +0.000 HD
BRANCH   8  11
ATOM     11  C   UNL     1       0.791   9.491  19.158  0.00  0.00    +0.000 A 
ATOM     12  C   UNL     1       0.010  10.191  18.218  0.00  0.00    +0.000 A 
ATOM     13  C   UNL     1      -1.011  11.043  18.634  0.00  0.00    +0.000 A 
ATOM     14  C   UNL     1      -1.246  11.204  19.991  0.00  0.00    +0.000 A 
ATOM     15  F   UNL     1      -2.230  12.016  20.396  0.00  0.00    +0.000 F 
ATOM     16  C   UNL     1      -0.472  10.544  20.939  0.00  0.00    +0.000 A 
ATOM     17  C   UNL     1       0.557   9.690  20.527  0.00  0.00    +0.000 A 
ATOM     18 CL   UNL     1       1.517   8.977  21.775  0.00  0.00    +0.000 Cl
ENDBRANCH   8  11
ENDBRANCH   1   9
BRANCH   3  19
ATOM     19  S   UNL     1       6.050   5.967  16.187  0.00  0.00    +0.000 S 
ATOM     20  O   UNL     1       5.370   6.818  15.237  0.00  0.00    +0.000 OA
ATOM     21  O   UNL     1       7.359   6.317  16.701  0.00  0.00    +0.000 OA
BRANCH  19  22
ATOM     22  N   UNL     1       6.203   4.409  15.544  0.00  0.00    +0.000 N 
ATOM     23  H   UNL     1       5.662   3.727  16.074  0.00  0.00    +0.000 HD
BRANCH  22  24
ATOM     24  C   UNL     1       6.274   4.245  14.134  0.00  0.00    +0.000 A 
ATOM     25  C   UNL     1       7.436   4.621  13.454  0.00  0.00    +0.000 A 
ATOM     26  C   UNL     1       7.533   4.418  12.077  0.00  0.00    +0.000 A 
ATOM     27  C   UNL     1       6.464   3.857  11.378  0.00  0.00    +0.000 A 
ATOM     28  C   UNL     1       5.305   3.491  12.063  0.00  0.00    +0.000 A 
ATOM     29 CL   UNL     1       3.979   2.826  11.189  0.00  0.00    +0.000 Cl
ATOM     30  C   UNL     1       5.210   3.668  13.444  0.00  0.00    +0.000 A 
ENDBRANCH  22  24
ENDBRANCH  19  22
ENDBRANCH   3  19
BRANCH   6  31
ATOM     31  O   UNL     1       2.529   5.324  20.907  0.00  0.00    +0.000 OA
ATOM     32  H   UNL     1       1.966   4.540  20.791  0.00  0.00    +0.000 HD
ENDBRANCH   6  31
TORSDOF 6
ENDMDL
MODEL 7
REMARK VINA RESULT:      -8.2      2.867      3.532
REMARK  Name = 
REMARK  6 active torsions:
REMARK  status: ('A' for Active; 'I' for Inactive)
REMARK    1  A    between atoms: C_2  and  C_22
REMARK    2  A    between atoms: N_3  and  C_4
REMARK    3  A    between atoms: C_6  and  S_7
REMARK    4  A    between atoms: S_7  and  N_10
REMARK    5  A    between atoms: N_10  and  C_11
REMARK    6  A    between atoms: C_20  and  O_21
REMARK                            x       y       z     vdW  Elec       q    Type
REMARK                         _______ _______ _______ _____ _____    ______ ____
ROOT
ATOM      1  C   UNL     1       3.199   5.883  18.682  0.00  0.00    +0.000 A 
ATOM      2  C   UNL     1       3.866   6.148  17.486  0.00  0.00    +0.000 A 
ATOM      3  C   UNL     1       4.508   5.117  16.800  0.00  0.00    +0.000 A 
ATOM      4  C   UNL     1       4.531   3.818  17.315  0.00  0.00    +0.000 A 
ATOM      5  C   UNL     1       3.882   3.546  18.524  0.00  0.00    +0.000 A 
ATOM      6  C   UNL     1       3.228   4.577  19.199  0.00  0.00    +0.000 A 
ENDROOT
BRANCH   1   9
ATOM      7  O   UNL     1       1.668   8.199  17.716  0.00  0.00    +0.000 OA
ATOM      8  C   UNL     1       1.883   7.983  18.906  0.00  0.00    +0.000 C 
ATOM      9  N   UNL     1       2.524   6.873  19.419  0.00  0.00    +0.000 N 
ATOM     10  H   UNL     1       2.525   6.719  20.425  0.00  0.00    +0.000 HD
BRANCH   8  11
ATOM     11  C   UNL     1       1.329   8.958  19.878  0.00  0.00    +0.000 A 
ATOM     12  C   UNL     1       0.806   8.407  21.065  0.00  0.00    +0.000 A 
ATOM     13  C   UNL     1       0.248   9.227  22.043  0.00  0.00    +0.000 A 
ATOM     14  C   UNL     1       0.204  10.597  21.833  0.00  0.00    +0.000 A 
ATOM     15  F   UNL     1      -0.324  11.389  22.774  0.00  0.00    +0.000 F 
ATOM     16  C   UNL     1       0.691  11.161  20.659  0.00  0.00    +0.000 A 
ATOM     17  C   UNL     1       1.248  10.343  19.671  0.00  0.00    +0.000 A 
ATOM     18 CL   UNL     1       1.753  11.123  18.214  0.00  0.00    +0.000 Cl
ENDBRANCH   8  11
ENDBRANCH   1   9
BRANCH   3  19
ATOM     19  S   UNL     1       5.353   5.506  15.281  0.00  0.00    +0.000 S 
ATOM     20  O   UNL     1       5.052   4.478  14.311  0.00  0.00    +0.000 OA
ATOM     21  O   UNL     1       5.087   6.902  14.997  0.00  0.00    +0.000 OA
BRANCH  19  22
ATOM     22  N   UNL     1       6.988   5.421  15.709  0.00  0.00    +0.000 N 
ATOM     23  H   UNL     1       7.596   5.521  14.899  0.00  0.00    +0.000 HD
BRANCH  22  24
ATOM     24  C   UNL     1       7.415   6.003  16.934  0.00  0.00    +0.000 A 
ATOM     25  C   UNL     1       7.595   5.192  18.058  0.00  0.00    +0.000 A 
ATOM     26  C   UNL     1       8.060   5.748  19.250  0.00  0.00    +0.000 A 
ATOM     27  C   UNL     1       8.328   7.114  19.324  0.00  0.00    +0.000 A 
ATOM     28  C   UNL     1       8.140   7.919  18.200  0.00  0.00    +0.000 A 
ATOM     29 CL   UNL     1       8.444   9.610  18.308  0.00  0.00    +0.000 Cl
ATOM     30  C   UNL     1       7.697   7.366  16.997  0.00  0.00    +0.000 A 
ENDBRANCH  22  24
ENDBRANCH  19  22
ENDBRANCH   3  19
BRANCH   6  31
ATOM     31  O   UNL     1       2.598   4.337  20.393  0.00  0.00    +0.000 OA
ATOM     32  H   UNL     1       1.757   4.824  20.402  0.00  0.00    +0.000 HD
ENDBRANCH   6  31
TORSDOF 6
ENDMDL
MODEL 8
REMARK VINA RESULT:      -8.0      1.340      1.723
REMARK  Name = 
REMARK  6 active torsions:
REMARK  status: ('A' for Active; 'I' for Inactive)
REMARK    1  A    between atoms: C_2  and  C_22
REMARK    2  A    between atoms: N_3  and  C_4
REMARK    3  A    between atoms: C_6  and  S_7
REMARK    4  A    between atoms: S_7  and  N_10
REMARK    5  A    between atoms: N_10  and  C_11
REMARK    6  A    between atoms: C_20  and  O_21
REMARK                            x       y       z     vdW  Elec       q    Type
REMARK                         _______ _______ _______ _____ _____    ______ ____
ROOT
ATOM      1  C   UNL     1       2.939   6.485  19.290  0.00  0.00    +0.000 A 
ATOM      2  C   UNL     1       4.058   6.545  18.460  0.00  0.00    +0.000 A 
ATOM      3  C   UNL     1       4.729   5.373  18.105  0.00  0.00    +0.000 A 
ATOM      4  C   UNL     1       4.320   4.133  18.604  0.00  0.00    +0.000 A 
ATOM      5  C   UNL     1       3.211   4.066  19.453  0.00  0.00    +0.000 A 
ATOM      6  C   UNL     1       2.535   5.238  19.794  0.00  0.00    +0.000 A 
ENDROOT
BRANCH   1   9
ATOM      7  O   UNL     1       1.546   8.461  17.618  0.00  0.00    +0.000 OA
ATOM      8  C   UNL     1       1.642   8.559  18.838  0.00  0.00    +0.000 C 
ATOM      9  N   UNL     1       2.212   7.625  19.679  0.00  0.00    +0.000 N 
ATOM     10  H   UNL     1       2.113   7.734  20.686  0.00  0.00    +0.000 HD
BRANCH   8  11
ATOM     11  C   UNL     1       1.011   9.746  19.469  0.00  0.00    +0.000 A 
ATOM     12  C   UNL     1       1.360  10.992  18.912  0.00  0.00    +0.000 A 
ATOM     13  C   UNL     1       0.838  12.174  19.432  0.00  0.00    +0.000 A 
ATOM     14  C   UNL     1      -0.026  12.113  20.515  0.00  0.00    +0.000 A 
ATOM     15  F   UNL     1      -0.535  13.246  21.014  0.00  0.00    +0.000 F 
ATOM     16  C   UNL     1      -0.364  10.897  21.098  0.00  0.00    +0.000 A 
ATOM     17  C   UNL     1       0.160   9.707  20.583  0.00  0.00    +0.000 A 
ATOM     18 CL   UNL     1      -0.253   8.253  21.421  0.00  0.00    +0.000 Cl
ENDBRANCH   8  11
ENDBRANCH   1   9
BRANCH   3  19
ATOM     19  S   UNL     1       6.158   5.501  17.050  0.00  0.00    +0.000 S 
ATOM     20  O   UNL     1       5.991   6.647  16.186  0.00  0.00    +0.000 OA
ATOM     21  O   UNL     1       7.323   5.371  17.903  0.00  0.00    +0.000 OA
BRANCH  19  22
ATOM     22  N   UNL     1       6.094   4.082  16.130  0.00  0.00    +0.000 N 
ATOM     23  H   UNL     1       5.361   3.454  16.455  0.00  0.00    +0.000 HD
BRANCH  22  24
ATOM     24  C   UNL     1       6.331   4.153  14.730  0.00  0.00    +0.000 A 
ATOM     25  C   UNL     1       7.455   4.833  14.254  0.00  0.00    +0.000 A 
ATOM     26  C   UNL     1       7.721   4.866  12.885  0.00  0.00    +0.000 A 
ATOM     27  C   UNL     1       6.857   4.235  11.992  0.00  0.00    +0.000 A 
ATOM     28  C   UNL     1       5.732   3.564  12.473  0.00  0.00    +0.000 A 
ATOM     29 CL   UNL     1       4.653   2.812  11.362  0.00  0.00    +0.000 Cl
ATOM     30  C   UNL     1       5.472   3.506  13.844  0.00  0.00    +0.000 A 
ENDBRANCH  22  24
ENDBRANCH  19  22
ENDBRANCH   3  19
BRANCH   6  31
ATOM     31  O   UNL     1       1.453   5.197  20.636  0.00  0.00    +0.000 OA
ATOM     32  H   UNL     1       1.420   4.320  21.054  0.00  0.00    +0.000 HD
ENDBRANCH   6  31
TORSDOF 6
ENDMDL
MODEL 9
REMARK VINA RESULT:      -8.0      4.447      9.229
REMARK  Name = 
REMARK  6 active torsions:
REMARK  status: ('A' for Active; 'I' for Inactive)
REMARK    1  A    between atoms: C_2  and  C_22
REMARK    2  A    between atoms: N_3  and  C_4
REMARK    3  A    between atoms: C_6  and  S_7
REMARK    4  A    between atoms: S_7  and  N_10
REMARK    5  A    between atoms: N_10  and  C_11
REMARK    6  A    between atoms: C_20  and  O_21
REMARK                            x       y       z     vdW  Elec       q    Type
REMARK                         _______ _______ _______ _____ _____    ______ ____
ROOT
ATOM      1  C   UNL     1       1.978   7.770  19.193  0.00  0.00    +0.000 A 
ATOM      2  C   UNL     1       1.699   9.118  18.976  0.00  0.00    +0.000 A 
ATOM      3  C   UNL     1       1.039   9.862  19.954  0.00  0.00    +0.000 A 
ATOM      4  C   UNL     1       0.609   9.264  21.142  0.00  0.00    +0.000 A 
ATOM      5  C   UNL     1       0.866   7.906  21.360  0.00  0.00    +0.000 A 
ATOM      6  C   UNL     1       1.541   7.170  20.386  0.00  0.00    +0.000 A 
ENDROOT
BRANCH   1   9
ATOM      7  O   UNL     1       4.352   6.073  19.556  0.00  0.00    +0.000 OA
ATOM      8  C   UNL     1       3.808   6.247  18.468  0.00  0.00    +0.000 C 
ATOM      9  N   UNL     1       2.649   6.965  18.253  0.00  0.00    +0.000 N 
ATOM     10  H   UNL     1       2.202   6.929  17.340  0.00  0.00    +0.000 HD
BRANCH   8  11
ATOM     11  C   UNL     1       4.403   5.552  17.299  0.00  0.00    +0.000 A 
ATOM     12  C   UNL     1       4.961   6.386  16.310  0.00  0.00    +0.000 A 
ATOM     13  C   UNL     1       5.536   5.843  15.164  0.00  0.00    +0.000 A 
ATOM     14  C   UNL     1       5.546   4.466  15.000  0.00  0.00    +0.000 A 
ATOM     15  F   UNL     1       6.104   3.939  13.903  0.00  0.00    +0.000 F 
ATOM     16  C   UNL     1       4.978   3.624  15.950  0.00  0.00    +0.000 A 
ATOM     17  C   UNL     1       4.396   4.163  17.101  0.00  0.00    +0.000 A 
ATOM     18 CL   UNL     1       3.645   3.046  18.185  0.00  0.00    +0.000 Cl
ENDBRANCH   8  11
ENDBRANCH   1   9
BRANCH   3  19
ATOM     19  S   UNL     1       0.697  11.579  19.628  0.00  0.00    +0.000 S 
ATOM     20  O   UNL     1      -0.251  12.054  20.611  0.00  0.00    +0.000 OA
ATOM     21  O   UNL     1       1.976  12.236  19.447  0.00  0.00    +0.000 OA
BRANCH  19  22
ATOM     22  N   UNL     1      -0.033  11.551  18.103  0.00  0.00    +0.000 N 
ATOM     23  H   UNL     1       0.609  11.225  17.382  0.00  0.00    +0.000 HD
BRANCH  22  24
ATOM     24  C   UNL     1      -1.398  11.170  17.994  0.00  0.00    +0.000 A 
ATOM     25  C   UNL     1      -1.733   9.984  17.334  0.00  0.00    +0.000 A 
ATOM     26  C   UNL     1      -3.066   9.578  17.265  0.00  0.00    +0.000 A 
ATOM     27  C   UNL     1      -4.064  10.363  17.839  0.00  0.00    +0.000 A 
ATOM     28  C   UNL     1      -3.724  11.549  18.491  0.00  0.00    +0.000 A 
ATOM     29 CL   UNL     1      -4.966  12.529  19.172  0.00  0.00    +0.000 Cl
ATOM     30  C   UNL     1      -2.390  11.951  18.585  0.00  0.00    +0.000 A 
ENDBRANCH  22  24
ENDBRANCH  19  22
ENDBRANCH   3  19
BRANCH   6  31
ATOM     31  O   UNL     1       1.791   5.835  20.572  0.00  0.00    +0.000 OA
ATOM     32  H   UNL     1       1.716   5.635  21.520  0.00  0.00    +0.000 HD
ENDBRANCH   6  31
TORSDOF 6
ENDMDL
