MODEL 1
REMARK VINA RESULT:      -8.8      0.000      0.000
REMARK  Name = 
REMARK  6 active torsions:
REMARK  status: ('A' for Active; 'I' for Inactive)
REMARK    1  A    between atoms: C_1  and  N_2
REMARK    2  A    between atoms: C_6  and  C_7
REMARK    3  A    between atoms: C_10  and  N_11
REMARK    4  A    between atoms: C_12  and  C_14
REMARK    5  A    between atoms: C_18  and  C_19
REMARK    6  A    between atoms: C_19  and  N_20
REMARK                            x       y       z     vdW  Elec       q    Type
REMARK                         _______ _______ _______ _____ _____    ______ ____
ROOT
ATOM      1  N   UNL     1       0.981   7.856  21.304  0.00  0.00    +0.000 N 
ATOM      2  C   UNL     1       1.697   7.555  20.157  0.00  0.00    +0.000 C 
ATOM      3  O   UNL     1       2.099   8.330  19.297  0.00  0.00    +0.000 OA
ATOM      4  H   UNL     1       0.739   7.092  21.922  0.00  0.00    +0.000 HD
ENDROOT
BRANCH   1   8
ATOM      5  C   UNL     1      -0.717  11.555  22.431  0.00  0.00    +0.000 A 
ATOM      6  C   UNL     1      -0.026  11.431  21.225  0.00  0.00    +0.000 A 
ATOM      7  C   UNL     1       0.570  10.226  20.853  0.00  0.00    +0.000 A 
ATOM      8  C   UNL     1       0.430   9.100  21.652  0.00  0.00    +0.000 A 
ATOM      9  C   UNL     1      -0.331   9.184  22.820  0.00  0.00    +0.000 A 
ATOM     10  C   UNL     1      -0.897  10.405  23.211  0.00  0.00    +0.000 A 
BRANCH   5  16
ATOM     11  C   UNL     1      -3.609  12.739  21.977  0.00  0.00    +0.000 C 
ATOM     12  N   UNL     1      -2.509  13.337  22.686  0.00  0.00    +0.000 N 
ATOM     13  C   UNL     1      -2.524  14.593  23.223  0.00  0.00    +0.000 A 
ATOM     14  N   UNL     1      -1.354  14.860  23.741  0.00  0.00    +0.000 NA
ATOM     15  N   UNL     1      -0.543  13.773  23.522  0.00  0.00    +0.000 NA
ATOM     16  C   UNL     1      -1.240  12.840  22.890  0.00  0.00    +0.000 A 
ENDBRANCH   5  16
ENDBRANCH   1   8
BRANCH   2  17
ATOM     17  C   UNL     1       1.885   6.104  19.939  0.00  0.00    +0.000 A 
ATOM     18  C   UNL     1       1.442   5.167  20.876  0.00  0.00    +0.000 A 
ATOM     19  C   UNL     1       1.388   3.825  20.523  0.00  0.00    +0.000 A 
ATOM     20  C   UNL     1       1.836   3.419  19.265  0.00  0.00    +0.000 A 
ATOM     21  C   UNL     1       2.427   4.332  18.375  0.00  0.00    +0.000 A 
ATOM     22  C   UNL     1       2.415   5.688  18.711  0.00  0.00    +0.000 A 
BRANCH  21  23
ATOM     23  C   UNL     1       3.035   3.857  17.077  0.00  0.00    +0.000 C 
BRANCH  23  24
ATOM     24  N   UNL     1       4.468   3.555  17.087  0.00  0.00    +0.000 NA
ATOM     25  C   UNL     1       5.241   3.866  18.283  0.00  0.00    +0.000 C 
ATOM     26  C   UNL     1       5.828   5.261  18.386  0.00  0.00    +0.000 C 
ATOM     27  S   UNL     1       6.633   5.799  16.903  0.00  0.00    +0.000 S 
ATOM     28  O   UNL     1       6.527   7.248  16.856  0.00  0.00    +0.000 OA
ATOM     29  O   UNL     1       7.936   5.164  16.856  0.00  0.00    +0.000 OA
ATOM     30  C   UNL     1       5.666   5.151  15.566  0.00  0.00    +0.000 C 
ATOM     31  C   UNL     1       5.208   3.738  15.844  0.00  0.00    +0.000 C 
ENDBRANCH  23  24
ENDBRANCH  21  23
ENDBRANCH   2  17
TORSDOF 5
ENDMDL
MODEL 2
REMARK VINA RESULT:      -8.8      2.412      3.786
REMARK  Name = 
REMARK  6 active torsions:
REMARK  status: ('A' for Active; 'I' for Inactive)
REMARK    1  A    between atoms: C_1  and  N_2
REMARK    2  A    between atoms: C_6  and  C_7
REMARK    3  A    between atoms: C_10  and  N_11
REMARK    4  A    between atoms: C_12  and  C_14
REMARK    5  A    between atoms: C_18  and  C_19
REMARK    6  A    between atoms: C_19  and  N_20
REMARK                            x       y       z     vdW  Elec       q    Type
REMARK                         _______ _______ _______ _____ _____    ______ ____
ROOT
ATOM      1  N   UNL     1       2.420   7.550  19.325  0.00  0.00    +0.000 N 
ATOM      2  C   UNL     1       2.941   7.616  18.043  0.00  0.00    +0.000 C 
ATOM      3  O   UNL     1       2.843   8.534  17.237  0.00  0.00    +0.000 OA
ATOM      4  H   UNL     1       2.608   6.718  19.867  0.00  0.00    +0.000 HD
ENDROOT
BRANCH   1   8
ATOM      5  C   UNL     1      -0.242  10.237  21.203  0.00  0.00    +0.000 A 
ATOM      6  C   UNL     1       0.176  10.458  19.890  0.00  0.00    +0.000 A 
ATOM      7  C   UNL     1       1.081   9.598  19.266  0.00  0.00    +0.000 A 
ATOM      8  C   UNL     1       1.536   8.463  19.922  0.00  0.00    +0.000 A 
ATOM      9  C   UNL     1       1.061   8.182  21.206  0.00  0.00    +0.000 A 
ATOM     10  C   UNL     1       0.181   9.066  21.845  0.00  0.00    +0.000 A 
BRANCH   5  16
ATOM     11  C   UNL     1      -2.315  12.271  19.961  0.00  0.00    +0.000 C 
ATOM     12  N   UNL     1      -1.997  12.069  21.350  0.00  0.00    +0.000 N 
ATOM     13  C   UNL     1      -2.504  12.813  22.377  0.00  0.00    +0.000 A 
ATOM     14  N   UNL     1      -1.970  12.421  23.504  0.00  0.00    +0.000 NA
ATOM     15  N   UNL     1      -1.075  11.419  23.216  0.00  0.00    +0.000 NA
ATOM     16  C   UNL     1      -1.093  11.193  21.910  0.00  0.00    +0.000 A 
ENDBRANCH   5  16
ENDBRANCH   1   8
BRANCH   2  17
ATOM     17  C   UNL     1       3.598   6.365  17.606  0.00  0.00    +0.000 A 
ATOM     18  C   UNL     1       4.976   6.310  17.383  0.00  0.00    +0.000 A 
ATOM     19  C   UNL     1       5.595   5.075  17.242  0.00  0.00    +0.000 A 
ATOM     20  C   UNL     1       4.828   3.908  17.257  0.00  0.00    +0.000 A 
ATOM     21  C   UNL     1       3.426   3.962  17.325  0.00  0.00    +0.000 A 
ATOM     22  C   UNL     1       2.820   5.203  17.536  0.00  0.00    +0.000 A 
BRANCH  21  23
ATOM     23  C   UNL     1       2.601   2.704  17.200  0.00  0.00    +0.000 C 
BRANCH  23  24
ATOM     24  N   UNL     1       2.165   2.070  18.446  0.00  0.00    +0.000 NA
ATOM     25  C   UNL     1       0.860   2.422  18.991  0.00  0.00    +0.000 C 
ATOM     26  C   UNL     1       0.797   3.622  19.918  0.00  0.00    +0.000 C 
ATOM     27  S   UNL     1       2.069   3.628  21.150  0.00  0.00    +0.000 S 
ATOM     28  O   UNL     1       2.343   5.016  21.481  0.00  0.00    +0.000 OA
ATOM     29  O   UNL     1       1.675   2.699  22.192  0.00  0.00    +0.000 OA
ATOM     30  C   UNL     1       3.514   2.974  20.358  0.00  0.00    +0.000 C 
ATOM     31  C   UNL     1       3.175   1.805  19.462  0.00  0.00    +0.000 C 
ENDBRANCH  23  24
ENDBRANCH  21  23
ENDBRANCH   2  17
TORSDOF 5
ENDMDL
MODEL 3
REMARK VINA RESULT:      -8.7      3.043      4.266
REMARK  Name = 
REMARK  6 active torsions:
REMARK  status: ('A' for Active; 'I' for Inactive)
REMARK    1  A    between atoms: C_1  and  N_2
REMARK    2  A    between atoms: C_6  and  C_7
REMARK    3  A    between atoms: C_10  and  N_11
REMARK    4  A    between atoms: C_12  and  C_14
REMARK    5  A    between atoms: C_18  and  C_19
REMARK    6  A    between atoms: C_19  and  N_20
REMARK                            x       y       z     vdW  Elec       q    Type
REMARK                         _______ _______ _______ _____ _____    ______ ____
ROOT
ATOM      1  N   UNL     1       1.800   8.763  17.822  0.00  0.00    +0.000 N 
ATOM      2  C   UNL     1       2.276   7.758  18.646  0.00  0.00    +0.000 C 
ATOM      3  O   UNL     1       2.213   7.693  19.868  0.00  0.00    +0.000 OA
ATOM      4  H   UNL     1       1.922   8.652  16.824  0.00  0.00    +0.000 HD
ENDROOT
BRANCH   1   8
ATOM      5  C   UNL     1       0.313  12.528  19.027  0.00  0.00    +0.000 A 
ATOM      6  C   UNL     1      -0.549  11.441  18.879  0.00  0.00    +0.000 A 
ATOM      7  C   UNL     1      -0.080  10.200  18.449  0.00  0.00    +0.000 A 
ATOM      8  C   UNL     1       1.275  10.003  18.222  0.00  0.00    +0.000 A 
ATOM      9  C   UNL     1       2.164  11.057  18.448  0.00  0.00    +0.000 A 
ATOM     10  C   UNL     1       1.686  12.314  18.844  0.00  0.00    +0.000 A 
BRANCH   5  16
ATOM     11  C   UNL     1      -1.183  13.442  21.654  0.00  0.00    +0.000 C 
ATOM     12  N   UNL     1      -0.827  14.244  20.514  0.00  0.00    +0.000 N 
ATOM     13  C   UNL     1      -1.169  15.557  20.353  0.00  0.00    +0.000 A 
ATOM     14  N   UNL     1      -0.752  15.976  19.187  0.00  0.00    +0.000 NA
ATOM     15  N   UNL     1      -0.147  14.916  18.554  0.00  0.00    +0.000 NA
ATOM     16  C   UNL     1      -0.181  13.864  19.358  0.00  0.00    +0.000 A 
ENDBRANCH   5  16
ENDBRANCH   1   8
BRANCH   2  17
ATOM     17  C   UNL     1       3.031   6.709  17.926  0.00  0.00    +0.000 A 
ATOM     18  C   UNL     1       4.347   6.921  17.508  0.00  0.00    +0.000 A 
ATOM     19  C   UNL     1       5.109   5.841  17.085  0.00  0.00    +0.000 A 
ATOM     20  C   UNL     1       4.537   4.569  17.019  0.00  0.00    +0.000 A 
ATOM     21  C   UNL     1       3.172   4.373  17.289  0.00  0.00    +0.000 A 
ATOM     22  C   UNL     1       2.431   5.452  17.779  0.00  0.00    +0.000 A 
BRANCH  21  23
ATOM     23  C   UNL     1       2.533   3.021  17.078  0.00  0.00    +0.000 C 
BRANCH  23  24
ATOM     24  N   UNL     1       2.297   2.206  18.272  0.00  0.00    +0.000 NA
ATOM     25  C   UNL     1       0.999   2.287  18.930  0.00  0.00    +0.000 C 
ATOM     26  C   UNL     1       0.822   3.365  19.984  0.00  0.00    +0.000 C 
ATOM     27  S   UNL     1       2.168   3.456  21.131  0.00  0.00    +0.000 S 
ATOM     28  O   UNL     1       2.248   4.831  21.593  0.00  0.00    +0.000 OA
ATOM     29  O   UNL     1       2.004   2.377  22.087  0.00  0.00    +0.000 OA
ATOM     30  C   UNL     1       3.632   3.126  20.187  0.00  0.00    +0.000 C 
ATOM     31  C   UNL     1       3.411   2.011  19.191  0.00  0.00    +0.000 C 
ENDBRANCH  23  24
ENDBRANCH  21  23
ENDBRANCH   2  17
TORSDOF 5
ENDMDL
MODEL 4
REMARK VINA RESULT:      -8.6      1.204      1.563
REMARK  Name = 
REMARK  6 active torsions:
REMARK  status: ('A' for Active; 'I' for Inactive)
REMARK    1  A    between atoms: C_1  and  N_2
REMARK    2  A    between atoms: C_6  and  C_7
REMARK    3  A    between atoms: C_10  and  N_11
REMARK    4  A    between atoms: C_12  and  C_14
REMARK    5  A    between atoms: C_18  and  C_19
REMARK    6  A    between atoms: C_19  and  N_20
REMARK                            x       y       z     vdW  Elec       q    Type
REMARK                         _______ _______ _______ _____ _____    ______ ____
ROOT
ATOM      1  N   UNL     1       1.184   8.080  21.344  0.00  0.00    +0.000 N 
ATOM      2  C   UNL     1       1.797   7.788  20.138  0.00  0.00    +0.000 C 
ATOM      3  O   UNL     1       2.016   8.548  19.202  0.00  0.00    +0.000 OA
ATOM      4  H   UNL     1       1.095   7.333  22.020  0.00  0.00    +0.000 HD
ENDROOT
BRANCH   1   8
ATOM      5  C   UNL     1      -0.783  11.640  22.480  0.00  0.00    +0.000 A 
ATOM      6  C   UNL     1      -0.050  11.584  21.294  0.00  0.00    +0.000 A 
ATOM      7  C   UNL     1       0.633  10.426  20.920  0.00  0.00    +0.000 A 
ATOM      8  C   UNL     1       0.543   9.279  21.695  0.00  0.00    +0.000 A 
ATOM      9  C   UNL     1      -0.256   9.292  22.842  0.00  0.00    +0.000 A 
ATOM     10  C   UNL     1      -0.911  10.467  23.235  0.00  0.00    +0.000 A 
BRANCH   5  16
ATOM     11  C   UNL     1      -3.660  12.744  21.787  0.00  0.00    +0.000 C 
ATOM     12  N   UNL     1      -2.663  13.342  22.635  0.00  0.00    +0.000 N 
ATOM     13  C   UNL     1      -2.784  14.567  23.227  0.00  0.00    +0.000 A 
ATOM     14  N   UNL     1      -1.684  14.848  23.875  0.00  0.00    +0.000 NA
ATOM     15  N   UNL     1      -0.811  13.803  23.689  0.00  0.00    +0.000 NA
ATOM     16  C   UNL     1      -1.402  12.881  22.944  0.00  0.00    +0.000 A 
ENDBRANCH   5  16
ENDBRANCH   1   8
BRANCH   2  17
ATOM     17  C   UNL     1       2.116   6.354  19.966  0.00  0.00    +0.000 A 
ATOM     18  C   UNL     1       1.566   5.384  20.807  0.00  0.00    +0.000 A 
ATOM     19  C   UNL     1       1.665   4.043  20.458  0.00  0.00    +0.000 A 
ATOM     20  C   UNL     1       2.367   3.676  19.308  0.00  0.00    +0.000 A 
ATOM     21  C   UNL     1       3.056   4.630  18.541  0.00  0.00    +0.000 A 
ATOM     22  C   UNL     1       2.893   5.981  18.862  0.00  0.00    +0.000 A 
BRANCH  21  23
ATOM     23  C   UNL     1       3.926   4.205  17.384  0.00  0.00    +0.000 C 
BRANCH  23  24
ATOM     24  N   UNL     1       5.111   5.020  17.110  0.00  0.00    +0.000 NA
ATOM     25  C   UNL     1       5.007   6.105  16.143  0.00  0.00    +0.000 C 
ATOM     26  C   UNL     1       5.261   5.763  14.686  0.00  0.00    +0.000 C 
ATOM     27  S   UNL     1       6.709   4.773  14.438  0.00  0.00    +0.000 S 
ATOM     28  O   UNL     1       6.485   3.975  13.244  0.00  0.00    +0.000 OA
ATOM     29  O   UNL     1       7.860   5.651  14.519  0.00  0.00    +0.000 OA
ATOM     30  C   UNL     1       6.777   3.661  15.816  0.00  0.00    +0.000 C 
ATOM     31  C   UNL     1       6.408   4.353  17.108  0.00  0.00    +0.000 C 
ENDBRANCH  23  24
ENDBRANCH  21  23
ENDBRANCH   2  17
TORSDOF 5
ENDMDL
MODEL 5
REMARK VINA RESULT:      -8.6      6.369      8.488
REMARK  Name = 
REMARK  6 active torsions:
REMARK  status: ('A' for Active; 'I' for Inactive)
REMARK    1  A    between atoms: C_1  and  N_2
REMARK    2  A    between atoms: C_6  and  C_7
REMARK    3  A    between atoms: C_10  and  N_11
REMARK    4  A    between atoms: C_12  and  C_14
REMARK    5  A    between atoms: C_18  and  C_19
REMARK    6  A    between atoms: C_19  and  N_20
REMARK                            x       y       z     vdW  Elec       q    Type
REMARK                         _______ _______ _______ _____ _____    ______ ____
ROOT
ATOM      1  N   UNL     1       7.444   8.342  17.466  0.00  0.00    +0.000 N 
ATOM      2  C   UNL     1       7.505   7.021  17.878  0.00  0.00    +0.000 C 
ATOM      3  O   UNL     1       8.089   6.564  18.853  0.00  0.00    +0.000 OA
ATOM      4  H   UNL     1       6.900   8.553  16.639  0.00  0.00    +0.000 HD
ENDROOT
BRANCH   1   8
ATOM      5  C   UNL     1       9.581  11.653  18.983  0.00  0.00    +0.000 A 
ATOM      6  C   UNL     1       9.741  10.389  19.549  0.00  0.00    +0.000 A 
ATOM      7  C   UNL     1       9.018   9.291  19.082  0.00  0.00    +0.000 A 
ATOM      8  C   UNL     1       8.167   9.424  17.994  0.00  0.00    +0.000 A 
ATOM      9  C   UNL     1       8.060  10.665  17.361  0.00  0.00    +0.000 A 
ATOM     10  C   UNL     1       8.759  11.775  17.855  0.00  0.00    +0.000 A 
BRANCH   5  16
ATOM     11  C   UNL     1       8.553  13.525  21.310  0.00  0.00    +0.000 C 
ATOM     12  N   UNL     1       9.777  13.636  20.560  0.00  0.00    +0.000 N 
ATOM     13  C   UNL     1      10.676  14.655  20.691  0.00  0.00    +0.000 A 
ATOM     14  N   UNL     1      11.643  14.496  19.826  0.00  0.00    +0.000 NA
ATOM     15  N   UNL     1      11.367  13.368  19.093  0.00  0.00    +0.000 NA
ATOM     16  C   UNL     1      10.239  12.835  19.539  0.00  0.00    +0.000 A 
ENDBRANCH   5  16
ENDBRANCH   1   8
BRANCH   2  17
ATOM     17  C   UNL     1       6.856   6.077  16.942  0.00  0.00    +0.000 A 
ATOM     18  C   UNL     1       7.418   5.794  15.694  0.00  0.00    +0.000 A 
ATOM     19  C   UNL     1       6.940   4.715  14.962  0.00  0.00    +0.000 A 
ATOM     20  C   UNL     1       5.865   3.968  15.447  0.00  0.00    +0.000 A 
ATOM     21  C   UNL     1       5.194   4.340  16.624  0.00  0.00    +0.000 A 
ATOM     22  C   UNL     1       5.725   5.383  17.387  0.00  0.00    +0.000 A 
BRANCH  21  23
ATOM     23  C   UNL     1       3.948   3.610  17.062  0.00  0.00    +0.000 C 
BRANCH  23  24
ATOM     24  N   UNL     1       4.009   2.904  18.344  0.00  0.00    +0.000 NA
ATOM     25  C   UNL     1       3.071   1.816  18.589  0.00  0.00    +0.000 C 
ATOM     26  C   UNL     1       1.724   2.182  19.184  0.00  0.00    +0.000 C 
ATOM     27  S   UNL     1       1.839   3.297  20.555  0.00  0.00    +0.000 S 
ATOM     28  O   UNL     1       0.612   4.074  20.583  0.00  0.00    +0.000 OA
ATOM     29  O   UNL     1       2.235   2.525  21.717  0.00  0.00    +0.000 OA
ATOM     30  C   UNL     1       3.164   4.408  20.165  0.00  0.00    +0.000 C 
ATOM     31  C   UNL     1       4.330   3.683  19.533  0.00  0.00    +0.000 C 
ENDBRANCH  23  24
ENDBRANCH  21  23
ENDBRANCH   2  17
TORSDOF 5
ENDMDL
MODEL 6
REMARK VINA RESULT:      -8.5      2.648      3.671
REMARK  Name = 
REMARK  6 active torsions:
REMARK  status: ('A' for Active; 'I' for Inactive)
REMARK    1  A    between atoms: C_1  and  N_2
REMARK    2  A    between atoms: C_6  and  C_7
REMARK    3  A    between atoms: C_10  and  N_11
REMARK    4  A    between atoms: C_12  and  C_14
REMARK    5  A    between atoms: C_18  and  C_19
REMARK    6  A    between atoms: C_19  and  N_20
REMARK                            x       y       z     vdW  Elec       q    Type
REMARK                         _______ _______ _______ _____ _____    ______ ____
ROOT
ATOM      1  N   UNL     1       1.011   8.992  19.821  0.00  0.00    +0.000 N 
ATOM      2  C   UNL     1       1.541   7.749  20.121  0.00  0.00    +0.000 C 
ATOM      3  O   UNL     1       1.341   7.067  21.119  0.00  0.00    +0.000 OA
ATOM      4  H   UNL     1       1.270   9.415  18.939  0.00  0.00    +0.000 HD
ENDROOT
BRANCH   1   8
ATOM      5  C   UNL     1      -1.318  11.502  22.293  0.00  0.00    +0.000 A 
ATOM      6  C   UNL     1      -0.527  10.496  22.850  0.00  0.00    +0.000 A 
ATOM      7  C   UNL     1       0.222   9.637  22.046  0.00  0.00    +0.000 A 
ATOM      8  C   UNL     1       0.246   9.809  20.669  0.00  0.00    +0.000 A 
ATOM      9  C   UNL     1      -0.472  10.865  20.102  0.00  0.00    +0.000 A 
ATOM     10  C   UNL     1      -1.254  11.704  20.909  0.00  0.00    +0.000 A 
BRANCH   5  16
ATOM     11  C   UNL     1      -0.864  14.487  23.219  0.00  0.00    +0.000 C 
ATOM     12  N   UNL     1      -1.988  13.634  23.502  0.00  0.00    +0.000 N 
ATOM     13  C   UNL     1      -3.033  13.972  24.315  0.00  0.00    +0.000 A 
ATOM     14  N   UNL     1      -3.852  12.958  24.416  0.00  0.00    +0.000 NA
ATOM     15  N   UNL     1      -3.328  11.924  23.679  0.00  0.00    +0.000 NA
ATOM     16  C   UNL     1      -2.201  12.329  23.114  0.00  0.00    +0.000 A 
ENDBRANCH   5  16
ENDBRANCH   1   8
BRANCH   2  17
ATOM     17  C   UNL     1       2.539   7.276  19.136  0.00  0.00    +0.000 A 
ATOM     18  C   UNL     1       2.776   7.978  17.951  0.00  0.00    +0.000 A 
ATOM     19  C   UNL     1       3.893   7.667  17.187  0.00  0.00    +0.000 A 
ATOM     20  C   UNL     1       4.728   6.617  17.573  0.00  0.00    +0.000 A 
ATOM     21  C   UNL     1       4.412   5.806  18.676  0.00  0.00    +0.000 A 
ATOM     22  C   UNL     1       3.326   6.170  19.477  0.00  0.00    +0.000 A 
BRANCH  21  23
ATOM     23  C   UNL     1       5.245   4.590  19.001  0.00  0.00    +0.000 C 
BRANCH  23  24
ATOM     24  N   UNL     1       4.623   3.282  18.783  0.00  0.00    +0.000 NA
ATOM     25  C   UNL     1       3.716   3.117  17.655  0.00  0.00    +0.000 C 
ATOM     26  C   UNL     1       2.254   3.453  17.884  0.00  0.00    +0.000 C 
ATOM     27  S   UNL     1       1.601   2.768  19.381  0.00  0.00    +0.000 S 
ATOM     28  O   UNL     1       0.537   3.651  19.830  0.00  0.00    +0.000 OA
ATOM     29  O   UNL     1       1.326   1.365  19.140  0.00  0.00    +0.000 OA
ATOM     30  C   UNL     1       2.911   2.867  20.571  0.00  0.00    +0.000 C 
ATOM     31  C   UNL     1       4.246   2.507  19.959  0.00  0.00    +0.000 C 
ENDBRANCH  23  24
ENDBRANCH  21  23
ENDBRANCH   2  17
TORSDOF 5
ENDMDL
MODEL 7
REMARK VINA RESULT:      -8.5      2.678      4.065
REMARK  Name = 
REMARK  6 active torsions:
REMARK  status: ('A' for Active; 'I' for Inactive)
REMARK    1  A    between atoms: C_1  and  N_2
REMARK    2  A    between atoms: C_6  and  C_7
REMARK    3  A    between atoms: C_10  and  N_11
REMARK    4  A    between atoms: C_12  and  C_14
REMARK    5  A    between atoms: C_18  and  C_19
REMARK    6  A    between atoms: C_19  and  N_20
REMARK                            x       y       z     vdW  Elec       q    Type
REMARK                         _______ _______ _______ _____ _____    ______ ____
ROOT
ATOM      1  N   UNL     1      -0.907  10.865  20.735  0.00  0.00    +0.000 N 
ATOM      2  C   UNL     1       0.345  10.353  21.031  0.00  0.00    +0.000 C 
ATOM      3  O   UNL     1       1.057  10.614  21.994  0.00  0.00    +0.000 OA
ATOM      4  H   UNL     1      -1.368  10.529  19.901  0.00  0.00    +0.000 HD
ENDROOT
BRANCH   1   8
ATOM      5  C   UNL     1      -2.894  13.958  22.813  0.00  0.00    +0.000 A 
ATOM      6  C   UNL     1      -2.610  14.088  21.453  0.00  0.00    +0.000 A 
ATOM      7  C   UNL     1      -1.925  13.091  20.760  0.00  0.00    +0.000 A 
ATOM      8  C   UNL     1      -1.567  11.912  21.399  0.00  0.00    +0.000 A 
ATOM      9  C   UNL     1      -1.920  11.730  22.738  0.00  0.00    +0.000 A 
ATOM     10  C   UNL     1      -2.575  12.749  23.444  0.00  0.00    +0.000 A 
BRANCH   5  16
ATOM     11  C   UNL     1      -1.530  15.781  25.003  0.00  0.00    +0.000 C 
ATOM     12  N   UNL     1      -2.887  15.834  24.527  0.00  0.00    +0.000 N 
ATOM     13  C   UNL     1      -3.853  16.660  25.030  0.00  0.00    +0.000 A 
ATOM     14  N   UNL     1      -4.988  16.418  24.428  0.00  0.00    +0.000 NA
ATOM     15  N   UNL     1      -4.777  15.399  23.531  0.00  0.00    +0.000 NA
ATOM     16  C   UNL     1      -3.502  15.045  23.580  0.00  0.00    +0.000 A 
ENDBRANCH   5  16
ENDBRANCH   1   8
BRANCH   2  17
ATOM     17  C   UNL     1       0.887   9.466  19.978  0.00  0.00    +0.000 A 
ATOM     18  C   UNL     1       0.900   9.857  18.637  0.00  0.00    +0.000 A 
ATOM     19  C   UNL     1       1.651   9.131  17.723  0.00  0.00    +0.000 A 
ATOM     20  C   UNL     1       2.331   7.984  18.138  0.00  0.00    +0.000 A 
ATOM     21  C   UNL     1       2.198   7.495  19.449  0.00  0.00    +0.000 A 
ATOM     22  C   UNL     1       1.496   8.270  20.377  0.00  0.00    +0.000 A 
BRANCH  21  23
ATOM     23  C   UNL     1       2.823   6.180  19.846  0.00  0.00    +0.000 C 
BRANCH  23  24
ATOM     24  N   UNL     1       2.530   5.023  18.997  0.00  0.00    +0.000 NA
ATOM     25  C   UNL     1       1.775   3.912  19.563  0.00  0.00    +0.000 C 
ATOM     26  C   UNL     1       2.564   2.827  20.273  0.00  0.00    +0.000 C 
ATOM     27  S   UNL     1       3.988   2.287  19.370  0.00  0.00    +0.000 S 
ATOM     28  O   UNL     1       4.969   1.834  20.343  0.00  0.00    +0.000 OA
ATOM     29  O   UNL     1       3.532   1.387  18.327  0.00  0.00    +0.000 OA
ATOM     30  C   UNL     1       4.645   3.735  18.587  0.00  0.00    +0.000 C 
ATOM     31  C   UNL     1       3.546   4.614  18.035  0.00  0.00    +0.000 C 
ENDBRANCH  23  24
ENDBRANCH  21  23
ENDBRANCH   2  17
TORSDOF 5
ENDMDL
MODEL 8
REMARK VINA RESULT:      -8.4      6.420      8.614
REMARK  Name = 
REMARK  6 active torsions:
REMARK  status: ('A' for Active; 'I' for Inactive)
REMARK    1  A    between atoms: C_1  and  N_2
REMARK    2  A    between atoms: C_6  and  C_7
REMARK    3  A    between atoms: C_10  and  N_11
REMARK    4  A    between atoms: C_12  and  C_14
REMARK    5  A    between atoms: C_18  and  C_19
REMARK    6  A    between atoms: C_19  and  N_20
REMARK                            x       y       z     vdW  Elec       q    Type
REMARK                         _______ _______ _______ _____ _____    ______ ____
ROOT
ATOM      1  N   UNL     1       7.333   8.322  17.412  0.00  0.00    +0.000 N 
ATOM      2  C   UNL     1       7.460   7.012  17.842  0.00  0.00    +0.000 C 
ATOM      3  O   UNL     1       8.083   6.595  18.811  0.00  0.00    +0.000 OA
ATOM      4  H   UNL     1       6.764   8.497  16.594  0.00  0.00    +0.000 HD
ENDROOT
BRANCH   1   8
ATOM      5  C   UNL     1       9.350  11.747  18.839  0.00  0.00    +0.000 A 
ATOM      6  C   UNL     1       9.602  10.494  19.398  0.00  0.00    +0.000 A 
ATOM      7  C   UNL     1       8.919   9.358  18.961  0.00  0.00    +0.000 A 
ATOM      8  C   UNL     1       8.018   9.443  17.910  0.00  0.00    +0.000 A 
ATOM      9  C   UNL     1       7.818  10.674  17.281  0.00  0.00    +0.000 A 
ATOM     10  C   UNL     1       8.477  11.822  17.746  0.00  0.00    +0.000 A 
BRANCH   5  16
ATOM     11  C   UNL     1      12.329  12.142  19.810  0.00  0.00    +0.000 C 
ATOM     12  N   UNL     1      11.272  13.117  19.780  0.00  0.00    +0.000 N 
ATOM     13  C   UNL     1      11.378  14.390  20.263  0.00  0.00    +0.000 A 
ATOM     14  N   UNL     1      10.227  14.998  20.146  0.00  0.00    +0.000 NA
ATOM     15  N   UNL     1       9.337  14.105  19.600  0.00  0.00    +0.000 NA
ATOM     16  C   UNL     1       9.967  12.963  19.367  0.00  0.00    +0.000 A 
ENDBRANCH   5  16
ENDBRANCH   1   8
BRANCH   2  17
ATOM     17  C   UNL     1       6.835   6.027  16.933  0.00  0.00    +0.000 A 
ATOM     18  C   UNL     1       7.440   5.669  15.726  0.00  0.00    +0.000 A 
ATOM     19  C   UNL     1       6.976   4.558  15.034  0.00  0.00    +0.000 A 
ATOM     20  C   UNL     1       5.872   3.851  15.515  0.00  0.00    +0.000 A 
ATOM     21  C   UNL     1       5.161   4.295  16.643  0.00  0.00    +0.000 A 
ATOM     22  C   UNL     1       5.677   5.372  17.370  0.00  0.00    +0.000 A 
BRANCH  21  23
ATOM     23  C   UNL     1       3.889   3.605  17.071  0.00  0.00    +0.000 C 
BRANCH  23  24
ATOM     24  N   UNL     1       3.928   2.862  18.332  0.00  0.00    +0.000 NA
ATOM     25  C   UNL     1       2.919   1.839  18.574  0.00  0.00    +0.000 C 
ATOM     26  C   UNL     1       1.617   2.286  19.213  0.00  0.00    +0.000 C 
ATOM     27  S   UNL     1       1.847   3.352  20.608  0.00  0.00    +0.000 S 
ATOM     28  O   UNL     1       0.681   4.216  20.687  0.00  0.00    +0.000 OA
ATOM     29  O   UNL     1       2.213   2.522  21.740  0.00  0.00    +0.000 OA
ATOM     30  C   UNL     1       3.240   4.374  20.212  0.00  0.00    +0.000 C 
ATOM     31  C   UNL     1       4.334   3.583  19.532  0.00  0.00    +0.000 C 
ENDBRANCH  23  24
ENDBRANCH  21  23
ENDBRANCH   2  17
TORSDOF 5
ENDMDL
MODEL 9
REMARK VINA RESULT:      -8.4      1.020      1.322
REMARK  Name = 
REMARK  6 active torsions:
REMARK  status: ('A' for Active; 'I' for Inactive)
REMARK    1  A    between atoms: C_1  and  N_2
REMARK    2  A    between atoms: C_6  and  C_7
REMARK    3  A    between atoms: C_10  and  N_11
REMARK    4  A    between atoms: C_12  and  C_14
REMARK    5  A    between atoms: C_18  and  C_19
REMARK    6  A    between atoms: C_19  and  N_20
REMARK                            x       y       z     vdW  Elec       q    Type
REMARK                         _______ _______ _______ _____ _____    ______ ____
ROOT
ATOM      1  N   UNL     1       0.688   8.374  21.225  0.00  0.00    +0.000 N 
ATOM      2  C   UNL     1       1.497   8.096  20.137  0.00  0.00    +0.000 C 
ATOM      3  O   UNL     1       1.891   8.872  19.274  0.00  0.00    +0.000 OA
ATOM      4  H   UNL     1       0.467   7.614  21.855  0.00  0.00    +0.000 HD
ENDROOT
BRANCH   1   8
ATOM      5  C   UNL     1      -1.335  12.014  21.925  0.00  0.00    +0.000 A 
ATOM      6  C   UNL     1      -0.847  11.260  22.992  0.00  0.00    +0.000 A 
ATOM      7  C   UNL     1      -0.206  10.039  22.781  0.00  0.00    +0.000 A 
ATOM      8  C   UNL     1       0.018   9.579  21.490  0.00  0.00    +0.000 A 
ATOM      9  C   UNL     1      -0.389  10.364  20.408  0.00  0.00    +0.000 A 
ATOM     10  C   UNL     1      -1.066  11.572  20.623  0.00  0.00    +0.000 A 
BRANCH   5  16
ATOM     11  C   UNL     1      -3.782  12.431  23.878  0.00  0.00    +0.000 C 
ATOM     12  N   UNL     1      -3.177  13.396  23.000  0.00  0.00    +0.000 N 
ATOM     13  C   UNL     1      -3.638  14.668  22.810  0.00  0.00    +0.000 A 
ATOM     14  N   UNL     1      -2.908  15.266  21.905  0.00  0.00    +0.000 NA
ATOM     15  N   UNL     1      -1.964  14.368  21.471  0.00  0.00    +0.000 NA
ATOM     16  C   UNL     1      -2.115  13.233  22.137  0.00  0.00    +0.000 A 
ENDBRANCH   5  16
ENDBRANCH   1   8
BRANCH   2  17
ATOM     17  C   UNL     1       1.815   6.659  19.986  0.00  0.00    +0.000 A 
ATOM     18  C   UNL     1       1.425   5.726  20.949  0.00  0.00    +0.000 A 
ATOM     19  C   UNL     1       1.495   4.371  20.653  0.00  0.00    +0.000 A 
ATOM     20  C   UNL     1       2.013   3.954  19.425  0.00  0.00    +0.000 A 
ATOM     21  C   UNL     1       2.551   4.877  18.513  0.00  0.00    +0.000 A 
ATOM     22  C   UNL     1       2.414   6.240  18.791  0.00  0.00    +0.000 A 
BRANCH  21  23
ATOM     23  C   UNL     1       3.235   4.405  17.254  0.00  0.00    +0.000 C 
BRANCH  23  24
ATOM     24  N   UNL     1       4.521   3.723  17.413  0.00  0.00    +0.000 NA
ATOM     25  C   UNL     1       5.332   4.021  18.587  0.00  0.00    +0.000 C 
ATOM     26  C   UNL     1       6.292   5.191  18.487  0.00  0.00    +0.000 C 
ATOM     27  S   UNL     1       7.241   5.199  16.992  0.00  0.00    +0.000 S 
ATOM     28  O   UNL     1       7.556   6.585  16.688  0.00  0.00    +0.000 OA
ATOM     29  O   UNL     1       8.308   4.229  17.143  0.00  0.00    +0.000 OA
ATOM     30  C   UNL     1       6.150   4.611  15.724  0.00  0.00    +0.000 C 
ATOM     31  C   UNL     1       5.302   3.459  16.211  0.00  0.00    +0.000 C 
ENDBRANCH  23  24
ENDBRANCH  21  23
ENDBRANCH   2  17
TORSDOF 5
ENDMDL
