MODEL 1
REMARK VINA RESULT:      -8.2      0.000      0.000
REMARK  Name = 
REMARK  4 active torsions:
REMARK  status: ('A' for Active; 'I' for Inactive)
REMARK    1  A    between atoms: C_2  and  C_3
REMARK    2  A    between atoms: N_12  and  C_13
REMARK    3  A    between atoms: C_13  and  C_14
REMARK    4  A    between atoms: C_24  and  O_25
REMARK                            x       y       z     vdW  Elec       q    Type
REMARK                         _______ _______ _______ _____ _____    ______ ____
ROOT
ATOM      1  C   UNL     1       2.909   6.878  19.420  0.00  0.00    +0.000 A 
ATOM      2  C   UNL     1       2.768   7.531  18.169  0.00  0.00    +0.000 A 
ATOM      3  C   UNL     1       1.924   8.662  18.010  0.00  0.00    +0.000 A 
ATOM      4  C   UNL     1       1.215   9.094  19.111  0.00  0.00    +0.000 A 
ATOM      5  C   UNL     1       1.422   8.496  20.358  0.00  0.00    +0.000 A 
ATOM      6  C   UNL     1       2.297   7.442  20.555  0.00  0.00    +0.000 A 
ATOM      7  N   UNL     1       0.551   9.079  21.271  0.00  0.00    +0.000 N 
ATOM      8  C   UNL     1      -0.252  10.018  20.613  0.00  0.00    +0.000 A 
ATOM      9  O   UNL     1      -1.178  10.659  21.103  0.00  0.00    +0.000 OA
ATOM     10  N   UNL     1       0.203  10.066  19.279  0.00  0.00    +0.000 N 
ATOM     11  H   UNL     1       0.406   8.805  22.240  0.00  0.00    +0.000 HD
ENDROOT
BRANCH   1  13
ATOM     12  O   UNL     1       4.801   5.411  19.434  0.00  0.00    +0.000 OA
ATOM     13  C   UNL     1       3.575   5.509  19.517  0.00  0.00    +0.000 C 
ATOM     14  N   UNL     1       2.750   4.391  19.612  0.00  0.00    +0.000 N 
ATOM     15  C   UNL     1       3.107   2.936  19.685  0.00  0.00    +0.000 C 
ATOM     16  C   UNL     1       1.803   2.293  20.255  0.00  0.00    +0.000 C 
ATOM     17  C   UNL     1       0.821   3.455  20.267  0.00  0.00    +0.000 C 
ATOM     18  C   UNL     1       1.372   4.385  19.189  0.00  0.00    +0.000 C 
ATOM     19  C   UNL     1       1.353   3.904  17.714  0.00  0.00    +0.000 C 
ATOM     20  C   UNL     1       2.673   3.241  17.223  0.00  0.00    +0.000 C 
ATOM     21  C   UNL     1       3.284   2.319  18.273  0.00  0.00    +0.000 C 
BRANCH  20  22
ATOM     22  O   UNL     1       3.640   4.235  16.859  0.00  0.00    +0.000 OA
ATOM     23  H   UNL     1       3.533   4.438  15.904  0.00  0.00    +0.000 HD
ENDBRANCH  20  22
ENDBRANCH   1  13
BRANCH  10  24
ATOM     24  C   UNL     1      -0.433  10.872  18.258  0.00  0.00    +0.000 C 
BRANCH  24  25
ATOM     25  C   UNL     1      -1.612  10.229  17.522  0.00  0.00    +0.000 C 
ATOM     26  F   UNL     1      -2.518   9.670  18.354  0.00  0.00    +0.000 F 
ATOM     27  F   UNL     1      -2.266  11.122  16.745  0.00  0.00    +0.000 F 
ATOM     28  F   UNL     1      -1.164   9.245  16.701  0.00  0.00    +0.000 F 
ENDBRANCH  24  25
ENDBRANCH  10  24
TORSDOF 4
ENDMDL
MODEL 2
REMARK VINA RESULT:      -8.1      0.930      1.286
REMARK  Name = 
REMARK  4 active torsions:
REMARK  status: ('A' for Active; 'I' for Inactive)
REMARK    1  A    between atoms: C_2  and  C_3
REMARK    2  A    between atoms: N_12  and  C_13
REMARK    3  A    between atoms: C_13  and  C_14
REMARK    4  A    between atoms: C_24  and  O_25
REMARK                            x       y       z     vdW  Elec       q    Type
REMARK                         _______ _______ _______ _____ _____    ______ ____
ROOT
ATOM      1  C   UNL     1       2.874   6.665  18.973  0.00  0.00    +0.000 A 
ATOM      2  C   UNL     1       2.690   7.495  17.838  0.00  0.00    +0.000 A 
ATOM      3  C   UNL     1       1.926   8.692  17.907  0.00  0.00    +0.000 A 
ATOM      4  C   UNL     1       1.338   9.010  19.113  0.00  0.00    +0.000 A 
ATOM      5  C   UNL     1       1.592   8.229  20.245  0.00  0.00    +0.000 A 
ATOM      6  C   UNL     1       2.395   7.103  20.222  0.00  0.00    +0.000 A 
ATOM      7  N   UNL     1       0.840   8.735  21.299  0.00  0.00    +0.000 N 
ATOM      8  C   UNL     1       0.066   9.809  20.846  0.00  0.00    +0.000 A 
ATOM      9  O   UNL     1      -0.768  10.434  21.496  0.00  0.00    +0.000 OA
ATOM     10  N   UNL     1       0.421  10.014  19.496  0.00  0.00    +0.000 N 
ATOM     11  H   UNL     1       0.748   8.337  22.232  0.00  0.00    +0.000 HD
ENDROOT
BRANCH   1  13
ATOM     12  O   UNL     1       4.194   4.985  17.893  0.00  0.00    +0.000 OA
ATOM     13  C   UNL     1       3.437   5.255  18.827  0.00  0.00    +0.000 C 
ATOM     14  N   UNL     1       2.996   4.284  19.723  0.00  0.00    +0.000 N 
ATOM     15  C   UNL     1       3.338   2.825  19.806  0.00  0.00    +0.000 C 
ATOM     16  C   UNL     1       2.915   2.458  21.264  0.00  0.00    +0.000 C 
ATOM     17  C   UNL     1       2.231   3.725  21.756  0.00  0.00    +0.000 C 
ATOM     18  C   UNL     1       1.763   4.389  20.463  0.00  0.00    +0.000 C 
ATOM     19  C   UNL     1       0.668   3.683  19.621  0.00  0.00    +0.000 C 
ATOM     20  C   UNL     1       1.203   2.783  18.469  0.00  0.00    +0.000 C 
ATOM     21  C   UNL     1       2.425   1.971  18.889  0.00  0.00    +0.000 C 
BRANCH  20  22
ATOM     22  O   UNL     1       1.542   3.570  17.320  0.00  0.00    +0.000 OA
ATOM     23  H   UNL     1       2.453   3.335  17.040  0.00  0.00    +0.000 HD
ENDBRANCH  20  22
ENDBRANCH   1  13
BRANCH  10  24
ATOM     24  C   UNL     1      -0.226  10.997  18.652  0.00  0.00    +0.000 C 
BRANCH  24  25
ATOM     25  C   UNL     1      -1.432  10.509  17.845  0.00  0.00    +0.000 C 
ATOM     26  F   UNL     1      -1.130   9.513  16.984  0.00  0.00    +0.000 F 
ATOM     27  F   UNL     1      -2.428  10.068  18.648  0.00  0.00    +0.000 F 
ATOM     28  F   UNL     1      -1.942  11.530  17.110  0.00  0.00    +0.000 F 
ENDBRANCH  24  25
ENDBRANCH  10  24
TORSDOF 4
ENDMDL
MODEL 3
REMARK VINA RESULT:      -8.1      2.006      2.983
REMARK  Name = 
REMARK  4 active torsions:
REMARK  status: ('A' for Active; 'I' for Inactive)
REMARK    1  A    between atoms: C_2  and  C_3
REMARK    2  A    between atoms: N_12  and  C_13
REMARK    3  A    between atoms: C_13  and  C_14
REMARK    4  A    between atoms: C_24  and  O_25
REMARK                            x       y       z     vdW  Elec       q    Type
REMARK                         _______ _______ _______ _____ _____    ______ ____
ROOT
ATOM      1  C   UNL     1       2.241   6.992  18.563  0.00  0.00    +0.000 A 
ATOM      2  C   UNL     1       2.000   8.147  17.775  0.00  0.00    +0.000 A 
ATOM      3  C   UNL     1       1.569   9.369  18.359  0.00  0.00    +0.000 A 
ATOM      4  C   UNL     1       1.361   9.392  19.721  0.00  0.00    +0.000 A 
ATOM      5  C   UNL     1       1.678   8.273  20.499  0.00  0.00    +0.000 A 
ATOM      6  C   UNL     1       2.172   7.097  19.964  0.00  0.00    +0.000 A 
ATOM      7  N   UNL     1       1.322   8.544  21.815  0.00  0.00    +0.000 N 
ATOM      8  C   UNL     1       0.734   9.812  21.887  0.00  0.00    +0.000 A 
ATOM      9  O   UNL     1       0.237  10.331  22.883  0.00  0.00    +0.000 OA
ATOM     10  N   UNL     1       0.811  10.361  20.591  0.00  0.00    +0.000 N 
ATOM     11  H   UNL     1       1.355   7.900  22.603  0.00  0.00    +0.000 HD
ENDROOT
BRANCH   1  13
ATOM     12  O   UNL     1       1.475   4.828  17.884  0.00  0.00    +0.000 OA
ATOM     13  C   UNL     1       2.415   5.624  17.911  0.00  0.00    +0.000 C 
ATOM     14  N   UNL     1       3.681   5.287  17.438  0.00  0.00    +0.000 N 
ATOM     15  C   UNL     1       4.160   4.020  16.792  0.00  0.00    +0.000 C 
ATOM     16  C   UNL     1       5.480   4.474  16.091  0.00  0.00    +0.000 C 
ATOM     17  C   UNL     1       5.658   5.904  16.579  0.00  0.00    +0.000 C 
ATOM     18  C   UNL     1       4.893   5.915  17.901  0.00  0.00    +0.000 C 
ATOM     19  C   UNL     1       5.429   5.056  19.075  0.00  0.00    +0.000 C 
ATOM     20  C   UNL     1       4.789   3.644  19.202  0.00  0.00    +0.000 C 
ATOM     21  C   UNL     1       4.598   2.970  17.847  0.00  0.00    +0.000 C 
BRANCH  20  22
ATOM     22  O   UNL     1       3.521   3.715  19.868  0.00  0.00    +0.000 OA
ATOM     23  H   UNL     1       3.105   2.826  19.840  0.00  0.00    +0.000 HD
ENDBRANCH  20  22
ENDBRANCH   1  13
BRANCH  10  24
ATOM     24  C   UNL     1       0.234  11.643  20.242  0.00  0.00    +0.000 C 
BRANCH  24  25
ATOM     25  C   UNL     1      -1.212  11.621  19.738  0.00  0.00    +0.000 C 
ATOM     26  F   UNL     1      -1.570  10.436  19.198  0.00  0.00    +0.000 F 
ATOM     27  F   UNL     1      -2.092  11.904  20.725  0.00  0.00    +0.000 F 
ATOM     28  F   UNL     1      -1.382  12.564  18.777  0.00  0.00    +0.000 F 
ENDBRANCH  24  25
ENDBRANCH  10  24
TORSDOF 4
ENDMDL
MODEL 4
REMARK VINA RESULT:      -7.8      2.589      3.429
REMARK  Name = 
REMARK  4 active torsions:
REMARK  status: ('A' for Active; 'I' for Inactive)
REMARK    1  A    between atoms: C_2  and  C_3
REMARK    2  A    between atoms: N_12  and  C_13
REMARK    3  A    between atoms: C_13  and  C_14
REMARK    4  A    between atoms: C_24  and  O_25
REMARK                            x       y       z     vdW  Elec       q    Type
REMARK                         _______ _______ _______ _____ _____    ______ ____
ROOT
ATOM      1  C   UNL     1       2.208   6.991  18.587  0.00  0.00    +0.000 A 
ATOM      2  C   UNL     1       1.902   8.142  17.816  0.00  0.00    +0.000 A 
ATOM      3  C   UNL     1       1.456   9.347  18.423  0.00  0.00    +0.000 A 
ATOM      4  C   UNL     1       1.298   9.356  19.793  0.00  0.00    +0.000 A 
ATOM      5  C   UNL     1       1.679   8.244  20.551  0.00  0.00    +0.000 A 
ATOM      6  C   UNL     1       2.190   7.087  19.990  0.00  0.00    +0.000 A 
ATOM      7  N   UNL     1       1.366   8.496  21.881  0.00  0.00    +0.000 N 
ATOM      8  C   UNL     1       0.742   9.745  21.984  0.00  0.00    +0.000 A 
ATOM      9  O   UNL     1       0.267  10.244  23.001  0.00  0.00    +0.000 OA
ATOM     10  N   UNL     1       0.752  10.303  20.688  0.00  0.00    +0.000 N 
ATOM     11  H   UNL     1       1.449   7.850  22.663  0.00  0.00    +0.000 HD
ENDROOT
BRANCH   1  13
ATOM     12  O   UNL     1       1.472   4.821  17.891  0.00  0.00    +0.000 OA
ATOM     13  C   UNL     1       2.399   5.632  17.920  0.00  0.00    +0.000 C 
ATOM     14  N   UNL     1       3.668   5.320  17.436  0.00  0.00    +0.000 N 
ATOM     15  C   UNL     1       4.163   4.068  16.774  0.00  0.00    +0.000 C 
ATOM     16  C   UNL     1       5.470   4.550  16.069  0.00  0.00    +0.000 C 
ATOM     17  C   UNL     1       5.629   5.977  16.570  0.00  0.00    +0.000 C 
ATOM     18  C   UNL     1       4.873   5.963  17.897  0.00  0.00    +0.000 C 
ATOM     19  C   UNL     1       5.430   5.102  19.059  0.00  0.00    +0.000 C 
ATOM     20  C   UNL     1       4.813   3.678  19.176  0.00  0.00    +0.000 C 
ATOM     21  C   UNL     1       4.624   3.015  17.815  0.00  0.00    +0.000 C 
BRANCH  20  22
ATOM     22  O   UNL     1       3.549   3.722  19.850  0.00  0.00    +0.000 OA
ATOM     23  H   UNL     1       3.547   4.494  20.457  0.00  0.00    +0.000 HD
ENDBRANCH  20  22
ENDBRANCH   1  13
BRANCH  10  24
ATOM     24  C   UNL     1       0.123  11.568  20.369  0.00  0.00    +0.000 C 
BRANCH  24  25
ATOM     25  C   UNL     1       1.063  12.727  20.027  0.00  0.00    +0.000 C 
ATOM     26  F   UNL     1       1.500  12.699  18.750  0.00  0.00    +0.000 F 
ATOM     27  F   UNL     1       0.475  13.928  20.233  0.00  0.00    +0.000 F 
ATOM     28  F   UNL     1       2.160  12.684  20.825  0.00  0.00    +0.000 F 
ENDBRANCH  24  25
ENDBRANCH  10  24
TORSDOF 4
ENDMDL
MODEL 5
REMARK VINA RESULT:      -7.8      1.972      2.667
REMARK  Name = 
REMARK  4 active torsions:
REMARK  status: ('A' for Active; 'I' for Inactive)
REMARK    1  A    between atoms: C_2  and  C_3
REMARK    2  A    between atoms: N_12  and  C_13
REMARK    3  A    between atoms: C_13  and  C_14
REMARK    4  A    between atoms: C_24  and  O_25
REMARK                            x       y       z     vdW  Elec       q    Type
REMARK                         _______ _______ _______ _____ _____    ______ ____
ROOT
ATOM      1  C   UNL     1       2.344   6.776  19.335  0.00  0.00    +0.000 A 
ATOM      2  C   UNL     1       1.811   7.063  20.618  0.00  0.00    +0.000 A 
ATOM      3  C   UNL     1       1.267   8.338  20.931  0.00  0.00    +0.000 A 
ATOM      4  C   UNL     1       1.300   9.308  19.952  0.00  0.00    +0.000 A 
ATOM      5  C   UNL     1       1.752   8.993  18.667  0.00  0.00    +0.000 A 
ATOM      6  C   UNL     1       2.214   7.737  18.315  0.00  0.00    +0.000 A 
ATOM      7  N   UNL     1       1.732  10.153  17.902  0.00  0.00    +0.000 N 
ATOM      8  C   UNL     1       1.313  11.227  18.696  0.00  0.00    +0.000 A 
ATOM      9  O   UNL     1       1.256  12.406  18.359  0.00  0.00    +0.000 OA
ATOM     10  N   UNL     1       0.990  10.687  19.958  0.00  0.00    +0.000 N 
ATOM     11  H   UNL     1       2.076  10.266  16.951  0.00  0.00    +0.000 HD
ENDROOT
BRANCH   1  13
ATOM     12  O   UNL     1       4.029   5.507  18.205  0.00  0.00    +0.000 OA
ATOM     13  C   UNL     1       3.180   5.523  19.098  0.00  0.00    +0.000 C 
ATOM     14  N   UNL     1       2.886   4.393  19.857  0.00  0.00    +0.000 N 
ATOM     15  C   UNL     1       3.503   3.026  19.825  0.00  0.00    +0.000 C 
ATOM     16  C   UNL     1       3.075   2.426  21.202  0.00  0.00    +0.000 C 
ATOM     17  C   UNL     1       2.127   3.478  21.758  0.00  0.00    +0.000 C 
ATOM     18  C   UNL     1       1.615   4.181  20.503  0.00  0.00    +0.000 C 
ATOM     19  C   UNL     1       0.732   3.378  19.512  0.00  0.00    +0.000 C 
ATOM     20  C   UNL     1       1.501   2.729  18.325  0.00  0.00    +0.000 C 
ATOM     21  C   UNL     1       2.831   2.121  18.759  0.00  0.00    +0.000 C 
BRANCH  20  22
ATOM     22  O   UNL     1       1.745   3.688  17.289  0.00  0.00    +0.000 OA
ATOM     23  H   UNL     1       2.709   3.704  17.100  0.00  0.00    +0.000 HD
ENDBRANCH  20  22
ENDBRANCH   1  13
BRANCH  10  24
ATOM     24  C   UNL     1       0.588  11.502  21.086  0.00  0.00    +0.000 C 
BRANCH  24  25
ATOM     25  C   UNL     1      -0.893  11.442  21.472  0.00  0.00    +0.000 C 
ATOM     26  F   UNL     1      -1.336  12.573  22.062  0.00  0.00    +0.000 F 
ATOM     27  F   UNL     1      -1.682  11.203  20.400  0.00  0.00    +0.000 F 
ATOM     28  F   UNL     1      -1.102  10.426  22.348  0.00  0.00    +0.000 F 
ENDBRANCH  24  25
ENDBRANCH  10  24
TORSDOF 4
ENDMDL
MODEL 6
REMARK VINA RESULT:      -7.7      2.923      4.289
REMARK  Name = 
REMARK  4 active torsions:
REMARK  status: ('A' for Active; 'I' for Inactive)
REMARK    1  A    between atoms: C_2  and  C_3
REMARK    2  A    between atoms: N_12  and  C_13
REMARK    3  A    between atoms: C_13  and  C_14
REMARK    4  A    between atoms: C_24  and  O_25
REMARK                            x       y       z     vdW  Elec       q    Type
REMARK                         _______ _______ _______ _____ _____    ______ ____
ROOT
ATOM      1  C   UNL     1       3.031   5.637  18.668  0.00  0.00    +0.000 A 
ATOM      2  C   UNL     1       2.809   5.590  20.068  0.00  0.00    +0.000 A 
ATOM      3  C   UNL     1       2.181   6.661  20.759  0.00  0.00    +0.000 A 
ATOM      4  C   UNL     1       1.817   7.772  20.028  0.00  0.00    +0.000 A 
ATOM      5  C   UNL     1       1.966   7.776  18.637  0.00  0.00    +0.000 A 
ATOM      6  C   UNL     1       2.503   6.714  17.932  0.00  0.00    +0.000 A 
ATOM      7  N   UNL     1       1.579   9.023  18.162  0.00  0.00    +0.000 N 
ATOM      8  C   UNL     1       1.224   9.843  19.240  0.00  0.00    +0.000 A 
ATOM      9  O   UNL     1       0.908  11.028  19.183  0.00  0.00    +0.000 OA
ATOM     10  N   UNL     1       1.319   9.042  20.397  0.00  0.00    +0.000 N 
ATOM     11  H   UNL     1       1.647   9.362  17.204  0.00  0.00    +0.000 HD
ENDROOT
BRANCH   1  13
ATOM     12  O   UNL     1       3.996   3.465  18.384  0.00  0.00    +0.000 OA
ATOM     13  C   UNL     1       3.955   4.631  17.989  0.00  0.00    +0.000 C 
ATOM     14  N   UNL     1       4.797   5.100  16.983  0.00  0.00    +0.000 N 
ATOM     15  C   UNL     1       5.824   4.368  16.170  0.00  0.00    +0.000 C 
ATOM     16  C   UNL     1       6.032   5.319  14.949  0.00  0.00    +0.000 C 
ATOM     17  C   UNL     1       5.217   6.547  15.323  0.00  0.00    +0.000 C 
ATOM     18  C   UNL     1       5.176   6.484  16.848  0.00  0.00    +0.000 C 
ATOM     19  C   UNL     1       6.500   6.670  17.633  0.00  0.00    +0.000 C 
ATOM     20  C   UNL     1       7.227   5.349  18.018  0.00  0.00    +0.000 C 
ATOM     21  C   UNL     1       7.197   4.321  16.891  0.00  0.00    +0.000 C 
BRANCH  20  22
ATOM     22  O   UNL     1       6.644   4.768  19.192  0.00  0.00    +0.000 OA
ATOM     23  H   UNL     1       7.364   4.397  19.745  0.00  0.00    +0.000 HD
ENDBRANCH  20  22
ENDBRANCH   1  13
BRANCH  10  24
ATOM     24  C   UNL     1       1.103   9.558  21.733  0.00  0.00    +0.000 C 
BRANCH  24  25
ATOM     25  C   UNL     1      -0.278   9.305  22.343  0.00  0.00    +0.000 C 
ATOM     26  F   UNL     1      -0.877   8.193  21.864  0.00  0.00    +0.000 F 
ATOM     27  F   UNL     1      -0.219   9.190  23.689  0.00  0.00    +0.000 F 
ATOM     28  F   UNL     1      -1.102  10.349  22.073  0.00  0.00    +0.000 F 
ENDBRANCH  24  25
ENDBRANCH  10  24
TORSDOF 4
ENDMDL
MODEL 7
REMARK VINA RESULT:      -7.7      2.000      3.067
REMARK  Name = 
REMARK  4 active torsions:
REMARK  status: ('A' for Active; 'I' for Inactive)
REMARK    1  A    between atoms: C_2  and  C_3
REMARK    2  A    between atoms: N_12  and  C_13
REMARK    3  A    between atoms: C_13  and  C_14
REMARK    4  A    between atoms: C_24  and  O_25
REMARK                            x       y       z     vdW  Elec       q    Type
REMARK                         _______ _______ _______ _____ _____    ______ ____
ROOT
ATOM      1  C   UNL     1       2.597   7.154  18.563  0.00  0.00    +0.000 A 
ATOM      2  C   UNL     1       2.370   8.155  17.585  0.00  0.00    +0.000 A 
ATOM      3  C   UNL     1       1.652   9.343  17.888  0.00  0.00    +0.000 A 
ATOM      4  C   UNL     1       1.151   9.482  19.165  0.00  0.00    +0.000 A 
ATOM      5  C   UNL     1       1.449   8.529  20.144  0.00  0.00    +0.000 A 
ATOM      6  C   UNL     1       2.212   7.403  19.893  0.00  0.00    +0.000 A 
ATOM      7  N   UNL     1       0.781   8.881  21.311  0.00  0.00    +0.000 N 
ATOM      8  C   UNL     1       0.015  10.029  21.081  0.00  0.00    +0.000 A 
ATOM      9  O   UNL     1      -0.755  10.565  21.874  0.00  0.00    +0.000 OA
ATOM     10  N   UNL     1       0.292  10.435  19.759  0.00  0.00    +0.000 N 
ATOM     11  H   UNL     1       0.735   8.344  22.175  0.00  0.00    +0.000 HD
ENDROOT
BRANCH   1  13
ATOM     12  O   UNL     1       2.660   4.766  18.722  0.00  0.00    +0.000 OA
ATOM     13  C   UNL     1       3.104   5.771  18.164  0.00  0.00    +0.000 C 
ATOM     14  N   UNL     1       4.132   5.702  17.227  0.00  0.00    +0.000 N 
ATOM     15  C   UNL     1       4.849   4.507  16.673  0.00  0.00    +0.000 C 
ATOM     16  C   UNL     1       5.498   5.072  15.370  0.00  0.00    +0.000 C 
ATOM     17  C   UNL     1       5.199   6.562  15.452  0.00  0.00    +0.000 C 
ATOM     18  C   UNL     1       5.028   6.797  16.951  0.00  0.00    +0.000 C 
ATOM     19  C   UNL     1       6.260   6.619  17.875  0.00  0.00    +0.000 C 
ATOM     20  C   UNL     1       6.386   5.217  18.538  0.00  0.00    +0.000 C 
ATOM     21  C   UNL     1       6.040   4.086  17.573  0.00  0.00    +0.000 C 
BRANCH  20  22
ATOM     22  O   UNL     1       5.541   5.118  19.691  0.00  0.00    +0.000 OA
ATOM     23  H   UNL     1       6.109   5.008  20.484  0.00  0.00    +0.000 HD
ENDBRANCH  20  22
ENDBRANCH   1  13
BRANCH  10  24
ATOM     24  C   UNL     1      -0.373  11.551  19.121  0.00  0.00    +0.000 C 
BRANCH  24  25
ATOM     25  C   UNL     1      -1.737  11.257  18.488  0.00  0.00    +0.000 C 
ATOM     26  F   UNL     1      -2.776  11.659  19.250  0.00  0.00    +0.000 F 
ATOM     27  F   UNL     1      -1.865  11.845  17.277  0.00  0.00    +0.000 F 
ATOM     28  F   UNL     1      -1.878   9.921  18.293  0.00  0.00    +0.000 F 
ENDBRANCH  24  25
ENDBRANCH  10  24
TORSDOF 4
ENDMDL
MODEL 8
REMARK VINA RESULT:      -7.7      1.700      2.343
REMARK  Name = 
REMARK  4 active torsions:
REMARK  status: ('A' for Active; 'I' for Inactive)
REMARK    1  A    between atoms: C_2  and  C_3
REMARK    2  A    between atoms: N_12  and  C_13
REMARK    3  A    between atoms: C_13  and  C_14
REMARK    4  A    between atoms: C_24  and  O_25
REMARK                            x       y       z     vdW  Elec       q    Type
REMARK                         _______ _______ _______ _____ _____    ______ ____
ROOT
ATOM      1  C   UNL     1       2.378   6.887  19.660  0.00  0.00    +0.000 A 
ATOM      2  C   UNL     1       1.584   7.203  20.792  0.00  0.00    +0.000 A 
ATOM      3  C   UNL     1       0.941   8.464  20.921  0.00  0.00    +0.000 A 
ATOM      4  C   UNL     1       1.137   9.390  19.919  0.00  0.00    +0.000 A 
ATOM      5  C   UNL     1       1.854   9.041  18.770  0.00  0.00    +0.000 A 
ATOM      6  C   UNL     1       2.424   7.794  18.586  0.00  0.00    +0.000 A 
ATOM      7  N   UNL     1       1.947  10.165  17.957  0.00  0.00    +0.000 N 
ATOM      8  C   UNL     1       1.335  11.251  18.593  0.00  0.00    +0.000 A 
ATOM      9  O   UNL     1       1.304  12.411  18.190  0.00  0.00    +0.000 OA
ATOM     10  N   UNL     1       0.781  10.752  19.791  0.00  0.00    +0.000 N 
ATOM     11  H   UNL     1       2.474  10.252  17.091  0.00  0.00    +0.000 HD
ENDROOT
BRANCH   1  13
ATOM     12  O   UNL     1       4.515   5.807  19.623  0.00  0.00    +0.000 OA
ATOM     13  C   UNL     1       3.291   5.665  19.662  0.00  0.00    +0.000 C 
ATOM     14  N   UNL     1       2.693   4.408  19.621  0.00  0.00    +0.000 N 
ATOM     15  C   UNL     1       3.321   3.045  19.578  0.00  0.00    +0.000 C 
ATOM     16  C   UNL     1       2.150   2.116  20.031  0.00  0.00    +0.000 C 
ATOM     17  C   UNL     1       0.964   3.066  20.105  0.00  0.00    +0.000 C 
ATOM     18  C   UNL     1       1.354   4.182  19.140  0.00  0.00    +0.000 C 
ATOM     19  C   UNL     1       1.464   3.851  17.629  0.00  0.00    +0.000 C 
ATOM     20  C   UNL     1       2.898   3.499  17.137  0.00  0.00    +0.000 C 
ATOM     21  C   UNL     1       3.649   2.612  18.126  0.00  0.00    +0.000 C 
BRANCH  20  22
ATOM     22  O   UNL     1       3.666   4.687  16.905  0.00  0.00    +0.000 OA
ATOM     23  H   UNL     1       3.401   5.363  17.567  0.00  0.00    +0.000 HD
ENDBRANCH  20  22
ENDBRANCH   1  13
BRANCH  10  24
ATOM     24  C   UNL     1       0.127  11.596  20.769  0.00  0.00    +0.000 C 
BRANCH  24  25
ATOM     25  C   UNL     1      -1.326  11.979  20.472  0.00  0.00    +0.000 C 
ATOM     26  F   UNL     1      -1.902  11.195  19.534  0.00  0.00    +0.000 F 
ATOM     27  F   UNL     1      -2.096  11.923  21.582  0.00  0.00    +0.000 F 
ATOM     28  F   UNL     1      -1.384  13.256  20.016  0.00  0.00    +0.000 F 
ENDBRANCH  24  25
ENDBRANCH  10  24
TORSDOF 4
ENDMDL
MODEL 9
REMARK VINA RESULT:      -7.6      1.653      1.892
REMARK  Name = 
REMARK  4 active torsions:
REMARK  status: ('A' for Active; 'I' for Inactive)
REMARK    1  A    between atoms: C_2  and  C_3
REMARK    2  A    between atoms: N_12  and  C_13
REMARK    3  A    between atoms: C_13  and  C_14
REMARK    4  A    between atoms: C_24  and  O_25
REMARK                            x       y       z     vdW  Elec       q    Type
REMARK                         _______ _______ _______ _____ _____    ______ ____
ROOT
ATOM      1  C   UNL     1       2.820   6.694  18.997  0.00  0.00    +0.000 A 
ATOM      2  C   UNL     1       2.564   7.511  17.866  0.00  0.00    +0.000 A 
ATOM      3  C   UNL     1       1.777   8.690  17.963  0.00  0.00    +0.000 A 
ATOM      4  C   UNL     1       1.239   9.004  19.193  0.00  0.00    +0.000 A 
ATOM      5  C   UNL     1       1.563   8.238  20.317  0.00  0.00    +0.000 A 
ATOM      6  C   UNL     1       2.390   7.130  20.263  0.00  0.00    +0.000 A 
ATOM      7  N   UNL     1       0.850   8.734  21.402  0.00  0.00    +0.000 N 
ATOM      8  C   UNL     1       0.030   9.787  20.978  0.00  0.00    +0.000 A 
ATOM      9  O   UNL     1      -0.786  10.398  21.662  0.00  0.00    +0.000 OA
ATOM     10  N   UNL     1       0.317   9.990  19.612  0.00  0.00    +0.000 N 
ATOM     11  H   UNL     1       0.810   8.342  22.340  0.00  0.00    +0.000 HD
ENDROOT
BRANCH   1  13
ATOM     12  O   UNL     1       4.169   5.050  17.896  0.00  0.00    +0.000 OA
ATOM     13  C   UNL     1       3.408   5.296  18.834  0.00  0.00    +0.000 C 
ATOM     14  N   UNL     1       2.986   4.307  19.720  0.00  0.00    +0.000 N 
ATOM     15  C   UNL     1       3.355   2.854  19.785  0.00  0.00    +0.000 C 
ATOM     16  C   UNL     1       2.941   2.463  21.240  0.00  0.00    +0.000 C 
ATOM     17  C   UNL     1       2.234   3.711  21.746  0.00  0.00    +0.000 C 
ATOM     18  C   UNL     1       1.753   4.381  20.462  0.00  0.00    +0.000 C 
ATOM     19  C   UNL     1       0.670   3.665  19.613  0.00  0.00    +0.000 C 
ATOM     20  C   UNL     1       1.220   2.789  18.451  0.00  0.00    +0.000 C 
ATOM     21  C   UNL     1       2.456   1.993  18.859  0.00  0.00    +0.000 C 
BRANCH  20  22
ATOM     22  O   UNL     1       1.542   3.595  17.310  0.00  0.00    +0.000 OA
ATOM     23  H   UNL     1       1.733   4.507  17.618  0.00  0.00    +0.000 HD
ENDBRANCH  20  22
ENDBRANCH   1  13
BRANCH  10  24
ATOM     24  C   UNL     1      -0.391  10.951  18.792  0.00  0.00    +0.000 C 
BRANCH  24  25
ATOM     25  C   UNL     1       0.206  12.360  18.729  0.00  0.00    +0.000 C 
ATOM     26  F   UNL     1      -0.422  13.166  17.846  0.00  0.00    +0.000 F 
ATOM     27  F   UNL     1       0.176  12.971  19.935  0.00  0.00    +0.000 F 
ATOM     28  F   UNL     1       1.509  12.295  18.353  0.00  0.00    +0.000 F 
ENDBRANCH  24  25
ENDBRANCH  10  24
TORSDOF 4
ENDMDL
