MODEL 1
REMARK VINA RESULT:      -8.4      0.000      0.000
REMARK  Name = 
REMARK  3 active torsions:
REMARK  status: ('A' for Active; 'I' for Inactive)
REMARK    1  A    between atoms: C_10  and  N_11
REMARK    2  A    between atoms: C_12  and  C_14
REMARK    3  A    between atoms: C_14  and  C_15
REMARK                            x       y       z     vdW  Elec       q    Type
REMARK                         _______ _______ _______ _____ _____    ______ ____
ROOT
ATOM      1  N   UNL     1       3.057   6.215  18.774  0.00  0.00    +0.000 N 
ATOM      2  C   UNL     1       2.591   5.048  18.170  0.00  0.00    +0.000 C 
ATOM      3  O   UNL     1       1.487   4.925  17.638  0.00  0.00    +0.000 OA
ATOM      4  H   UNL     1       3.921   6.132  19.297  0.00  0.00    +0.000 HD
ENDROOT
BRANCH   1  14
ATOM      5  O   UNL     1       0.831   8.703  22.593  0.00  0.00    +0.000 OA
ATOM      6  C   UNL     1       0.637   9.407  21.609  0.00  0.00    +0.000 C 
ATOM      7  N   UNL     1      -0.044  10.599  21.704  0.00  0.00    +0.000 N 
ATOM      8  C   UNL     1      -0.644  11.218  20.545  0.00  0.00    +0.000 C 
ATOM      9  C   UNL     1       0.302  11.236  19.352  0.00  0.00    +0.000 C 
ATOM     10  C   UNL     1       0.995   9.911  19.181  0.00  0.00    +0.000 A 
ATOM     11  C   UNL     1       1.584   9.585  17.958  0.00  0.00    +0.000 A 
ATOM     12  C   UNL     1       2.286   8.389  17.805  0.00  0.00    +0.000 A 
ATOM     13  F   UNL     1       2.922   8.224  16.640  0.00  0.00    +0.000 F 
ATOM     14  C   UNL     1       2.399   7.467  18.855  0.00  0.00    +0.000 A 
ATOM     15  C   UNL     1       1.839   7.815  20.096  0.00  0.00    +0.000 A 
ATOM     16  C   UNL     1       1.150   9.030  20.261  0.00  0.00    +0.000 A 
ATOM     17  H   UNL     1      -0.427  10.784  22.623  0.00  0.00    +0.000 HD
ENDBRANCH   1  14
BRANCH   2  18
ATOM     18  C   UNL     1       3.590   3.820  18.329  0.00  0.00    +0.000 C 
ATOM     19  C   UNL     1       2.939   2.404  18.042  0.00  0.00    +0.000 C 
ATOM     20  C   UNL     1       3.693   1.860  19.266  0.00  0.00    +0.000 C 
ATOM     21  C   UNL     1       3.735   3.294  19.807  0.00  0.00    +0.000 C 
BRANCH  18  22
ATOM     22  C   UNL     1       4.915   4.119  17.443  0.00  0.00    +0.000 A 
ATOM     23  C   UNL     1       4.917   4.140  16.034  0.00  0.00    +0.000 A 
ATOM     24  C   UNL     1       6.065   4.446  15.295  0.00  0.00    +0.000 A 
ATOM     25  C   UNL     1       7.258   4.737  15.945  0.00  0.00    +0.000 A 
ATOM     26  C   UNL     1       7.302   4.723  17.332  0.00  0.00    +0.000 A 
ATOM     27  C   UNL     1       6.149   4.421  18.064  0.00  0.00    +0.000 A 
ENDBRANCH  18  22
ENDBRANCH   2  18
TORSDOF 3
ENDMDL
MODEL 2
REMARK VINA RESULT:      -8.1      2.635      7.780
REMARK  Name = 
REMARK  3 active torsions:
REMARK  status: ('A' for Active; 'I' for Inactive)
REMARK    1  A    between atoms: C_10  and  N_11
REMARK    2  A    between atoms: C_12  and  C_14
REMARK    3  A    between atoms: C_14  and  C_15
REMARK                            x       y       z     vdW  Elec       q    Type
REMARK                         _______ _______ _______ _____ _____    ______ ____
ROOT
ATOM      1  N   UNL     1       2.121   7.576  18.799  0.00  0.00    +0.000 N 
ATOM      2  C   UNL     1       1.764   8.843  18.341  0.00  0.00    +0.000 C 
ATOM      3  O   UNL     1       2.183   9.359  17.304  0.00  0.00    +0.000 OA
ATOM      4  H   UNL     1       1.816   7.338  19.735  0.00  0.00    +0.000 HD
ENDROOT
BRANCH   1  14
ATOM      5  O   UNL     1       6.920   7.812  17.172  0.00  0.00    +0.000 OA
ATOM      6  C   UNL     1       6.533   6.700  16.837  0.00  0.00    +0.000 C 
ATOM      7  N   UNL     1       7.363   5.820  16.181  0.00  0.00    +0.000 N 
ATOM      8  C   UNL     1       6.836   4.713  15.418  0.00  0.00    +0.000 C 
ATOM      9  C   UNL     1       5.752   3.960  16.177  0.00  0.00    +0.000 C 
ATOM     10  C   UNL     1       4.782   4.907  16.832  0.00  0.00    +0.000 A 
ATOM     11  C   UNL     1       3.525   4.451  17.232  0.00  0.00    +0.000 A 
ATOM     12  C   UNL     1       2.642   5.300  17.900  0.00  0.00    +0.000 A 
ATOM     13  F   UNL     1       1.517   4.740  18.356  0.00  0.00    +0.000 F 
ATOM     14  C   UNL     1       2.971   6.636  18.165  0.00  0.00    +0.000 A 
ATOM     15  C   UNL     1       4.252   7.082  17.796  0.00  0.00    +0.000 A 
ATOM     16  C   UNL     1       5.154   6.223  17.143  0.00  0.00    +0.000 A 
ATOM     17  H   UNL     1       8.268   6.207  15.939  0.00  0.00    +0.000 HD
ENDBRANCH   1  14
BRANCH   2  18
ATOM     18  C   UNL     1       0.830   9.636  19.357  0.00  0.00    +0.000 C 
ATOM     19  C   UNL     1       1.588  10.702  20.250  0.00  0.00    +0.000 C 
ATOM     20  C   UNL     1       0.755  10.222  21.450  0.00  0.00    +0.000 C 
ATOM     21  C   UNL     1       0.576   8.885  20.719  0.00  0.00    +0.000 C 
BRANCH  18  22
ATOM     22  C   UNL     1      -0.421  10.252  18.528  0.00  0.00    +0.000 A 
ATOM     23  C   UNL     1      -1.241   9.484  17.678  0.00  0.00    +0.000 A 
ATOM     24  C   UNL     1      -2.341  10.032  17.009  0.00  0.00    +0.000 A 
ATOM     25  C   UNL     1      -2.655  11.377  17.165  0.00  0.00    +0.000 A 
ATOM     26  C   UNL     1      -1.871  12.171  17.990  0.00  0.00    +0.000 A 
ATOM     27  C   UNL     1      -0.776  11.615  18.658  0.00  0.00    +0.000 A 
ENDBRANCH  18  22
ENDBRANCH   2  18
TORSDOF 3
ENDMDL
MODEL 3
REMARK VINA RESULT:      -8.1      1.380      1.760
REMARK  Name = 
REMARK  3 active torsions:
REMARK  status: ('A' for Active; 'I' for Inactive)
REMARK    1  A    between atoms: C_10  and  N_11
REMARK    2  A    between atoms: C_12  and  C_14
REMARK    3  A    between atoms: C_14  and  C_15
REMARK                            x       y       z     vdW  Elec       q    Type
REMARK                         _______ _______ _______ _____ _____    ______ ____
ROOT
ATOM      1  N   UNL     1       2.715   7.039  19.428  0.00  0.00    +0.000 N 
ATOM      2  C   UNL     1       2.535   5.950  18.577  0.00  0.00    +0.000 C 
ATOM      3  O   UNL     1       1.581   5.808  17.810  0.00  0.00    +0.000 OA
ATOM      4  H   UNL     1       3.464   6.957  20.105  0.00  0.00    +0.000 HD
ENDROOT
BRANCH   1  14
ATOM      5  O   UNL     1       0.670   9.424  23.411  0.00  0.00    +0.000 OA
ATOM      6  C   UNL     1       0.243  10.028  22.435  0.00  0.00    +0.000 C 
ATOM      7  N   UNL     1      -0.590  11.114  22.572  0.00  0.00    +0.000 N 
ATOM      8  C   UNL     1      -1.426  11.566  21.485  0.00  0.00    +0.000 C 
ATOM      9  C   UNL     1      -0.661  11.643  20.170  0.00  0.00    +0.000 C 
ATOM     10  C   UNL     1       0.194  10.422  19.961  0.00  0.00    +0.000 A 
ATOM     11  C   UNL     1       0.657  10.106  18.682  0.00  0.00    +0.000 A 
ATOM     12  C   UNL     1       1.504   9.014  18.483  0.00  0.00    +0.000 A 
ATOM     13  F   UNL     1       1.996   8.868  17.249  0.00  0.00    +0.000 F 
ATOM     14  C   UNL     1       1.893   8.188  19.546  0.00  0.00    +0.000 A 
ATOM     15  C   UNL     1       1.458   8.531  20.837  0.00  0.00    +0.000 A 
ATOM     16  C   UNL     1       0.623   9.643  21.045  0.00  0.00    +0.000 A 
ATOM     17  H   UNL     1      -0.871  11.302  23.528  0.00  0.00    +0.000 HD
ENDBRANCH   1  14
BRANCH   2  18
ATOM     18  C   UNL     1       3.638   4.819  18.766  0.00  0.00    +0.000 C 
ATOM     19  C   UNL     1       3.390   3.510  17.907  0.00  0.00    +0.000 C 
ATOM     20  C   UNL     1       3.794   2.682  19.137  0.00  0.00    +0.000 C 
ATOM     21  C   UNL     1       3.391   3.879  20.007  0.00  0.00    +0.000 C 
BRANCH  18  22
ATOM     22  C   UNL     1       5.098   5.485  18.533  0.00  0.00    +0.000 A 
ATOM     23  C   UNL     1       6.203   5.245  19.374  0.00  0.00    +0.000 A 
ATOM     24  C   UNL     1       7.464   5.798  19.124  0.00  0.00    +0.000 A 
ATOM     25  C   UNL     1       7.661   6.618  18.019  0.00  0.00    +0.000 A 
ATOM     26  C   UNL     1       6.598   6.884  17.166  0.00  0.00    +0.000 A 
ATOM     27  C   UNL     1       5.342   6.325  17.421  0.00  0.00    +0.000 A 
ENDBRANCH  18  22
ENDBRANCH   2  18
TORSDOF 3
ENDMDL
MODEL 4
REMARK VINA RESULT:      -8.0      1.900      2.486
REMARK  Name = 
REMARK  3 active torsions:
REMARK  status: ('A' for Active; 'I' for Inactive)
REMARK    1  A    between atoms: C_10  and  N_11
REMARK    2  A    between atoms: C_12  and  C_14
REMARK    3  A    between atoms: C_14  and  C_15
REMARK                            x       y       z     vdW  Elec       q    Type
REMARK                         _______ _______ _______ _____ _____    ______ ____
ROOT
ATOM      1  N   UNL     1       2.997   5.616  19.176  0.00  0.00    +0.000 N 
ATOM      2  C   UNL     1       2.605   4.687  18.213  0.00  0.00    +0.000 C 
ATOM      3  O   UNL     1       1.532   4.712  17.609  0.00  0.00    +0.000 OA
ATOM      4  H   UNL     1       3.839   5.393  19.693  0.00  0.00    +0.000 HD
ENDROOT
BRANCH   1  14
ATOM      5  O   UNL     1       2.280  10.200  17.128  0.00  0.00    +0.000 OA
ATOM      6  C   UNL     1       1.731  10.260  18.221  0.00  0.00    +0.000 C 
ATOM      7  N   UNL     1       1.085  11.401  18.638  0.00  0.00    +0.000 N 
ATOM      8  C   UNL     1       0.811  11.645  20.034  0.00  0.00    +0.000 C 
ATOM      9  C   UNL     1       0.229  10.419  20.725  0.00  0.00    +0.000 C 
ATOM     10  C   UNL     1       0.976   9.169  20.347  0.00  0.00    +0.000 A 
ATOM     11  C   UNL     1       0.872   8.027  21.142  0.00  0.00    +0.000 A 
ATOM     12  C   UNL     1       1.506   6.841  20.769  0.00  0.00    +0.000 A 
ATOM     13  F   UNL     1       1.244   5.769  21.524  0.00  0.00    +0.000 F 
ATOM     14  C   UNL     1       2.288   6.764  19.608  0.00  0.00    +0.000 A 
ATOM     15  C   UNL     1       2.359   7.903  18.788  0.00  0.00    +0.000 A 
ATOM     16  C   UNL     1       1.702   9.093  19.149  0.00  0.00    +0.000 A 
ATOM     17  H   UNL     1       1.183  12.186  18.004  0.00  0.00    +0.000 HD
ENDBRANCH   1  14
BRANCH   2  18
ATOM     18  C   UNL     1       3.643   3.494  18.034  0.00  0.00    +0.000 C 
ATOM     19  C   UNL     1       3.015   2.159  17.457  0.00  0.00    +0.000 C 
ATOM     20  C   UNL     1       3.849   1.377  18.484  0.00  0.00    +0.000 C 
ATOM     21  C   UNL     1       3.883   2.648  19.342  0.00  0.00    +0.000 C 
BRANCH  18  22
ATOM     22  C   UNL     1       4.908   4.041  17.180  0.00  0.00    +0.000 A 
ATOM     23  C   UNL     1       6.123   4.447  17.767  0.00  0.00    +0.000 A 
ATOM     24  C   UNL     1       7.215   4.873  17.003  0.00  0.00    +0.000 A 
ATOM     25  C   UNL     1       7.125   4.912  15.616  0.00  0.00    +0.000 A 
ATOM     26  C   UNL     1       5.945   4.525  14.996  0.00  0.00    +0.000 A 
ATOM     27  C   UNL     1       4.860   4.096  15.767  0.00  0.00    +0.000 A 
ENDBRANCH  18  22
ENDBRANCH   2  18
TORSDOF 3
ENDMDL
MODEL 5
REMARK VINA RESULT:      -7.9      1.686      3.416
REMARK  Name = 
REMARK  3 active torsions:
REMARK  status: ('A' for Active; 'I' for Inactive)
REMARK    1  A    between atoms: C_10  and  N_11
REMARK    2  A    between atoms: C_12  and  C_14
REMARK    3  A    between atoms: C_14  and  C_15
REMARK                            x       y       z     vdW  Elec       q    Type
REMARK                         _______ _______ _______ _____ _____    ______ ____
ROOT
ATOM      1  N   UNL     1       2.206   7.264  19.373  0.00  0.00    +0.000 N 
ATOM      2  C   UNL     1       3.249   7.060  18.471  0.00  0.00    +0.000 C 
ATOM      3  O   UNL     1       3.646   7.894  17.656  0.00  0.00    +0.000 OA
ATOM      4  H   UNL     1       1.892   6.447  19.883  0.00  0.00    +0.000 HD
ENDROOT
BRANCH   1  14
ATOM      5  O   UNL     1       0.484   9.628  23.517  0.00  0.00    +0.000 OA
ATOM      6  C   UNL     1       0.037  10.278  22.581  0.00  0.00    +0.000 C 
ATOM      7  N   UNL     1      -0.734  11.398  22.789  0.00  0.00    +0.000 N 
ATOM      8  C   UNL     1      -1.601  11.920  21.758  0.00  0.00    +0.000 C 
ATOM      9  C   UNL     1      -0.901  11.997  20.408  0.00  0.00    +0.000 C 
ATOM     10  C   UNL     1      -0.118  10.744  20.123  0.00  0.00    +0.000 A 
ATOM     11  C   UNL     1       0.263  10.443  18.815  0.00  0.00    +0.000 A 
ATOM     12  C   UNL     1       1.046   9.319  18.544  0.00  0.00    +0.000 A 
ATOM     13  F   UNL     1       1.467   9.185  17.282  0.00  0.00    +0.000 F 
ATOM     14  C   UNL     1       1.448   8.445  19.563  0.00  0.00    +0.000 A 
ATOM     15  C   UNL     1       1.096   8.772  20.884  0.00  0.00    +0.000 A 
ATOM     16  C   UNL     1       0.327   9.916  21.164  0.00  0.00    +0.000 A 
ATOM     17  H   UNL     1      -0.957  11.571  23.763  0.00  0.00    +0.000 HD
ENDBRANCH   1  14
BRANCH   2  18
ATOM     18  C   UNL     1       3.828   5.578  18.507  0.00  0.00    +0.000 C 
ATOM     19  C   UNL     1       5.272   5.452  19.147  0.00  0.00    +0.000 C 
ATOM     20  C   UNL     1       5.638   4.478  18.016  0.00  0.00    +0.000 C 
ATOM     21  C   UNL     1       4.535   5.129  17.172  0.00  0.00    +0.000 C 
BRANCH  18  22
ATOM     22  C   UNL     1       2.722   4.614  19.200  0.00  0.00    +0.000 A 
ATOM     23  C   UNL     1       1.759   3.890  18.471  0.00  0.00    +0.000 A 
ATOM     24  C   UNL     1       0.845   3.031  19.091  0.00  0.00    +0.000 A 
ATOM     25  C   UNL     1       0.862   2.871  20.472  0.00  0.00    +0.000 A 
ATOM     26  C   UNL     1       1.792   3.570  21.230  0.00  0.00    +0.000 A 
ATOM     27  C   UNL     1       2.704   4.423  20.602  0.00  0.00    +0.000 A 
ENDBRANCH  18  22
ENDBRANCH   2  18
TORSDOF 3
ENDMDL
MODEL 6
REMARK VINA RESULT:      -7.9      2.360      7.702
REMARK  Name = 
REMARK  3 active torsions:
REMARK  status: ('A' for Active; 'I' for Inactive)
REMARK    1  A    between atoms: C_10  and  N_11
REMARK    2  A    between atoms: C_12  and  C_14
REMARK    3  A    between atoms: C_14  and  C_15
REMARK                            x       y       z     vdW  Elec       q    Type
REMARK                         _______ _______ _______ _____ _____    ______ ____
ROOT
ATOM      1  N   UNL     1       2.283   7.427  19.316  0.00  0.00    +0.000 N 
ATOM      2  C   UNL     1       1.544   8.529  18.890  0.00  0.00    +0.000 C 
ATOM      3  O   UNL     1       1.465   8.912  17.722  0.00  0.00    +0.000 OA
ATOM      4  H   UNL     1       2.375   7.313  20.319  0.00  0.00    +0.000 HD
ENDROOT
BRANCH   1  14
ATOM      5  O   UNL     1       6.887   7.689  17.204  0.00  0.00    +0.000 OA
ATOM      6  C   UNL     1       6.430   6.620  16.820  0.00  0.00    +0.000 C 
ATOM      7  N   UNL     1       7.157   5.780  16.008  0.00  0.00    +0.000 N 
ATOM      8  C   UNL     1       6.516   4.756  15.216  0.00  0.00    +0.000 C 
ATOM      9  C   UNL     1       5.494   3.966  16.022  0.00  0.00    +0.000 C 
ATOM     10  C   UNL     1       4.631   4.876  16.856  0.00  0.00    +0.000 A 
ATOM     11  C   UNL     1       3.409   4.417  17.350  0.00  0.00    +0.000 A 
ATOM     12  C   UNL     1       2.630   5.226  18.179  0.00  0.00    +0.000 A 
ATOM     13  F   UNL     1       1.542   4.654  18.705  0.00  0.00    +0.000 F 
ATOM     14  C   UNL     1       3.029   6.526  18.517  0.00  0.00    +0.000 A 
ATOM     15  C   UNL     1       4.277   6.971  18.051  0.00  0.00    +0.000 A 
ATOM     16  C   UNL     1       5.077   6.151  17.234  0.00  0.00    +0.000 A 
ATOM     17  H   UNL     1       8.043   6.166  15.702  0.00  0.00    +0.000 HD
ENDBRANCH   1  14
BRANCH   2  18
ATOM     18  C   UNL     1       0.881   9.340  20.088  0.00  0.00    +0.000 C 
ATOM     19  C   UNL     1       1.765   9.409  21.401  0.00  0.00    +0.000 C 
ATOM     20  C   UNL     1       0.489   9.152  22.218  0.00  0.00    +0.000 C 
ATOM     21  C   UNL     1      -0.111   8.492  20.970  0.00  0.00    +0.000 C 
BRANCH  18  22
ATOM     22  C   UNL     1       0.427  10.795  19.531  0.00  0.00    +0.000 A 
ATOM     23  C   UNL     1       1.299  11.897  19.442  0.00  0.00    +0.000 A 
ATOM     24  C   UNL     1       0.892  13.129  18.916  0.00  0.00    +0.000 A 
ATOM     25  C   UNL     1      -0.411  13.300  18.464  0.00  0.00    +0.000 A 
ATOM     26  C   UNL     1      -1.305  12.240  18.537  0.00  0.00    +0.000 A 
ATOM     27  C   UNL     1      -0.889  11.011  19.060  0.00  0.00    +0.000 A 
ENDBRANCH  18  22
ENDBRANCH   2  18
TORSDOF 3
ENDMDL
MODEL 7
REMARK VINA RESULT:      -7.8      2.150      3.175
REMARK  Name = 
REMARK  3 active torsions:
REMARK  status: ('A' for Active; 'I' for Inactive)
REMARK    1  A    between atoms: C_10  and  N_11
REMARK    2  A    between atoms: C_12  and  C_14
REMARK    3  A    between atoms: C_14  and  C_15
REMARK                            x       y       z     vdW  Elec       q    Type
REMARK                         _______ _______ _______ _____ _____    ______ ____
ROOT
ATOM      1  N   UNL     1       3.834   6.522  18.203  0.00  0.00    +0.000 N 
ATOM      2  C   UNL     1       3.822   5.363  17.429  0.00  0.00    +0.000 C 
ATOM      3  O   UNL     1       2.912   4.533  17.423  0.00  0.00    +0.000 OA
ATOM      4  H   UNL     1       4.705   7.039  18.219  0.00  0.00    +0.000 HD
ENDROOT
BRANCH   1  14
ATOM      5  O   UNL     1       0.977  10.713  18.232  0.00  0.00    +0.000 OA
ATOM      6  C   UNL     1       0.663  10.117  19.255  0.00  0.00    +0.000 C 
ATOM      7  N   UNL     1      -0.295  10.613  20.108  0.00  0.00    +0.000 N 
ATOM      8  C   UNL     1      -0.380  10.178  21.483  0.00  0.00    +0.000 C 
ATOM      9  C   UNL     1      -0.284   8.663  21.609  0.00  0.00    +0.000 C 
ATOM     10  C   UNL     1       0.817   8.109  20.745  0.00  0.00    +0.000 A 
ATOM     11  C   UNL     1       1.328   6.835  20.999  0.00  0.00    +0.000 A 
ATOM     12  C   UNL     1       2.302   6.281  20.166  0.00  0.00    +0.000 A 
ATOM     13  F   UNL     1       2.635   5.010  20.414  0.00  0.00    +0.000 F 
ATOM     14  C   UNL     1       2.818   6.990  19.073  0.00  0.00    +0.000 A 
ATOM     15  C   UNL     1       2.274   8.256  18.796  0.00  0.00    +0.000 A 
ATOM     16  C   UNL     1       1.276   8.808  19.619  0.00  0.00    +0.000 A 
ATOM     17  H   UNL     1      -0.639  11.532  19.854  0.00  0.00    +0.000 HD
ENDBRANCH   1  14
BRANCH   2  18
ATOM     18  C   UNL     1       5.171   5.139  16.616  0.00  0.00    +0.000 C 
ATOM     19  C   UNL     1       5.071   5.485  15.072  0.00  0.00    +0.000 C 
ATOM     20  C   UNL     1       5.882   4.212  14.782  0.00  0.00    +0.000 C 
ATOM     21  C   UNL     1       5.389   3.658  16.125  0.00  0.00    +0.000 C 
BRANCH  18  22
ATOM     22  C   UNL     1       6.366   5.922  17.382  0.00  0.00    +0.000 A 
ATOM     23  C   UNL     1       6.804   7.212  17.022  0.00  0.00    +0.000 A 
ATOM     24  C   UNL     1       7.809   7.882  17.729  0.00  0.00    +0.000 A 
ATOM     25  C   UNL     1       8.416   7.278  18.824  0.00  0.00    +0.000 A 
ATOM     26  C   UNL     1       8.017   6.006  19.211  0.00  0.00    +0.000 A 
ATOM     27  C   UNL     1       7.010   5.344  18.502  0.00  0.00    +0.000 A 
ENDBRANCH  18  22
ENDBRANCH   2  18
TORSDOF 3
ENDMDL
MODEL 8
REMARK VINA RESULT:      -7.7      1.395      1.965
REMARK  Name = 
REMARK  3 active torsions:
REMARK  status: ('A' for Active; 'I' for Inactive)
REMARK    1  A    between atoms: C_10  and  N_11
REMARK    2  A    between atoms: C_12  and  C_14
REMARK    3  A    between atoms: C_14  and  C_15
REMARK                            x       y       z     vdW  Elec       q    Type
REMARK                         _______ _______ _______ _____ _____    ______ ____
ROOT
ATOM      1  N   UNL     1       1.935   7.225  19.510  0.00  0.00    +0.000 N 
ATOM      2  C   UNL     1       3.001   6.870  18.685  0.00  0.00    +0.000 C 
ATOM      3  O   UNL     1       3.567   7.633  17.901  0.00  0.00    +0.000 OA
ATOM      4  H   UNL     1       1.475   6.465  19.996  0.00  0.00    +0.000 HD
ENDROOT
BRANCH   1  14
ATOM      5  O   UNL     1       0.185   9.811  23.507  0.00  0.00    +0.000 OA
ATOM      6  C   UNL     1      -0.077  10.517  22.543  0.00  0.00    +0.000 C 
ATOM      7  N   UNL     1      -0.699  11.735  22.693  0.00  0.00    +0.000 N 
ATOM      8  C   UNL     1      -1.385  12.373  21.594  0.00  0.00    +0.000 C 
ATOM      9  C   UNL     1      -0.558  12.351  20.315  0.00  0.00    +0.000 C 
ATOM     10  C   UNL     1       0.064  10.999  20.087  0.00  0.00    +0.000 A 
ATOM     11  C   UNL     1       0.519  10.647  18.816  0.00  0.00    +0.000 A 
ATOM     12  C   UNL     1       1.157   9.424  18.604  0.00  0.00    +0.000 A 
ATOM     13  F   UNL     1       1.671   9.231  17.385  0.00  0.00    +0.000 F 
ATOM     14  C   UNL     1       1.336   8.502  19.644  0.00  0.00    +0.000 A 
ATOM     15  C   UNL     1       0.913   8.875  20.931  0.00  0.00    +0.000 A 
ATOM     16  C   UNL     1       0.290  10.117  21.154  0.00  0.00    +0.000 A 
ATOM     17  H   UNL     1      -0.984  11.938  23.645  0.00  0.00    +0.000 HD
ENDBRANCH   1  14
BRANCH   2  18
ATOM     18  C   UNL     1       3.365   5.323  18.763  0.00  0.00    +0.000 C 
ATOM     19  C   UNL     1       2.303   4.364  18.081  0.00  0.00    +0.000 C 
ATOM     20  C   UNL     1       2.456   3.417  19.282  0.00  0.00    +0.000 C 
ATOM     21  C   UNL     1       2.923   4.624  20.105  0.00  0.00    +0.000 C 
BRANCH  18  22
ATOM     22  C   UNL     1       4.875   5.123  18.206  0.00  0.00    +0.000 A 
ATOM     23  C   UNL     1       6.026   5.396  18.971  0.00  0.00    +0.000 A 
ATOM     24  C   UNL     1       7.317   5.172  18.481  0.00  0.00    +0.000 A 
ATOM     25  C   UNL     1       7.501   4.670  17.197  0.00  0.00    +0.000 A 
ATOM     26  C   UNL     1       6.394   4.392  16.407  0.00  0.00    +0.000 A 
ATOM     27  C   UNL     1       5.106   4.614  16.906  0.00  0.00    +0.000 A 
ENDBRANCH  18  22
ENDBRANCH   2  18
TORSDOF 3
ENDMDL
MODEL 9
REMARK VINA RESULT:      -7.6      2.566      7.637
REMARK  Name = 
REMARK  3 active torsions:
REMARK  status: ('A' for Active; 'I' for Inactive)
REMARK    1  A    between atoms: C_10  and  N_11
REMARK    2  A    between atoms: C_12  and  C_14
REMARK    3  A    between atoms: C_14  and  C_15
REMARK                            x       y       z     vdW  Elec       q    Type
REMARK                         _______ _______ _______ _____ _____    ______ ____
ROOT
ATOM      1  N   UNL     1       2.057   8.303  18.015  0.00  0.00    +0.000 N 
ATOM      2  C   UNL     1       1.545   8.787  19.218  0.00  0.00    +0.000 C 
ATOM      3  O   UNL     1       1.753   8.284  20.323  0.00  0.00    +0.000 OA
ATOM      4  H   UNL     1       1.690   8.727  17.172  0.00  0.00    +0.000 HD
ENDROOT
BRANCH   1  14
ATOM      5  O   UNL     1       7.032   7.961  17.088  0.00  0.00    +0.000 OA
ATOM      6  C   UNL     1       6.632   6.804  17.062  0.00  0.00    +0.000 C 
ATOM      7  N   UNL     1       7.490   5.753  16.835  0.00  0.00    +0.000 N 
ATOM      8  C   UNL     1       7.007   4.468  16.386  0.00  0.00    +0.000 C 
ATOM      9  C   UNL     1       5.793   4.005  17.180  0.00  0.00    +0.000 C 
ATOM     10  C   UNL     1       4.801   5.121  17.366  0.00  0.00    +0.000 A 
ATOM     11  C   UNL     1       3.479   4.828  17.706  0.00  0.00    +0.000 A 
ATOM     12  C   UNL     1       2.564   5.855  17.948  0.00  0.00    +0.000 A 
ATOM     13  F   UNL     1       1.360   5.478  18.391  0.00  0.00    +0.000 F 
ATOM     14  C   UNL     1       2.929   7.202  17.829  0.00  0.00    +0.000 A 
ATOM     15  C   UNL     1       4.270   7.495  17.525  0.00  0.00    +0.000 A 
ATOM     16  C   UNL     1       5.200   6.463  17.304  0.00  0.00    +0.000 A 
ATOM     17  H   UNL     1       8.439   6.034  16.615  0.00  0.00    +0.000 HD
ENDBRANCH   1  14
BRANCH   2  18
ATOM     18  C   UNL     1       0.549  10.013  19.027  0.00  0.00    +0.000 C 
ATOM     19  C   UNL     1      -0.746   9.955  19.938  0.00  0.00    +0.000 C 
ATOM     20  C   UNL     1      -1.566  10.417  18.722  0.00  0.00    +0.000 C 
ATOM     21  C   UNL     1      -0.459   9.843  17.828  0.00  0.00    +0.000 C 
BRANCH  18  22
ATOM     22  C   UNL     1       1.395  11.388  19.183  0.00  0.00    +0.000 A 
ATOM     23  C   UNL     1       2.179  11.938  18.150  0.00  0.00    +0.000 A 
ATOM     24  C   UNL     1       2.863  13.150  18.298  0.00  0.00    +0.000 A 
ATOM     25  C   UNL     1       2.790  13.853  19.495  0.00  0.00    +0.000 A 
ATOM     26  C   UNL     1       2.032  13.345  20.541  0.00  0.00    +0.000 A 
ATOM     27  C   UNL     1       1.347  12.136  20.384  0.00  0.00    +0.000 A 
ENDBRANCH  18  22
ENDBRANCH   2  18
TORSDOF 3
ENDMDL
