MODEL 1
REMARK VINA RESULT:      -8.7      0.000      0.000
REMARK  Name = 
REMARK  5 active torsions:
REMARK  status: ('A' for Active; 'I' for Inactive)
REMARK    1  A    between atoms: N_4  and  C_5
REMARK    2  A    between atoms: C_5  and  C_6
REMARK    3  A    between atoms: C_5  and  C_24
REMARK    4  A    between atoms: C_6  and  C_7
REMARK    5  A    between atoms: C_12  and  C_13
REMARK                            x       y       z     vdW  Elec       q    Type
REMARK                         _______ _______ _______ _____ _____    ______ ____
ROOT
ATOM      1  C   UNL     1      -0.262   9.970  19.455  0.00  0.00    +0.000 C 
ATOM      2  O   UNL     1      -0.794  10.034  20.567  0.00  0.00    +0.000 OA
ATOM      3  N   UNL     1       1.053   9.553  19.277  0.00  0.00    +0.000 N 
ATOM      4  C   UNL     1       1.785   9.624  18.013  0.00  0.00    +0.000 C 
ATOM      5  C   UNL     1       2.487   8.337  17.720  0.00  0.00    +0.000 C 
ATOM      6  C   UNL     1       2.554   7.287  18.562  0.00  0.00    +0.000 C 
ATOM      7  C   UNL     1       1.924   7.381  19.936  0.00  0.00    +0.000 C 
ATOM      8  C   UNL     1       1.734   8.843  20.355  0.00  0.00    +0.000 C 
ENDROOT
BRANCH   6   9
ATOM      9  C   UNL     1       3.256   6.074  18.261  0.00  0.00    +0.000 A 
ATOM     10  C   UNL     1       4.592   6.033  17.912  0.00  0.00    +0.000 A 
ATOM     11  N   UNL     1       4.945   4.725  17.723  0.00  0.00    +0.000 N 
ATOM     12  C   UNL     1       3.861   3.905  17.930  0.00  0.00    +0.000 A 
ATOM     13  C   UNL     1       3.766   2.511  17.850  0.00  0.00    +0.000 A 
ATOM     14  C   UNL     1       2.520   1.928  18.095  0.00  0.00    +0.000 A 
ATOM     15  C   UNL     1       1.410   2.713  18.395  0.00  0.00    +0.000 A 
ATOM     16  C   UNL     1       1.524   4.105  18.467  0.00  0.00    +0.000 A 
ATOM     17  C   UNL     1       2.772   4.724  18.249  0.00  0.00    +0.000 A 
ATOM     18  H   UNL     1       5.866   4.402  17.466  0.00  0.00    +0.000 HD
ENDBRANCH   6   9
BRANCH   1  19
ATOM     19  C   UNL     1      -0.998  10.334  18.185  0.00  0.00    +0.000 C 
BRANCH  19  20
ATOM     20  C   UNL     1      -1.496  11.778  18.112  0.00  0.00    +0.000 C 
BRANCH  20  24
ATOM     21  N   UNL     1       0.434  14.058  20.241  0.00  0.00    +0.000 N 
ATOM     22  C   UNL     1       0.197  13.348  19.113  0.00  0.00    +0.000 C 
ATOM     23  O   UNL     1       1.030  13.310  18.218  0.00  0.00    +0.000 OA
ATOM     24  N   UNL     1      -0.986  12.683  19.144  0.00  0.00    +0.000 N 
ATOM     25  H   UNL     1       1.278  14.616  20.184  0.00  0.00    +0.000 HD
ATOM     26  H   UNL     1      -0.347  14.506  20.694  0.00  0.00    +0.000 HD
ATOM     27  H   UNL     1      -1.625  12.918  19.887  0.00  0.00    +0.000 HD
ENDBRANCH  20  24
BRANCH  20  28
ATOM     28  C   UNL     1      -3.026  11.780  18.097  0.00  0.00    +0.000 A 
ATOM     29  C   UNL     1      -3.729  12.092  19.281  0.00  0.00    +0.000 A 
ATOM     30  C   UNL     1      -5.123  12.108  19.328  0.00  0.00    +0.000 A 
ATOM     31  C   UNL     1      -5.854  11.801  18.189  0.00  0.00    +0.000 A 
ATOM     32  C   UNL     1      -5.187  11.460  17.014  0.00  0.00    +0.000 A 
ATOM     33  C   UNL     1      -3.785  11.440  16.965  0.00  0.00    +0.000 A 
ATOM     34 CL   UNL     1      -3.063  10.953  15.473  0.00  0.00    +0.000 Cl
ENDBRANCH  20  28
ENDBRANCH  19  20
ENDBRANCH   1  19
TORSDOF 5
ENDMDL
MODEL 2
REMARK VINA RESULT:      -8.4      1.976      3.345
REMARK  Name = 
REMARK  5 active torsions:
REMARK  status: ('A' for Active; 'I' for Inactive)
REMARK    1  A    between atoms: N_4  and  C_5
REMARK    2  A    between atoms: C_5  and  C_6
REMARK    3  A    between atoms: C_5  and  C_24
REMARK    4  A    between atoms: C_6  and  C_7
REMARK    5  A    between atoms: C_12  and  C_13
REMARK                            x       y       z     vdW  Elec       q    Type
REMARK                         _______ _______ _______ _____ _____    ______ ____
ROOT
ATOM      1  C   UNL     1      -0.312  10.026  19.684  0.00  0.00    +0.000 C 
ATOM      2  O   UNL     1      -0.809   9.990  20.813  0.00  0.00    +0.000 OA
ATOM      3  N   UNL     1       0.999   9.636  19.429  0.00  0.00    +0.000 N 
ATOM      4  C   UNL     1       1.688   9.821  18.153  0.00  0.00    +0.000 C 
ATOM      5  C   UNL     1       2.387   8.571  17.727  0.00  0.00    +0.000 C 
ATOM      6  C   UNL     1       2.487   7.452  18.473  0.00  0.00    +0.000 C 
ATOM      7  C   UNL     1       1.901   7.423  19.869  0.00  0.00    +0.000 C 
ATOM      8  C   UNL     1       1.717   8.841  20.419  0.00  0.00    +0.000 C 
ENDROOT
BRANCH   6   9
ATOM      9  C   UNL     1       3.184   6.275  18.046  0.00  0.00    +0.000 A 
ATOM     10  C   UNL     1       4.459   6.295  17.515  0.00  0.00    +0.000 A 
ATOM     11  N   UNL     1       4.831   5.007  17.244  0.00  0.00    +0.000 N 
ATOM     12  C   UNL     1       3.818   4.140  17.577  0.00  0.00    +0.000 A 
ATOM     13  C   UNL     1       3.764   2.745  17.475  0.00  0.00    +0.000 A 
ATOM     14  C   UNL     1       2.587   2.107  17.873  0.00  0.00    +0.000 A 
ATOM     15  C   UNL     1       1.501   2.841  18.344  0.00  0.00    +0.000 A 
ATOM     16  C   UNL     1       1.572   4.234  18.437  0.00  0.00    +0.000 A 
ATOM     17  C   UNL     1       2.754   4.907  18.065  0.00  0.00    +0.000 A 
ATOM     18  H   UNL     1       5.719   4.727  16.854  0.00  0.00    +0.000 HD
ENDBRANCH   6   9
BRANCH   1  19
ATOM     19  C   UNL     1      -1.091  10.493  18.474  0.00  0.00    +0.000 C 
BRANCH  19  20
ATOM     20  C   UNL     1      -2.110  11.601  18.743  0.00  0.00    +0.000 C 
BRANCH  20  24
ATOM     21  N   UNL     1      -4.824  11.850  16.289  0.00  0.00    +0.000 N 
ATOM     22  C   UNL     1      -4.255  11.421  17.440  0.00  0.00    +0.000 C 
ATOM     23  O   UNL     1      -4.837  10.620  18.157  0.00  0.00    +0.000 OA
ATOM     24  N   UNL     1      -3.010  11.926  17.636  0.00  0.00    +0.000 N 
ATOM     25  H   UNL     1      -5.782  11.538  16.185  0.00  0.00    +0.000 HD
ATOM     26  H   UNL     1      -4.648  12.799  15.996  0.00  0.00    +0.000 HD
ATOM     27  H   UNL     1      -2.718  12.676  17.030  0.00  0.00    +0.000 HD
ENDBRANCH  20  24
BRANCH  20  28
ATOM     28  C   UNL     1      -1.374  12.851  19.230  0.00  0.00    +0.000 A 
ATOM     29  C   UNL     1      -0.372  13.424  18.415  0.00  0.00    +0.000 A 
ATOM     30  C   UNL     1       0.333  14.562  18.806  0.00  0.00    +0.000 A 
ATOM     31  C   UNL     1       0.062  15.154  20.032  0.00  0.00    +0.000 A 
ATOM     32  C   UNL     1      -0.899  14.592  20.870  0.00  0.00    +0.000 A 
ATOM     33  C   UNL     1      -1.608  13.446  20.480  0.00  0.00    +0.000 A 
ATOM     34 CL   UNL     1      -2.740  12.803  21.617  0.00  0.00    +0.000 Cl
ENDBRANCH  20  28
ENDBRANCH  19  20
ENDBRANCH   1  19
TORSDOF 5
ENDMDL
MODEL 3
REMARK VINA RESULT:      -8.3      1.009      1.847
REMARK  Name = 
REMARK  5 active torsions:
REMARK  status: ('A' for Active; 'I' for Inactive)
REMARK    1  A    between atoms: N_4  and  C_5
REMARK    2  A    between atoms: C_5  and  C_6
REMARK    3  A    between atoms: C_5  and  C_24
REMARK    4  A    between atoms: C_6  and  C_7
REMARK    5  A    between atoms: C_12  and  C_13
REMARK                            x       y       z     vdW  Elec       q    Type
REMARK                         _______ _______ _______ _____ _____    ______ ____
ROOT
ATOM      1  C   UNL     1      -0.214   9.930  19.464  0.00  0.00    +0.000 C 
ATOM      2  O   UNL     1      -0.748  10.005  20.574  0.00  0.00    +0.000 OA
ATOM      3  N   UNL     1       1.092   9.483  19.291  0.00  0.00    +0.000 N 
ATOM      4  C   UNL     1       1.829   9.538  18.029  0.00  0.00    +0.000 C 
ATOM      5  C   UNL     1       2.503   8.236  17.737  0.00  0.00    +0.000 C 
ATOM      6  C   UNL     1       2.543   7.184  18.579  0.00  0.00    +0.000 C 
ATOM      7  C   UNL     1       1.911   7.292  19.951  0.00  0.00    +0.000 C 
ATOM      8  C   UNL     1       1.752   8.757  20.370  0.00  0.00    +0.000 C 
ENDROOT
BRANCH   6   9
ATOM      9  C   UNL     1       3.218   5.955  18.280  0.00  0.00    +0.000 A 
ATOM     10  C   UNL     1       3.020   4.786  18.988  0.00  0.00    +0.000 A 
ATOM     11  N   UNL     1       3.793   3.808  18.424  0.00  0.00    +0.000 N 
ATOM     12  C   UNL     1       4.504   4.316  17.364  0.00  0.00    +0.000 A 
ATOM     13  C   UNL     1       5.406   3.679  16.505  0.00  0.00    +0.000 A 
ATOM     14  C   UNL     1       6.010   4.448  15.507  0.00  0.00    +0.000 A 
ATOM     15  C   UNL     1       5.731   5.807  15.386  0.00  0.00    +0.000 A 
ATOM     16  C   UNL     1       4.829   6.427  16.255  0.00  0.00    +0.000 A 
ATOM     17  C   UNL     1       4.184   5.674  17.258  0.00  0.00    +0.000 A 
ATOM     18  H   UNL     1       3.839   2.849  18.739  0.00  0.00    +0.000 HD
ENDBRANCH   6   9
BRANCH   1  19
ATOM     19  C   UNL     1      -0.937  10.312  18.192  0.00  0.00    +0.000 C 
BRANCH  19  20
ATOM     20  C   UNL     1      -1.426  11.759  18.131  0.00  0.00    +0.000 C 
BRANCH  20  24
ATOM     21  N   UNL     1       0.499  14.016  20.288  0.00  0.00    +0.000 N 
ATOM     22  C   UNL     1       0.262  13.322  19.150  0.00  0.00    +0.000 C 
ATOM     23  O   UNL     1       1.092  13.303  18.252  0.00  0.00    +0.000 OA
ATOM     24  N   UNL     1      -0.917  12.651  19.174  0.00  0.00    +0.000 N 
ATOM     25  H   UNL     1       1.339  14.580  20.236  0.00  0.00    +0.000 HD
ATOM     26  H   UNL     1      -0.283  14.453  20.750  0.00  0.00    +0.000 HD
ATOM     27  H   UNL     1      -1.555  12.871  19.922  0.00  0.00    +0.000 HD
ENDBRANCH  20  24
BRANCH  20  28
ATOM     28  C   UNL     1      -2.956  11.771  18.105  0.00  0.00    +0.000 A 
ATOM     29  C   UNL     1      -3.665  12.082  19.287  0.00  0.00    +0.000 A 
ATOM     30  C   UNL     1      -5.059  12.105  19.324  0.00  0.00    +0.000 A 
ATOM     31  C   UNL     1      -5.785  11.808  18.180  0.00  0.00    +0.000 A 
ATOM     32  C   UNL     1      -5.112  11.468  17.007  0.00  0.00    +0.000 A 
ATOM     33  C   UNL     1      -3.710  11.440  16.967  0.00  0.00    +0.000 A 
ATOM     34 CL   UNL     1      -2.981  10.955  15.478  0.00  0.00    +0.000 Cl
ENDBRANCH  20  28
ENDBRANCH  19  20
ENDBRANCH   1  19
TORSDOF 5
ENDMDL
MODEL 4
REMARK VINA RESULT:      -8.3      2.151      3.978
REMARK  Name = 
REMARK  5 active torsions:
REMARK  status: ('A' for Active; 'I' for Inactive)
REMARK    1  A    between atoms: N_4  and  C_5
REMARK    2  A    between atoms: C_5  and  C_6
REMARK    3  A    between atoms: C_5  and  C_24
REMARK    4  A    between atoms: C_6  and  C_7
REMARK    5  A    between atoms: C_12  and  C_13
REMARK                            x       y       z     vdW  Elec       q    Type
REMARK                         _______ _______ _______ _____ _____    ______ ____
ROOT
ATOM      1  C   UNL     1      -0.107   9.781  19.745  0.00  0.00    +0.000 C 
ATOM      2  O   UNL     1      -0.610   9.700  20.869  0.00  0.00    +0.000 OA
ATOM      3  N   UNL     1       1.168   9.304  19.459  0.00  0.00    +0.000 N 
ATOM      4  C   UNL     1       1.878   9.529  18.201  0.00  0.00    +0.000 C 
ATOM      5  C   UNL     1       2.473   8.261  17.679  0.00  0.00    +0.000 C 
ATOM      6  C   UNL     1       2.475   7.084  18.336  0.00  0.00    +0.000 C 
ATOM      7  C   UNL     1       1.882   6.996  19.727  0.00  0.00    +0.000 C 
ATOM      8  C   UNL     1       1.813   8.379  20.385  0.00  0.00    +0.000 C 
ENDROOT
BRANCH   6   9
ATOM      9  C   UNL     1       3.075   5.889  17.820  0.00  0.00    +0.000 A 
ATOM     10  C   UNL     1       2.429   4.669  17.779  0.00  0.00    +0.000 A 
ATOM     11  N   UNL     1       3.271   3.757  17.204  0.00  0.00    +0.000 N 
ATOM     12  C   UNL     1       4.465   4.354  16.876  0.00  0.00    +0.000 A 
ATOM     13  C   UNL     1       5.602   3.806  16.271  0.00  0.00    +0.000 A 
ATOM     14  C   UNL     1       6.700   4.646  16.068  0.00  0.00    +0.000 A 
ATOM     15  C   UNL     1       6.664   5.979  16.467  0.00  0.00    +0.000 A 
ATOM     16  C   UNL     1       5.520   6.508  17.073  0.00  0.00    +0.000 A 
ATOM     17  C   UNL     1       4.385   5.693  17.272  0.00  0.00    +0.000 A 
ATOM     18  H   UNL     1       3.054   2.784  17.044  0.00  0.00    +0.000 HD
ENDBRANCH   6   9
BRANCH   1  19
ATOM     19  C   UNL     1      -0.838  10.402  18.575  0.00  0.00    +0.000 C 
BRANCH  19  20
ATOM     20  C   UNL     1      -1.715  11.607  18.921  0.00  0.00    +0.000 C 
BRANCH  20  24
ATOM     21  N   UNL     1      -4.422  11.970  16.474  0.00  0.00    +0.000 N 
ATOM     22  C   UNL     1      -3.786  11.377  17.511  0.00  0.00    +0.000 C 
ATOM     23  O   UNL     1      -4.210  10.331  17.982  0.00  0.00    +0.000 OA
ATOM     24  N   UNL     1      -2.657  12.031  17.884  0.00  0.00    +0.000 N 
ATOM     25  H   UNL     1      -5.305  11.527  16.250  0.00  0.00    +0.000 HD
ATOM     26  H   UNL     1      -4.425  12.977  16.431  0.00  0.00    +0.000 HD
ATOM     27  H   UNL     1      -2.508  12.949  17.496  0.00  0.00    +0.000 HD
ENDBRANCH  20  24
BRANCH  20  28
ATOM     28  C   UNL     1      -0.820  12.771  19.351  0.00  0.00    +0.000 A 
ATOM     29  C   UNL     1       0.129  13.287  18.440  0.00  0.00    +0.000 A 
ATOM     30  C   UNL     1       0.973  14.345  18.776  0.00  0.00    +0.000 A 
ATOM     31  C   UNL     1       0.897  14.912  20.041  0.00  0.00    +0.000 A 
ATOM     32  C   UNL     1      -0.009  14.404  20.970  0.00  0.00    +0.000 A 
ATOM     33  C   UNL     1      -0.856  13.337  20.635  0.00  0.00    +0.000 A 
ATOM     34 CL   UNL     1      -1.903  12.753  21.879  0.00  0.00    +0.000 Cl
ENDBRANCH  20  28
ENDBRANCH  19  20
ENDBRANCH   1  19
TORSDOF 5
ENDMDL
MODEL 5
REMARK VINA RESULT:      -8.2      1.132      1.164
REMARK  Name = 
REMARK  5 active torsions:
REMARK  status: ('A' for Active; 'I' for Inactive)
REMARK    1  A    between atoms: N_4  and  C_5
REMARK    2  A    between atoms: C_5  and  C_6
REMARK    3  A    between atoms: C_5  and  C_24
REMARK    4  A    between atoms: C_6  and  C_7
REMARK    5  A    between atoms: C_12  and  C_13
REMARK                            x       y       z     vdW  Elec       q    Type
REMARK                         _______ _______ _______ _____ _____    ______ ____
ROOT
ATOM      1  C   UNL     1      -0.498  10.398  19.868  0.00  0.00    +0.000 C 
ATOM      2  O   UNL     1      -1.008  10.685  20.955  0.00  0.00    +0.000 OA
ATOM      3  N   UNL     1       0.790   9.886  19.757  0.00  0.00    +0.000 N 
ATOM      4  C   UNL     1       1.503   9.694  18.494  0.00  0.00    +0.000 C 
ATOM      5  C   UNL     1       2.132   8.340  18.426  0.00  0.00    +0.000 C 
ATOM      6  C   UNL     1       2.159   7.452  19.440  0.00  0.00    +0.000 C 
ATOM      7  C   UNL     1       1.558   7.819  20.780  0.00  0.00    +0.000 C 
ATOM      8  C   UNL     1       1.450   9.340  20.938  0.00  0.00    +0.000 C 
ENDROOT
BRANCH   6   9
ATOM      9  C   UNL     1       2.791   6.168  19.352  0.00  0.00    +0.000 A 
ATOM     10  C   UNL     1       4.009   5.960  18.735  0.00  0.00    +0.000 A 
ATOM     11  N   UNL     1       4.330   4.636  18.857  0.00  0.00    +0.000 N 
ATOM     12  C   UNL     1       3.338   3.966  19.534  0.00  0.00    +0.000 A 
ATOM     13  C   UNL     1       3.250   2.615  19.885  0.00  0.00    +0.000 A 
ATOM     14  C   UNL     1       2.105   2.191  20.565  0.00  0.00    +0.000 A 
ATOM     15  C   UNL     1       1.082   3.086  20.868  0.00  0.00    +0.000 A 
ATOM     16  C   UNL     1       1.187   4.433  20.507  0.00  0.00    +0.000 A 
ATOM     17  C   UNL     1       2.340   4.898  19.840  0.00  0.00    +0.000 A 
ATOM     18  H   UNL     1       5.171   4.205  18.502  0.00  0.00    +0.000 HD
ENDBRANCH   6   9
BRANCH   1  19
ATOM     19  C   UNL     1      -1.236  10.574  18.559  0.00  0.00    +0.000 C 
BRANCH  19  20
ATOM     20  C   UNL     1      -1.825  11.966  18.325  0.00  0.00    +0.000 C 
BRANCH  20  24
ATOM     21  N   UNL     1      -0.356  14.660  20.334  0.00  0.00    +0.000 N 
ATOM     22  C   UNL     1      -0.482  13.894  19.225  0.00  0.00    +0.000 C 
ATOM     23  O   UNL     1       0.293  14.028  18.288  0.00  0.00    +0.000 OA
ATOM     24  N   UNL     1      -1.482  12.981  19.322  0.00  0.00    +0.000 N 
ATOM     25  H   UNL     1       0.336  15.392  20.229  0.00  0.00    +0.000 HD
ATOM     26  H   UNL     1      -1.195  14.929  20.824  0.00  0.00    +0.000 HD
ATOM     27  H   UNL     1      -2.120  13.080  20.096  0.00  0.00    +0.000 HD
ENDBRANCH  20  24
BRANCH  20  28
ATOM     28  C   UNL     1      -3.343  11.848  18.171  0.00  0.00    +0.000 A 
ATOM     29  C   UNL     1      -4.173  12.094  19.287  0.00  0.00    +0.000 A 
ATOM     30  C   UNL     1      -5.562  12.000  19.207  0.00  0.00    +0.000 A 
ATOM     31  C   UNL     1      -6.161  11.645  18.006  0.00  0.00    +0.000 A 
ATOM     32  C   UNL     1      -5.365  11.367  16.896  0.00  0.00    +0.000 A 
ATOM     33  C   UNL     1      -3.967  11.458  16.975  0.00  0.00    +0.000 A 
ATOM     34 CL   UNL     1      -3.076  11.040  15.555  0.00  0.00    +0.000 Cl
ENDBRANCH  20  28
ENDBRANCH  19  20
ENDBRANCH   1  19
TORSDOF 5
ENDMDL
MODEL 6
REMARK VINA RESULT:      -8.2      3.176      9.342
REMARK  Name = 
REMARK  5 active torsions:
REMARK  status: ('A' for Active; 'I' for Inactive)
REMARK    1  A    between atoms: N_4  and  C_5
REMARK    2  A    between atoms: C_5  and  C_6
REMARK    3  A    between atoms: C_5  and  C_24
REMARK    4  A    between atoms: C_6  and  C_7
REMARK    5  A    between atoms: C_12  and  C_13
REMARK                            x       y       z     vdW  Elec       q    Type
REMARK                         _______ _______ _______ _____ _____    ______ ____
ROOT
ATOM      1  C   UNL     1       3.075   7.209  17.961  0.00  0.00    +0.000 C 
ATOM      2  O   UNL     1       3.756   7.327  16.938  0.00  0.00    +0.000 OA
ATOM      3  N   UNL     1       2.567   8.304  18.653  0.00  0.00    +0.000 N 
ATOM      4  C   UNL     1       1.908   8.231  19.956  0.00  0.00    +0.000 C 
ATOM      5  C   UNL     1       0.635   9.016  19.966  0.00  0.00    +0.000 C 
ATOM      6  C   UNL     1       0.205   9.798  18.955  0.00  0.00    +0.000 C 
ATOM      7  C   UNL     1       1.058   9.962  17.714  0.00  0.00    +0.000 C 
ATOM      8  C   UNL     1       2.521   9.607  18.000  0.00  0.00    +0.000 C 
ENDROOT
BRANCH   6   9
ATOM      9  C   UNL     1      -1.009  10.557  19.002  0.00  0.00    +0.000 A 
ATOM     10  C   UNL     1      -1.329  11.420  20.033  0.00  0.00    +0.000 A 
ATOM     11  N   UNL     1      -2.536  11.997  19.749  0.00  0.00    +0.000 N 
ATOM     12  C   UNL     1      -3.022  11.521  18.555  0.00  0.00    +0.000 A 
ATOM     13  C   UNL     1      -4.208  11.836  17.882  0.00  0.00    +0.000 A 
ATOM     14  C   UNL     1      -4.467  11.180  16.676  0.00  0.00    +0.000 A 
ATOM     15  C   UNL     1      -3.578  10.236  16.171  0.00  0.00    +0.000 A 
ATOM     16  C   UNL     1      -2.399   9.932  16.858  0.00  0.00    +0.000 A 
ATOM     17  C   UNL     1      -2.096  10.592  18.067  0.00  0.00    +0.000 A 
ATOM     18  H   UNL     1      -3.008  12.675  20.330  0.00  0.00    +0.000 HD
ENDBRANCH   6   9
BRANCH   1  19
ATOM     19  C   UNL     1       2.729   5.859  18.550  0.00  0.00    +0.000 C 
BRANCH  19  20
ATOM     20  C   UNL     1       3.420   4.665  17.891  0.00  0.00    +0.000 C 
BRANCH  20  24
ATOM     21  N   UNL     1       1.651   1.601  18.859  0.00  0.00    +0.000 N 
ATOM     22  C   UNL     1       1.757   2.816  18.270  0.00  0.00    +0.000 C 
ATOM     23  O   UNL     1       0.776   3.349  17.769  0.00  0.00    +0.000 OA
ATOM     24  N   UNL     1       3.004   3.344  18.363  0.00  0.00    +0.000 N 
ATOM     25  H   UNL     1       0.744   1.174  18.718  0.00  0.00    +0.000 HD
ATOM     26  H   UNL     1       2.436   0.972  18.795  0.00  0.00    +0.000 HD
ATOM     27  H   UNL     1       3.738   2.733  18.683  0.00  0.00    +0.000 HD
ENDBRANCH  20  24
BRANCH  20  28
ATOM     28  C   UNL     1       4.937   4.833  18.014  0.00  0.00    +0.000 A 
ATOM     29  C   UNL     1       5.488   5.252  19.245  0.00  0.00    +0.000 A 
ATOM     30  C   UNL     1       6.861   5.424  19.416  0.00  0.00    +0.000 A 
ATOM     31  C   UNL     1       7.723   5.190  18.354  0.00  0.00    +0.000 A 
ATOM     32  C   UNL     1       7.204   4.804  17.119  0.00  0.00    +0.000 A 
ATOM     33  C   UNL     1       5.823   4.634  16.943  0.00  0.00    +0.000 A 
ATOM     34 CL   UNL     1       5.285   4.205  15.358  0.00  0.00    +0.000 Cl
ENDBRANCH  20  28
ENDBRANCH  19  20
ENDBRANCH   1  19
TORSDOF 5
ENDMDL
MODEL 7
REMARK VINA RESULT:      -8.1      1.225      2.214
REMARK  Name = 
REMARK  5 active torsions:
REMARK  status: ('A' for Active; 'I' for Inactive)
REMARK    1  A    between atoms: N_4  and  C_5
REMARK    2  A    between atoms: C_5  and  C_6
REMARK    3  A    between atoms: C_5  and  C_24
REMARK    4  A    between atoms: C_6  and  C_7
REMARK    5  A    between atoms: C_12  and  C_13
REMARK                            x       y       z     vdW  Elec       q    Type
REMARK                         _______ _______ _______ _____ _____    ______ ____
ROOT
ATOM      1  C   UNL     1      -0.205   9.883  20.040  0.00  0.00    +0.000 C 
ATOM      2  O   UNL     1      -0.610   9.830  21.205  0.00  0.00    +0.000 OA
ATOM      3  N   UNL     1       1.059   9.439  19.666  0.00  0.00    +0.000 N 
ATOM      4  C   UNL     1       1.652   9.637  18.344  0.00  0.00    +0.000 C 
ATOM      5  C   UNL     1       2.249   8.370  17.822  0.00  0.00    +0.000 C 
ATOM      6  C   UNL     1       2.350   7.222  18.520  0.00  0.00    +0.000 C 
ATOM      7  C   UNL     1       1.878   7.170  19.959  0.00  0.00    +0.000 C 
ATOM      8  C   UNL     1       1.812   8.575  20.567  0.00  0.00    +0.000 C 
ENDROOT
BRANCH   6   9
ATOM      9  C   UNL     1       2.949   6.028  18.000  0.00  0.00    +0.000 A 
ATOM     10  C   UNL     1       2.295   4.813  17.936  0.00  0.00    +0.000 A 
ATOM     11  N   UNL     1       3.139   3.901  17.364  0.00  0.00    +0.000 N 
ATOM     12  C   UNL     1       4.343   4.493  17.061  0.00  0.00    +0.000 A 
ATOM     13  C   UNL     1       5.484   3.944  16.467  0.00  0.00    +0.000 A 
ATOM     14  C   UNL     1       6.591   4.778  16.289  0.00  0.00    +0.000 A 
ATOM     15  C   UNL     1       6.558   6.106  16.703  0.00  0.00    +0.000 A 
ATOM     16  C   UNL     1       5.409   6.637  17.296  0.00  0.00    +0.000 A 
ATOM     17  C   UNL     1       4.266   5.829  17.470  0.00  0.00    +0.000 A 
ATOM     18  H   UNL     1       2.918   2.932  17.189  0.00  0.00    +0.000 HD
ENDBRANCH   6   9
BRANCH   1  19
ATOM     19  C   UNL     1      -1.054  10.431  18.914  0.00  0.00    +0.000 C 
BRANCH  19  20
ATOM     20  C   UNL     1      -1.343  11.931  18.988  0.00  0.00    +0.000 C 
BRANCH  20  24
ATOM     21  N   UNL     1       1.439  13.904  20.338  0.00  0.00    +0.000 N 
ATOM     22  C   UNL     1       0.744  13.289  19.353  0.00  0.00    +0.000 C 
ATOM     23  O   UNL     1       1.193  13.240  18.216  0.00  0.00    +0.000 OA
ATOM     24  N   UNL     1      -0.410  12.724  19.790  0.00  0.00    +0.000 N 
ATOM     25  H   UNL     1       2.257  14.394  19.995  0.00  0.00    +0.000 HD
ATOM     26  H   UNL     1       0.920  14.386  21.056  0.00  0.00    +0.000 HD
ATOM     27  H   UNL     1      -0.714  12.963  20.721  0.00  0.00    +0.000 HD
ENDBRANCH  20  24
BRANCH  20  28
ATOM     28  C   UNL     1      -2.782  12.141  19.464  0.00  0.00    +0.000 A 
ATOM     29  C   UNL     1      -3.017  12.562  20.791  0.00  0.00    +0.000 A 
ATOM     30  C   UNL     1      -4.307  12.767  21.282  0.00  0.00    +0.000 A 
ATOM     31  C   UNL     1      -5.401  12.548  20.456  0.00  0.00    +0.000 A 
ATOM     32  C   UNL     1      -5.200  12.104  19.150  0.00  0.00    +0.000 A 
ATOM     33  C   UNL     1      -3.904  11.893  18.656  0.00  0.00    +0.000 A 
ATOM     34 CL   UNL     1      -3.773  11.293  17.041  0.00  0.00    +0.000 Cl
ENDBRANCH  20  28
ENDBRANCH  19  20
ENDBRANCH   1  19
TORSDOF 5
ENDMDL
MODEL 8
REMARK VINA RESULT:      -8.1      1.019      1.278
REMARK  Name = 
REMARK  5 active torsions:
REMARK  status: ('A' for Active; 'I' for Inactive)
REMARK    1  A    between atoms: N_4  and  C_5
REMARK    2  A    between atoms: C_5  and  C_6
REMARK    3  A    between atoms: C_5  and  C_24
REMARK    4  A    between atoms: C_6  and  C_7
REMARK    5  A    between atoms: C_12  and  C_13
REMARK                            x       y       z     vdW  Elec       q    Type
REMARK                         _______ _______ _______ _____ _____    ______ ____
ROOT
ATOM      1  C   UNL     1      -0.242   9.932  20.303  0.00  0.00    +0.000 C 
ATOM      2  O   UNL     1      -0.597   9.894  21.485  0.00  0.00    +0.000 OA
ATOM      3  N   UNL     1       1.014   9.508  19.885  0.00  0.00    +0.000 N 
ATOM      4  C   UNL     1       1.547   9.691  18.535  0.00  0.00    +0.000 C 
ATOM      5  C   UNL     1       2.150   8.427  18.013  0.00  0.00    +0.000 C 
ATOM      6  C   UNL     1       2.306   7.296  18.729  0.00  0.00    +0.000 C 
ATOM      7  C   UNL     1       1.896   7.263  20.187  0.00  0.00    +0.000 C 
ATOM      8  C   UNL     1       1.824   8.679  20.770  0.00  0.00    +0.000 C 
ENDROOT
BRANCH   6   9
ATOM      9  C   UNL     1       2.910   6.105  18.207  0.00  0.00    +0.000 A 
ATOM     10  C   UNL     1       4.077   6.103  17.470  0.00  0.00    +0.000 A 
ATOM     11  N   UNL     1       4.384   4.806  17.158  0.00  0.00    +0.000 N 
ATOM     12  C   UNL     1       3.432   3.956  17.667  0.00  0.00    +0.000 A 
ATOM     13  C   UNL     1       3.347   2.562  17.594  0.00  0.00    +0.000 A 
ATOM     14  C   UNL     1       2.246   1.943  18.193  0.00  0.00    +0.000 A 
ATOM     15  C   UNL     1       1.263   2.696  18.829  0.00  0.00    +0.000 A 
ATOM     16  C   UNL     1       1.364   4.089  18.890  0.00  0.00    +0.000 A 
ATOM     17  C   UNL     1       2.474   4.743  18.316  0.00  0.00    +0.000 A 
ATOM     18  H   UNL     1       5.191   4.511  16.628  0.00  0.00    +0.000 HD
ENDBRANCH   6   9
BRANCH   1  19
ATOM     19  C   UNL     1      -1.149  10.439  19.204  0.00  0.00    +0.000 C 
BRANCH  19  20
ATOM     20  C   UNL     1      -1.394  11.948  19.205  0.00  0.00    +0.000 C 
BRANCH  20  24
ATOM     21  N   UNL     1       1.023  14.438  20.394  0.00  0.00    +0.000 N 
ATOM     22  C   UNL     1       0.074  13.962  19.554  0.00  0.00    +0.000 C 
ATOM     23  O   UNL     1      -0.227  14.583  18.544  0.00  0.00    +0.000 OA
ATOM     24  N   UNL     1      -0.414  12.754  19.935  0.00  0.00    +0.000 N 
ATOM     25  H   UNL     1       1.327  15.373  20.153  0.00  0.00    +0.000 HD
ATOM     26  H   UNL     1       0.915  14.263  21.381  0.00  0.00    +0.000 HD
ATOM     27  H   UNL     1      -0.170  12.431  20.858  0.00  0.00    +0.000 HD
ENDBRANCH  20  24
BRANCH  20  28
ATOM     28  C   UNL     1      -2.811  12.226  19.711  0.00  0.00    +0.000 A 
ATOM     29  C   UNL     1      -3.000  12.630  21.051  0.00  0.00    +0.000 A 
ATOM     30  C   UNL     1      -4.267  12.895  21.569  0.00  0.00    +0.000 A 
ATOM     31  C   UNL     1      -5.386  12.753  20.760  0.00  0.00    +0.000 A 
ATOM     32  C   UNL     1      -5.233  12.326  19.442  0.00  0.00    +0.000 A 
ATOM     33  C   UNL     1      -3.959  12.056  18.920  0.00  0.00    +0.000 A 
ATOM     34 CL   UNL     1      -3.888  11.483  17.292  0.00  0.00    +0.000 Cl
ENDBRANCH  20  28
ENDBRANCH  19  20
ENDBRANCH   1  19
TORSDOF 5
ENDMDL
MODEL 9
REMARK VINA RESULT:      -8.1      1.294      1.550
REMARK  Name = 
REMARK  5 active torsions:
REMARK  status: ('A' for Active; 'I' for Inactive)
REMARK    1  A    between atoms: N_4  and  C_5
REMARK    2  A    between atoms: C_5  and  C_6
REMARK    3  A    between atoms: C_5  and  C_24
REMARK    4  A    between atoms: C_6  and  C_7
REMARK    5  A    between atoms: C_12  and  C_13
REMARK                            x       y       z     vdW  Elec       q    Type
REMARK                         _______ _______ _______ _____ _____    ______ ____
ROOT
ATOM      1  C   UNL     1      -0.167  10.172  19.860  0.00  0.00    +0.000 C 
ATOM      2  O   UNL     1      -0.743  10.671  20.831  0.00  0.00    +0.000 OA
ATOM      3  N   UNL     1       0.977   9.392  19.988  0.00  0.00    +0.000 N 
ATOM      4  C   UNL     1       1.794   8.925  18.868  0.00  0.00    +0.000 C 
ATOM      5  C   UNL     1       2.110   7.469  18.997  0.00  0.00    +0.000 C 
ATOM      6  C   UNL     1       1.800   6.706  20.064  0.00  0.00    +0.000 C 
ATOM      7  C   UNL     1       1.120   7.329  21.265  0.00  0.00    +0.000 C 
ATOM      8  C   UNL     1       1.333   8.847  21.293  0.00  0.00    +0.000 C 
ENDROOT
BRANCH   6   9
ATOM      9  C   UNL     1       2.137   5.317  20.169  0.00  0.00    +0.000 A 
ATOM     10  C   UNL     1       2.266   4.653  21.373  0.00  0.00    +0.000 A 
ATOM     11  N   UNL     1       2.563   3.344  21.111  0.00  0.00    +0.000 N 
ATOM     12  C   UNL     1       2.644   3.137  19.754  0.00  0.00    +0.000 A 
ATOM     13  C   UNL     1       2.917   1.963  19.044  0.00  0.00    +0.000 A 
ATOM     14  C   UNL     1       2.957   2.040  17.649  0.00  0.00    +0.000 A 
ATOM     15  C   UNL     1       2.743   3.250  16.994  0.00  0.00    +0.000 A 
ATOM     16  C   UNL     1       2.473   4.413  17.722  0.00  0.00    +0.000 A 
ATOM     17  C   UNL     1       2.403   4.365  19.130  0.00  0.00    +0.000 A 
ATOM     18  H   UNL     1       2.706   2.628  21.809  0.00  0.00    +0.000 HD
ENDBRANCH   6   9
BRANCH   1  19
ATOM     19  C   UNL     1      -0.663  10.360  18.443  0.00  0.00    +0.000 C 
BRANCH  19  20
ATOM     20  C   UNL     1      -1.181  11.761  18.116  0.00  0.00    +0.000 C 
BRANCH  20  24
ATOM     21  N   UNL     1       0.669  14.373  19.906  0.00  0.00    +0.000 N 
ATOM     22  C   UNL     1       0.486  13.467  18.917  0.00  0.00    +0.000 C 
ATOM     23  O   UNL     1       1.373  13.250  18.103  0.00  0.00    +0.000 OA
ATOM     24  N   UNL     1      -0.714  12.837  18.992  0.00  0.00    +0.000 N 
ATOM     25  H   UNL     1       1.529  14.899  19.802  0.00  0.00    +0.000 HD
ATOM     26  H   UNL     1      -0.127  14.910  20.214  0.00  0.00    +0.000 HD
ATOM     27  H   UNL     1      -1.392  13.216  19.633  0.00  0.00    +0.000 HD
ENDBRANCH  20  24
BRANCH  20  28
ATOM     28  C   UNL     1      -2.710  11.730  18.062  0.00  0.00    +0.000 A 
ATOM     29  C   UNL     1      -3.450  12.101  19.206  0.00  0.00    +0.000 A 
ATOM     30  C   UNL     1      -4.845  12.090  19.217  0.00  0.00    +0.000 A 
ATOM     31  C   UNL     1      -5.540  11.697  18.082  0.00  0.00    +0.000 A 
ATOM     32  C   UNL     1      -4.835  11.296  16.948  0.00  0.00    +0.000 A 
ATOM     33  C   UNL     1      -3.433  11.303  16.936  0.00  0.00    +0.000 A 
ATOM     34 CL   UNL     1      -2.662  10.738  15.496  0.00  0.00    +0.000 Cl
ENDBRANCH  20  28
ENDBRANCH  19  20
ENDBRANCH   1  19
TORSDOF 5
ENDMDL
