MODEL 1
REMARK VINA RESULT:      -7.3      0.000      0.000
REMARK  Name = 
REMARK  5 active torsions:
REMARK  status: ('A' for Active; 'I' for Inactive)
REMARK    1  A    between atoms: C_1  and  C_2
REMARK    2  A    between atoms: C_2  and  C_3
REMARK    3  A    between atoms: C_3  and  C_4
REMARK    4  A    between atoms: N_14  and  C_15
REMARK    5  A    between atoms: C_15  and  C_16
REMARK                            x       y       z     vdW  Elec       q    Type
REMARK                         _______ _______ _______ _____ _____    ______ ____
ROOT
ATOM      1  C   UNL     1       0.340   9.644  20.526  0.00  0.00    +0.000 C 
ATOM      2  N   UNL     1       1.000  10.838  21.012  0.00  0.00    +0.000 N 
ATOM      3  C   UNL     1       0.362  11.998  20.645  0.00  0.00    +0.000 C 
ATOM      4  O   UNL     1       0.693  13.094  21.067  0.00  0.00    +0.000 OA
ATOM      5  N   UNL     1      -0.665  11.683  19.813  0.00  0.00    +0.000 N 
ATOM      6  C   UNL     1      -0.771  10.329  19.686  0.00  0.00    +0.000 C 
ATOM      7  O   UNL     1      -1.648   9.744  19.051  0.00  0.00    +0.000 OA
ATOM      8  H   UNL     1       1.768  10.866  21.667  0.00  0.00    +0.000 HD
ENDROOT
BRANCH   1   9
ATOM      9  C   UNL     1       1.295   8.779  19.695  0.00  0.00    +0.000 A 
ATOM     10  C   UNL     1       1.817   7.572  20.202  0.00  0.00    +0.000 A 
ATOM     11  C   UNL     1       2.663   6.770  19.432  0.00  0.00    +0.000 A 
ATOM     12  C   UNL     1       3.018   7.176  18.155  0.00  0.00    +0.000 A 
ATOM     13  F   UNL     1       3.819   6.401  17.412  0.00  0.00    +0.000 F 
ATOM     14  C   UNL     1       2.555   8.376  17.638  0.00  0.00    +0.000 A 
ATOM     15  C   UNL     1       1.708   9.179  18.407  0.00  0.00    +0.000 A 
ENDBRANCH   1   9
BRANCH   1  17
ATOM     16  C   UNL     1      -0.420   9.615  23.005  0.00  0.00    +0.000 C 
ATOM     17  C   UNL     1      -0.278   8.842  21.692  0.00  0.00    +0.000 C 
ENDBRANCH   1  17
BRANCH   5  18
ATOM     18  C   UNL     1      -1.607  12.633  19.243  0.00  0.00    +0.000 C 
BRANCH  18  19
ATOM     19  C   UNL     1      -2.934  12.653  19.974  0.00  0.00    +0.000 A 
ATOM     20  C   UNL     1      -2.988  13.134  21.298  0.00  0.00    +0.000 A 
ATOM     21  C   UNL     1      -4.174  13.095  22.022  0.00  0.00    +0.000 A 
ATOM     22  C   UNL     1      -5.326  12.603  21.421  0.00  0.00    +0.000 A 
ATOM     23  C   UNL     1      -5.301  12.177  20.083  0.00  0.00    +0.000 A 
ATOM     24  C   UNL     1      -6.466  11.709  19.461  0.00  0.00    +0.000 A 
ATOM     25  C   UNL     1      -6.427  11.295  18.137  0.00  0.00    +0.000 A 
ATOM     26  C   UNL     1      -5.218  11.370  17.477  0.00  0.00    +0.000 A 
ATOM     27  N   UNL     1      -4.077  11.818  18.044  0.00  0.00    +0.000 NA
ATOM     28  C   UNL     1      -4.099  12.207  19.337  0.00  0.00    +0.000 A 
ENDBRANCH  18  19
ENDBRANCH   5  18
TORSDOF 4
ENDMDL
MODEL 2
REMARK VINA RESULT:      -7.3      2.712      4.908
REMARK  Name = 
REMARK  5 active torsions:
REMARK  status: ('A' for Active; 'I' for Inactive)
REMARK    1  A    between atoms: C_1  and  C_2
REMARK    2  A    between atoms: C_2  and  C_3
REMARK    3  A    between atoms: C_3  and  C_4
REMARK    4  A    between atoms: N_14  and  C_15
REMARK    5  A    between atoms: C_15  and  C_16
REMARK                            x       y       z     vdW  Elec       q    Type
REMARK                         _______ _______ _______ _____ _____    ______ ____
ROOT
ATOM      1  C   UNL     1       2.597   6.402  18.475  0.00  0.00    +0.000 C 
ATOM      2  N   UNL     1       2.252   6.547  19.874  0.00  0.00    +0.000 N 
ATOM      3  C   UNL     1       1.879   7.825  20.211  0.00  0.00    +0.000 C 
ATOM      4  O   UNL     1       1.431   8.113  21.309  0.00  0.00    +0.000 OA
ATOM      5  N   UNL     1       2.058   8.628  19.130  0.00  0.00    +0.000 N 
ATOM      6  C   UNL     1       2.467   7.891  18.056  0.00  0.00    +0.000 C 
ATOM      7  O   UNL     1       2.645   8.331  16.922  0.00  0.00    +0.000 OA
ATOM      8  H   UNL     1       2.149   5.794  20.540  0.00  0.00    +0.000 HD
ENDROOT
BRANCH   1   9
ATOM      9  C   UNL     1       4.012   5.837  18.305  0.00  0.00    +0.000 A 
ATOM     10  C   UNL     1       4.552   5.589  17.028  0.00  0.00    +0.000 A 
ATOM     11  C   UNL     1       5.853   5.103  16.874  0.00  0.00    +0.000 A 
ATOM     12  C   UNL     1       6.622   4.834  17.996  0.00  0.00    +0.000 A 
ATOM     13  F   UNL     1       7.874   4.380  17.848  0.00  0.00    +0.000 F 
ATOM     14  C   UNL     1       6.110   5.029  19.269  0.00  0.00    +0.000 A 
ATOM     15  C   UNL     1       4.809   5.516  19.424  0.00  0.00    +0.000 A 
ENDBRANCH   1   9
BRANCH   1  17
ATOM     16  C   UNL     1       1.514   4.068  18.160  0.00  0.00    +0.000 C 
ATOM     17  C   UNL     1       1.552   5.537  17.736  0.00  0.00    +0.000 C 
ENDBRANCH   1  17
BRANCH   5  18
ATOM     18  C   UNL     1       1.734  10.044  19.072  0.00  0.00    +0.000 C 
BRANCH  18  19
ATOM     19  C   UNL     1       0.261  10.300  18.825  0.00  0.00    +0.000 A 
ATOM     20  C   UNL     1      -0.382   9.657  17.747  0.00  0.00    +0.000 A 
ATOM     21  C   UNL     1      -1.711   9.929  17.448  0.00  0.00    +0.000 A 
ATOM     22  C   UNL     1      -2.422  10.822  18.239  0.00  0.00    +0.000 A 
ATOM     23  C   UNL     1      -1.813  11.424  19.353  0.00  0.00    +0.000 A 
ATOM     24  C   UNL     1      -2.532  12.302  20.173  0.00  0.00    +0.000 A 
ATOM     25  C   UNL     1      -1.917  12.886  21.272  0.00  0.00    +0.000 A 
ATOM     26  C   UNL     1      -0.598  12.564  21.515  0.00  0.00    +0.000 A 
ATOM     27  N   UNL     1       0.125  11.719  20.746  0.00  0.00    +0.000 NA
ATOM     28  C   UNL     1      -0.458  11.159  19.666  0.00  0.00    +0.000 A 
ENDBRANCH  18  19
ENDBRANCH   5  18
TORSDOF 4
ENDMDL
MODEL 3
REMARK VINA RESULT:      -7.1      7.161      9.420
REMARK  Name = 
REMARK  5 active torsions:
REMARK  status: ('A' for Active; 'I' for Inactive)
REMARK    1  A    between atoms: C_1  and  C_2
REMARK    2  A    between atoms: C_2  and  C_3
REMARK    3  A    between atoms: C_3  and  C_4
REMARK    4  A    between atoms: N_14  and  C_15
REMARK    5  A    between atoms: C_15  and  C_16
REMARK                            x       y       z     vdW  Elec       q    Type
REMARK                         _______ _______ _______ _____ _____    ______ ____
ROOT
ATOM      1  C   UNL     1       6.413   6.109  16.361  0.00  0.00    +0.000 C 
ATOM      2  N   UNL     1       5.202   6.892  16.489  0.00  0.00    +0.000 N 
ATOM      3  C   UNL     1       4.558   6.705  17.687  0.00  0.00    +0.000 C 
ATOM      4  O   UNL     1       3.595   7.372  18.029  0.00  0.00    +0.000 OA
ATOM      5  N   UNL     1       5.199   5.724  18.375  0.00  0.00    +0.000 N 
ATOM      6  C   UNL     1       6.306   5.314  17.691  0.00  0.00    +0.000 C 
ATOM      7  O   UNL     1       7.122   4.488  18.095  0.00  0.00    +0.000 OA
ATOM      8  H   UNL     1       4.894   7.615  15.853  0.00  0.00    +0.000 HD
ENDROOT
BRANCH   1   9
ATOM      9  C   UNL     1       6.375   5.222  15.111  0.00  0.00    +0.000 A 
ATOM     10  C   UNL     1       5.325   4.308  14.895  0.00  0.00    +0.000 A 
ATOM     11  C   UNL     1       5.276   3.522  13.741  0.00  0.00    +0.000 A 
ATOM     12  C   UNL     1       6.289   3.621  12.799  0.00  0.00    +0.000 A 
ATOM     13  F   UNL     1       6.236   2.877  11.687  0.00  0.00    +0.000 F 
ATOM     14  C   UNL     1       7.359   4.481  12.998  0.00  0.00    +0.000 A 
ATOM     15  C   UNL     1       7.408   5.268  14.151  0.00  0.00    +0.000 A 
ENDBRANCH   1   9
BRANCH   1  17
ATOM     16  C   UNL     1       7.748   7.985  17.552  0.00  0.00    +0.000 C 
ATOM     17  C   UNL     1       7.662   7.017  16.370  0.00  0.00    +0.000 C 
ENDBRANCH   1  17
BRANCH   5  18
ATOM     18  C   UNL     1       4.848   5.266  19.709  0.00  0.00    +0.000 C 
BRANCH  18  19
ATOM     19  C   UNL     1       3.381   4.910  19.840  0.00  0.00    +0.000 A 
ATOM     20  C   UNL     1       2.525   5.760  20.571  0.00  0.00    +0.000 A 
ATOM     21  C   UNL     1       1.192   5.424  20.775  0.00  0.00    +0.000 A 
ATOM     22  C   UNL     1       0.691   4.250  20.226  0.00  0.00    +0.000 A 
ATOM     23  C   UNL     1       1.516   3.424  19.444  0.00  0.00    +0.000 A 
ATOM     24  C   UNL     1       1.009   2.256  18.861  0.00  0.00    +0.000 A 
ATOM     25  C   UNL     1       1.835   1.452  18.089  0.00  0.00    +0.000 A 
ATOM     26  C   UNL     1       3.145   1.851  17.921  0.00  0.00    +0.000 A 
ATOM     27  N   UNL     1       3.665   2.973  18.465  0.00  0.00    +0.000 NA
ATOM     28  C   UNL     1       2.876   3.753  19.233  0.00  0.00    +0.000 A 
ENDBRANCH  18  19
ENDBRANCH   5  18
TORSDOF 4
ENDMDL
MODEL 4
REMARK VINA RESULT:      -6.9      3.335      7.633
REMARK  Name = 
REMARK  5 active torsions:
REMARK  status: ('A' for Active; 'I' for Inactive)
REMARK    1  A    between atoms: C_1  and  C_2
REMARK    2  A    between atoms: C_2  and  C_3
REMARK    3  A    between atoms: C_3  and  C_4
REMARK    4  A    between atoms: N_14  and  C_15
REMARK    5  A    between atoms: C_15  and  C_16
REMARK                            x       y       z     vdW  Elec       q    Type
REMARK                         _______ _______ _______ _____ _____    ______ ____
ROOT
ATOM      1  C   UNL     1       0.369  10.303  19.353  0.00  0.00    +0.000 C 
ATOM      2  N   UNL     1       0.128   9.566  20.576  0.00  0.00    +0.000 N 
ATOM      3  C   UNL     1       0.958   8.482  20.730  0.00  0.00    +0.000 C 
ATOM      4  O   UNL     1       0.992   7.818  21.753  0.00  0.00    +0.000 OA
ATOM      5  N   UNL     1       1.705   8.346  19.603  0.00  0.00    +0.000 N 
ATOM      6  C   UNL     1       1.445   9.368  18.738  0.00  0.00    +0.000 C 
ATOM      7  O   UNL     1       2.019   9.550  17.665  0.00  0.00    +0.000 OA
ATOM      8  H   UNL     1      -0.479   9.854  21.331  0.00  0.00    +0.000 HD
ENDROOT
BRANCH   1   9
ATOM      9  C   UNL     1      -0.905  10.413  18.508  0.00  0.00    +0.000 A 
ATOM     10  C   UNL     1      -1.062   9.670  17.321  0.00  0.00    +0.000 A 
ATOM     11  C   UNL     1      -2.236   9.750  16.568  0.00  0.00    +0.000 A 
ATOM     12  C   UNL     1      -3.259  10.592  16.977  0.00  0.00    +0.000 A 
ATOM     13  F   UNL     1      -4.389  10.659  16.262  0.00  0.00    +0.000 F 
ATOM     14  C   UNL     1      -3.123  11.368  18.118  0.00  0.00    +0.000 A 
ATOM     15  C   UNL     1      -1.950  11.289  18.873  0.00  0.00    +0.000 A 
ENDBRANCH   1   9
BRANCH   1  17
ATOM     16  C   UNL     1       0.683  12.227  21.061  0.00  0.00    +0.000 C 
ATOM     17  C   UNL     1       0.968  11.694  19.656  0.00  0.00    +0.000 C 
ENDBRANCH   1  17
BRANCH   5  18
ATOM     18  C   UNL     1       2.735   7.342  19.395  0.00  0.00    +0.000 C 
BRANCH  18  19
ATOM     19  C   UNL     1       2.174   6.012  18.932  0.00  0.00    +0.000 A 
ATOM     20  C   UNL     1       1.789   5.855  17.585  0.00  0.00    +0.000 A 
ATOM     21  C   UNL     1       1.201   4.674  17.146  0.00  0.00    +0.000 A 
ATOM     22  C   UNL     1       1.018   3.628  18.041  0.00  0.00    +0.000 A 
ATOM     23  C   UNL     1       1.452   3.748  19.372  0.00  0.00    +0.000 A 
ATOM     24  C   UNL     1       1.299   2.685  20.272  0.00  0.00    +0.000 A 
ATOM     25  C   UNL     1       1.736   2.818  21.582  0.00  0.00    +0.000 A 
ATOM     26  C   UNL     1       2.319   4.013  21.946  0.00  0.00    +0.000 A 
ATOM     27  N   UNL     1       2.485   5.057  21.104  0.00  0.00    +0.000 NA
ATOM     28  C   UNL     1       2.048   4.946  19.832  0.00  0.00    +0.000 A 
ENDBRANCH  18  19
ENDBRANCH   5  18
TORSDOF 4
ENDMDL
MODEL 5
REMARK VINA RESULT:      -6.9      3.859      8.452
REMARK  Name = 
REMARK  5 active torsions:
REMARK  status: ('A' for Active; 'I' for Inactive)
REMARK    1  A    between atoms: C_1  and  C_2
REMARK    2  A    between atoms: C_2  and  C_3
REMARK    3  A    between atoms: C_3  and  C_4
REMARK    4  A    between atoms: N_14  and  C_15
REMARK    5  A    between atoms: C_15  and  C_16
REMARK                            x       y       z     vdW  Elec       q    Type
REMARK                         _______ _______ _______ _____ _____    ______ ____
ROOT
ATOM      1  C   UNL     1       0.604   9.933  19.019  0.00  0.00    +0.000 C 
ATOM      2  N   UNL     1       1.363   9.694  17.809  0.00  0.00    +0.000 N 
ATOM      3  C   UNL     1       2.203   8.610  17.901  0.00  0.00    +0.000 C 
ATOM      4  O   UNL     1       2.825   8.176  16.945  0.00  0.00    +0.000 OA
ATOM      5  N   UNL     1       2.160   8.136  19.173  0.00  0.00    +0.000 N 
ATOM      6  C   UNL     1       1.246   8.833  19.907  0.00  0.00    +0.000 C 
ATOM      7  O   UNL     1       0.938   8.588  21.072  0.00  0.00    +0.000 OA
ATOM      8  H   UNL     1       1.228  10.159  16.923  0.00  0.00    +0.000 HD
ENDROOT
BRANCH   1   9
ATOM      9  C   UNL     1       0.826  11.355  19.545  0.00  0.00    +0.000 A 
ATOM     10  C   UNL     1       1.719  12.240  18.909  0.00  0.00    +0.000 A 
ATOM     11  C   UNL     1       1.898  13.545  19.372  0.00  0.00    +0.000 A 
ATOM     12  C   UNL     1       1.205  13.977  20.493  0.00  0.00    +0.000 A 
ATOM     13  F   UNL     1       1.366  15.232  20.930  0.00  0.00    +0.000 F 
ATOM     14  C   UNL     1       0.347  13.122  21.168  0.00  0.00    +0.000 A 
ATOM     15  C   UNL     1       0.167  11.816  20.704  0.00  0.00    +0.000 A 
ENDBRANCH   1   9
BRANCH   1  17
ATOM     16  C   UNL     1      -1.489  10.250  17.522  0.00  0.00    +0.000 C 
ATOM     17  C   UNL     1      -0.897   9.642  18.794  0.00  0.00    +0.000 C 
ENDBRANCH   1  17
BRANCH   5  18
ATOM     18  C   UNL     1       2.876   6.967  19.658  0.00  0.00    +0.000 C 
BRANCH  18  19
ATOM     19  C   UNL     1       2.795   5.791  18.706  0.00  0.00    +0.000 A 
ATOM     20  C   UNL     1       1.559   5.139  18.515  0.00  0.00    +0.000 A 
ATOM     21  C   UNL     1       1.467   4.011  17.709  0.00  0.00    +0.000 A 
ATOM     22  C   UNL     1       2.601   3.540  17.060  0.00  0.00    +0.000 A 
ATOM     23  C   UNL     1       3.826   4.214  17.192  0.00  0.00    +0.000 A 
ATOM     24  C   UNL     1       4.967   3.763  16.516  0.00  0.00    +0.000 A 
ATOM     25  C   UNL     1       6.169   4.442  16.654  0.00  0.00    +0.000 A 
ATOM     26  C   UNL     1       6.186   5.559  17.463  0.00  0.00    +0.000 A 
ATOM     27  N   UNL     1       5.105   6.024  18.126  0.00  0.00    +0.000 NA
ATOM     28  C   UNL     1       3.935   5.361  18.014  0.00  0.00    +0.000 A 
ENDBRANCH  18  19
ENDBRANCH   5  18
TORSDOF 4
ENDMDL
MODEL 6
REMARK VINA RESULT:      -6.8      2.758      4.463
REMARK  Name = 
REMARK  5 active torsions:
REMARK  status: ('A' for Active; 'I' for Inactive)
REMARK    1  A    between atoms: C_1  and  C_2
REMARK    2  A    between atoms: C_2  and  C_3
REMARK    3  A    between atoms: C_3  and  C_4
REMARK    4  A    between atoms: N_14  and  C_15
REMARK    5  A    between atoms: C_15  and  C_16
REMARK                            x       y       z     vdW  Elec       q    Type
REMARK                         _______ _______ _______ _____ _____    ______ ____
ROOT
ATOM      1  C   UNL     1      -1.190  11.325  19.202  0.00  0.00    +0.000 C 
ATOM      2  N   UNL     1      -1.478  10.272  18.251  0.00  0.00    +0.000 N 
ATOM      3  C   UNL     1      -2.738  10.358  17.711  0.00  0.00    +0.000 C 
ATOM      4  O   UNL     1      -3.115   9.639  16.800  0.00  0.00    +0.000 OA
ATOM      5  N   UNL     1      -3.406  11.366  18.330  0.00  0.00    +0.000 N 
ATOM      6  C   UNL     1      -2.586  12.004  19.214  0.00  0.00    +0.000 C 
ATOM      7  O   UNL     1      -2.890  12.998  19.871  0.00  0.00    +0.000 OA
ATOM      8  H   UNL     1      -0.813   9.604  17.888  0.00  0.00    +0.000 HD
ENDROOT
BRANCH   1   9
ATOM      9  C   UNL     1      -0.774  10.751  20.562  0.00  0.00    +0.000 A 
ATOM     10  C   UNL     1      -1.145  11.381  21.766  0.00  0.00    +0.000 A 
ATOM     11  C   UNL     1      -0.790  10.840  23.004  0.00  0.00    +0.000 A 
ATOM     12  C   UNL     1      -0.040   9.675  23.056  0.00  0.00    +0.000 A 
ATOM     13  F   UNL     1       0.289   9.150  24.243  0.00  0.00    +0.000 F 
ATOM     14  C   UNL     1       0.376   9.049  21.890  0.00  0.00    +0.000 A 
ATOM     15  C   UNL     1       0.021   9.589  20.651  0.00  0.00    +0.000 A 
ENDBRANCH   1   9
BRANCH   1  17
ATOM     16  C   UNL     1       1.290  11.708  18.551  0.00  0.00    +0.000 C 
ATOM     17  C   UNL     1      -0.121  12.292  18.648  0.00  0.00    +0.000 C 
ENDBRANCH   1  17
BRANCH   5  18
ATOM     18  C   UNL     1      -4.755  11.801  18.009  0.00  0.00    +0.000 C 
BRANCH  18  19
ATOM     19  C   UNL     1      -5.789  11.285  18.990  0.00  0.00    +0.000 A 
ATOM     20  C   UNL     1      -6.190   9.934  18.925  0.00  0.00    +0.000 A 
ATOM     21  C   UNL     1      -7.189   9.449  19.759  0.00  0.00    +0.000 A 
ATOM     22  C   UNL     1      -7.779  10.298  20.687  0.00  0.00    +0.000 A 
ATOM     23  C   UNL     1      -7.348  11.630  20.804  0.00  0.00    +0.000 A 
ATOM     24  C   UNL     1      -7.917  12.483  21.758  0.00  0.00    +0.000 A 
ATOM     25  C   UNL     1      -7.478  13.796  21.863  0.00  0.00    +0.000 A 
ATOM     26  C   UNL     1      -6.476  14.208  21.010  0.00  0.00    +0.000 A 
ATOM     27  N   UNL     1      -5.903  13.411  20.081  0.00  0.00    +0.000 NA
ATOM     28  C   UNL     1      -6.334  12.138  19.957  0.00  0.00    +0.000 A 
ENDBRANCH  18  19
ENDBRANCH   5  18
TORSDOF 4
ENDMDL
MODEL 7
REMARK VINA RESULT:      -6.8      3.670      7.932
REMARK  Name = 
REMARK  5 active torsions:
REMARK  status: ('A' for Active; 'I' for Inactive)
REMARK    1  A    between atoms: C_1  and  C_2
REMARK    2  A    between atoms: C_2  and  C_3
REMARK    3  A    between atoms: C_3  and  C_4
REMARK    4  A    between atoms: N_14  and  C_15
REMARK    5  A    between atoms: C_15  and  C_16
REMARK                            x       y       z     vdW  Elec       q    Type
REMARK                         _______ _______ _______ _____ _____    ______ ____
ROOT
ATOM      1  C   UNL     1       0.255  10.069  18.906  0.00  0.00    +0.000 C 
ATOM      2  N   UNL     1       1.068   9.781  17.743  0.00  0.00    +0.000 N 
ATOM      3  C   UNL     1       2.010   8.807  17.966  0.00  0.00    +0.000 C 
ATOM      4  O   UNL     1       2.699   8.340  17.074  0.00  0.00    +0.000 OA
ATOM      5  N   UNL     1       1.981   8.471  19.282  0.00  0.00    +0.000 N 
ATOM      6  C   UNL     1       0.981   9.145  19.920  0.00  0.00    +0.000 C 
ATOM      7  O   UNL     1       0.669   8.997  21.101  0.00  0.00    +0.000 OA
ATOM      8  H   UNL     1       0.910  10.132  16.808  0.00  0.00    +0.000 HD
ENDROOT
BRANCH   1   9
ATOM      9  C   UNL     1       0.317  11.556  19.276  0.00  0.00    +0.000 A 
ATOM     10  C   UNL     1       1.335  12.392  18.776  0.00  0.00    +0.000 A 
ATOM     11  C   UNL     1       1.372  13.753  19.090  0.00  0.00    +0.000 A 
ATOM     12  C   UNL     1       0.407  14.291  19.928  0.00  0.00    +0.000 A 
ATOM     13  F   UNL     1       0.436  15.598  20.219  0.00  0.00    +0.000 F 
ATOM     14  C   UNL     1      -0.587  13.490  20.469  0.00  0.00    +0.000 A 
ATOM     15  C   UNL     1      -0.626  12.129  20.155  0.00  0.00    +0.000 A 
ENDBRANCH   1   9
BRANCH   1  17
ATOM     16  C   UNL     1      -1.804   9.968  17.334  0.00  0.00    +0.000 C 
ATOM     17  C   UNL     1      -1.201   9.601  18.692  0.00  0.00    +0.000 C 
ENDBRANCH   1  17
BRANCH   5  18
ATOM     18  C   UNL     1       2.799   7.443  19.905  0.00  0.00    +0.000 C 
BRANCH  18  19
ATOM     19  C   UNL     1       2.282   6.043  19.643  0.00  0.00    +0.000 A 
ATOM     20  C   UNL     1       1.192   5.557  20.394  0.00  0.00    +0.000 A 
ATOM     21  C   UNL     1       0.743   4.251  20.232  0.00  0.00    +0.000 A 
ATOM     22  C   UNL     1       1.359   3.427  19.299  0.00  0.00    +0.000 A 
ATOM     23  C   UNL     1       2.406   3.916  18.501  0.00  0.00    +0.000 A 
ATOM     24  C   UNL     1       3.010   3.100  17.536  0.00  0.00    +0.000 A 
ATOM     25  C   UNL     1       4.042   3.599  16.754  0.00  0.00    +0.000 A 
ATOM     26  C   UNL     1       4.430   4.906  16.961  0.00  0.00    +0.000 A 
ATOM     27  N   UNL     1       3.868   5.722  17.880  0.00  0.00    +0.000 NA
ATOM     28  C   UNL     1       2.876   5.242  18.659  0.00  0.00    +0.000 A 
ENDBRANCH  18  19
ENDBRANCH   5  18
TORSDOF 4
ENDMDL
MODEL 8
REMARK VINA RESULT:      -6.8      7.284      9.965
REMARK  Name = 
REMARK  5 active torsions:
REMARK  status: ('A' for Active; 'I' for Inactive)
REMARK    1  A    between atoms: C_1  and  C_2
REMARK    2  A    between atoms: C_2  and  C_3
REMARK    3  A    between atoms: C_3  and  C_4
REMARK    4  A    between atoms: N_14  and  C_15
REMARK    5  A    between atoms: C_15  and  C_16
REMARK                            x       y       z     vdW  Elec       q    Type
REMARK                         _______ _______ _______ _____ _____    ______ ____
ROOT
ATOM      1  C   UNL     1       6.804   6.053  16.246  0.00  0.00    +0.000 C 
ATOM      2  N   UNL     1       5.498   6.645  16.447  0.00  0.00    +0.000 N 
ATOM      3  C   UNL     1       4.886   6.231  17.606  0.00  0.00    +0.000 C 
ATOM      4  O   UNL     1       3.843   6.717  18.010  0.00  0.00    +0.000 OA
ATOM      5  N   UNL     1       5.656   5.271  18.182  0.00  0.00    +0.000 N 
ATOM      6  C   UNL     1       6.808   5.098  17.471  0.00  0.00    +0.000 C 
ATOM      7  O   UNL     1       7.728   4.347  17.787  0.00  0.00    +0.000 OA
ATOM      8  H   UNL     1       5.095   7.390  15.897  0.00  0.00    +0.000 HD
ENDROOT
BRANCH   1   9
ATOM      9  C   UNL     1       6.884   5.324  14.899  0.00  0.00    +0.000 A 
ATOM     10  C   UNL     1       6.021   4.254  14.594  0.00  0.00    +0.000 A 
ATOM     11  C   UNL     1       6.076   3.611  13.355  0.00  0.00    +0.000 A 
ATOM     12  C   UNL     1       7.012   4.013  12.414  0.00  0.00    +0.000 A 
ATOM     13  F   UNL     1       7.056   3.405  11.221  0.00  0.00    +0.000 F 
ATOM     14  C   UNL     1       7.903   5.037  12.694  0.00  0.00    +0.000 A 
ATOM     15  C   UNL     1       7.849   5.681  13.933  0.00  0.00    +0.000 A 
ENDBRANCH   1   9
BRANCH   1  17
ATOM     16  C   UNL     1       7.834   7.981  17.638  0.00  0.00    +0.000 C 
ATOM     17  C   UNL     1       7.918   7.113  16.382  0.00  0.00    +0.000 C 
ENDBRANCH   1  17
BRANCH   5  18
ATOM     18  C   UNL     1       5.371   4.613  19.447  0.00  0.00    +0.000 C 
BRANCH  18  19
ATOM     19  C   UNL     1       4.288   3.560  19.331  0.00  0.00    +0.000 A 
ATOM     20  C   UNL     1       4.607   2.295  18.796  0.00  0.00    +0.000 A 
ATOM     21  C   UNL     1       3.621   1.334  18.605  0.00  0.00    +0.000 A 
ATOM     22  C   UNL     1       2.312   1.615  18.973  0.00  0.00    +0.000 A 
ATOM     23  C   UNL     1       1.990   2.848  19.563  0.00  0.00    +0.000 A 
ATOM     24  C   UNL     1       0.677   3.126  19.966  0.00  0.00    +0.000 A 
ATOM     25  C   UNL     1       0.375   4.348  20.550  0.00  0.00    +0.000 A 
ATOM     26  C   UNL     1       1.404   5.252  20.717  0.00  0.00    +0.000 A 
ATOM     27  N   UNL     1       2.682   5.015  20.344  0.00  0.00    +0.000 NA
ATOM     28  C   UNL     1       2.983   3.837  19.759  0.00  0.00    +0.000 A 
ENDBRANCH  18  19
ENDBRANCH   5  18
TORSDOF 4
ENDMDL
MODEL 9
REMARK VINA RESULT:      -6.7      5.577     10.123
REMARK  Name = 
REMARK  5 active torsions:
REMARK  status: ('A' for Active; 'I' for Inactive)
REMARK    1  A    between atoms: C_1  and  C_2
REMARK    2  A    between atoms: C_2  and  C_3
REMARK    3  A    between atoms: C_3  and  C_4
REMARK    4  A    between atoms: N_14  and  C_15
REMARK    5  A    between atoms: C_15  and  C_16
REMARK                            x       y       z     vdW  Elec       q    Type
REMARK                         _______ _______ _______ _____ _____    ______ ____
ROOT
ATOM      1  C   UNL     1       2.126   5.293  19.574  0.00  0.00    +0.000 C 
ATOM      2  N   UNL     1       1.609   4.620  18.401  0.00  0.00    +0.000 N 
ATOM      3  C   UNL     1       2.561   3.893  17.728  0.00  0.00    +0.000 C 
ATOM      4  O   UNL     1       2.289   3.157  16.794  0.00  0.00    +0.000 OA
ATOM      5  N   UNL     1       3.768   4.119  18.308  0.00  0.00    +0.000 N 
ATOM      6  C   UNL     1       3.623   4.917  19.406  0.00  0.00    +0.000 C 
ATOM      7  O   UNL     1       4.530   5.237  20.173  0.00  0.00    +0.000 OA
ATOM      8  H   UNL     1       0.635   4.548  18.140  0.00  0.00    +0.000 HD
ENDROOT
BRANCH   1   9
ATOM      9  C   UNL     1       1.861   6.802  19.513  0.00  0.00    +0.000 A 
ATOM     10  C   UNL     1       2.123   7.544  18.345  0.00  0.00    +0.000 A 
ATOM     11  C   UNL     1       1.853   8.913  18.282  0.00  0.00    +0.000 A 
ATOM     12  C   UNL     1       1.340   9.564  19.394  0.00  0.00    +0.000 A 
ATOM     13  F   UNL     1       1.070  10.874  19.330  0.00  0.00    +0.000 F 
ATOM     14  C   UNL     1       1.107   8.873  20.573  0.00  0.00    +0.000 A 
ATOM     15  C   UNL     1       1.376   7.504  20.637  0.00  0.00    +0.000 A 
ENDBRANCH   1   9
BRANCH   1  17
ATOM     16  C   UNL     1       1.066   3.227  20.726  0.00  0.00    +0.000 C 
ATOM     17  C   UNL     1       1.552   4.671  20.866  0.00  0.00    +0.000 C 
ENDBRANCH   1  17
BRANCH   5  18
ATOM     18  C   UNL     1       5.020   3.496  17.912  0.00  0.00    +0.000 C 
BRANCH  18  19
ATOM     19  C   UNL     1       5.987   4.475  17.276  0.00  0.00    +0.000 A 
ATOM     20  C   UNL     1       6.625   5.441  18.082  0.00  0.00    +0.000 A 
ATOM     21  C   UNL     1       7.457   6.400  17.518  0.00  0.00    +0.000 A 
ATOM     22  C   UNL     1       7.686   6.387  16.148  0.00  0.00    +0.000 A 
ATOM     23  C   UNL     1       7.107   5.394  15.341  0.00  0.00    +0.000 A 
ATOM     24  C   UNL     1       7.358   5.357  13.964  0.00  0.00    +0.000 A 
ATOM     25  C   UNL     1       6.781   4.368  13.180  0.00  0.00    +0.000 A 
ATOM     26  C   UNL     1       5.973   3.442  13.807  0.00  0.00    +0.000 A 
ATOM     27  N   UNL     1       5.711   3.447  15.133  0.00  0.00    +0.000 NA
ATOM     28  C   UNL     1       6.253   4.415  15.902  0.00  0.00    +0.000 A 
ENDBRANCH  18  19
ENDBRANCH   5  18
TORSDOF 4
ENDMDL
