MODEL 1
REMARK VINA RESULT:      -9.6      0.000      0.000
REMARK  Name = 
REMARK  4 active torsions:
REMARK  status: ('A' for Active; 'I' for Inactive)
REMARK    1  A    between atoms: C_7  and  N_8
REMARK    2  A    between atoms: N_8  and  C_9
REMARK    3  A    between atoms: C_9  and  C_10
REMARK    4  A    between atoms: C_14  and  C_15
REMARK                            x       y       z     vdW  Elec       q    Type
REMARK                         _______ _______ _______ _____ _____    ______ ____
ROOT
ATOM      1  C   UNL     1       1.809   4.006  19.790  0.00  0.00    +0.000 A 
ATOM      2  C   UNL     1       0.635   3.276  19.863  0.00  0.00    +0.000 A 
ATOM      3  N   UNL     1       0.669   2.383  18.842  0.00  0.00    +0.000 N 
ATOM      4  N   UNL     1       1.784   2.450  18.113  0.00  0.00    +0.000 NA
ATOM      5  C   UNL     1       2.491   3.463  18.646  0.00  0.00    +0.000 A 
ATOM      6  H   UNL     1      -0.035   1.698  18.584  0.00  0.00    +0.000 HD
ENDROOT
BRANCH   5   7
ATOM      7  C   UNL     1       3.758   3.859  18.019  0.00  0.00    +0.000 A 
ATOM      8  C   UNL     1       4.906   4.051  18.808  0.00  0.00    +0.000 A 
ATOM      9  C   UNL     1       6.143   4.346  18.225  0.00  0.00    +0.000 A 
ATOM     10  C   UNL     1       6.246   4.460  16.842  0.00  0.00    +0.000 A 
ATOM     11  C   UNL     1       5.116   4.259  16.047  0.00  0.00    +0.000 A 
ATOM     12  C   UNL     1       3.883   3.970  16.629  0.00  0.00    +0.000 A 
ATOM     13  O   UNL     1       5.137   4.316  14.677  0.00  0.00    +0.000 OA
ATOM     14  C   UNL     1       6.474   4.188  14.182  0.00  0.00    +0.000 C 
ATOM     15  C   UNL     1       7.414   5.104  14.946  0.00  0.00    +0.000 C 
ATOM     16  O   UNL     1       7.486   4.732  16.328  0.00  0.00    +0.000 OA
ENDBRANCH   5   7
BRANCH   1  17
ATOM     17  C   UNL     1       2.242   5.108  20.717  0.00  0.00    +0.000 C 
BRANCH  17  18
ATOM     18  N   UNL     1       3.005   6.182  20.089  0.00  0.00    +0.000 N 
ATOM     19  H   UNL     1       3.782   5.843  19.531  0.00  0.00    +0.000 HD
BRANCH  18  26
ATOM     20  O   UNL     1      -0.992  12.478  18.546  0.00  0.00    +0.000 OA
ATOM     21  C   UNL     1      -0.451  11.446  18.938  0.00  0.00    +0.000 C 
ATOM     22  C   UNL     1      -0.714  10.833  20.313  0.00  0.00    +0.000 C 
ATOM     23  O   UNL     1       0.231   9.930  20.864  0.00  0.00    +0.000 OA
ATOM     24  C   UNL     1       0.935   9.218  19.933  0.00  0.00    +0.000 A 
ATOM     25  C   UNL     1       1.632   8.106  20.402  0.00  0.00    +0.000 A 
ATOM     26  C   UNL     1       2.418   7.318  19.548  0.00  0.00    +0.000 A 
ATOM     27  C   UNL     1       2.450   7.659  18.191  0.00  0.00    +0.000 A 
ATOM     28  C   UNL     1       1.780   8.796  17.715  0.00  0.00    +0.000 A 
ATOM     29  C   UNL     1       1.023   9.571  18.590  0.00  0.00    +0.000 A 
ATOM     30  N   UNL     1       0.370  10.713  18.125  0.00  0.00    +0.000 N 
ATOM     31  H   UNL     1       0.500  11.046  17.179  0.00  0.00    +0.000 HD
ENDBRANCH  18  26
ENDBRANCH  17  18
ENDBRANCH   1  17
TORSDOF 4
ENDMDL
MODEL 2
REMARK VINA RESULT:      -9.5      1.370      1.478
REMARK  Name = 
REMARK  4 active torsions:
REMARK  status: ('A' for Active; 'I' for Inactive)
REMARK    1  A    between atoms: C_7  and  N_8
REMARK    2  A    between atoms: N_8  and  C_9
REMARK    3  A    between atoms: C_9  and  C_10
REMARK    4  A    between atoms: C_14  and  C_15
REMARK                            x       y       z     vdW  Elec       q    Type
REMARK                         _______ _______ _______ _____ _____    ______ ____
ROOT
ATOM      1  C   UNL     1       3.133   4.037  19.700  0.00  0.00    +0.000 A 
ATOM      2  C   UNL     1       2.824   3.167  20.730  0.00  0.00    +0.000 A 
ATOM      3  N   UNL     1       3.858   2.294  20.825  0.00  0.00    +0.000 N 
ATOM      4  N   UNL     1       4.838   2.532  19.953  0.00  0.00    +0.000 NA
ATOM      5  C   UNL     1       4.408   3.576  19.220  0.00  0.00    +0.000 A 
ATOM      6  H   UNL     1       3.961   1.510  21.463  0.00  0.00    +0.000 HD
ENDROOT
BRANCH   5   7
ATOM      7  C   UNL     1       5.231   4.049  18.099  0.00  0.00    +0.000 A 
ATOM      8  C   UNL     1       6.466   4.675  18.347  0.00  0.00    +0.000 A 
ATOM      9  C   UNL     1       7.305   5.059  17.295  0.00  0.00    +0.000 A 
ATOM     10  C   UNL     1       6.915   4.828  15.980  0.00  0.00    +0.000 A 
ATOM     11  C   UNL     1       5.696   4.197  15.722  0.00  0.00    +0.000 A 
ATOM     12  C   UNL     1       4.859   3.819  16.770  0.00  0.00    +0.000 A 
ATOM     13  O   UNL     1       5.253   3.899  14.458  0.00  0.00    +0.000 OA
ATOM     14  C   UNL     1       6.333   3.928  13.519  0.00  0.00    +0.000 C 
ATOM     15  C   UNL     1       7.164   5.186  13.703  0.00  0.00    +0.000 C 
ATOM     16  O   UNL     1       7.786   5.210  14.993  0.00  0.00    +0.000 OA
ENDBRANCH   5   7
BRANCH   1  17
ATOM     17  C   UNL     1       2.303   5.195  19.219  0.00  0.00    +0.000 C 
BRANCH  17  18
ATOM     18  N   UNL     1       2.436   6.420  20.002  0.00  0.00    +0.000 N 
ATOM     19  H   UNL     1       3.285   6.446  20.557  0.00  0.00    +0.000 HD
BRANCH  18  26
ATOM     20  O   UNL     1      -0.426  13.363  18.740  0.00  0.00    +0.000 OA
ATOM     21  C   UNL     1      -0.082  12.232  19.076  0.00  0.00    +0.000 C 
ATOM     22  C   UNL     1      -0.555  11.561  20.365  0.00  0.00    +0.000 C 
ATOM     23  O   UNL     1       0.192  10.482  20.902  0.00  0.00    +0.000 OA
ATOM     24  C   UNL     1       0.863   9.744  19.966  0.00  0.00    +0.000 A 
ATOM     25  C   UNL     1       1.342   8.503  20.383  0.00  0.00    +0.000 A 
ATOM     26  C   UNL     1       2.075   7.673  19.524  0.00  0.00    +0.000 A 
ATOM     27  C   UNL     1       2.279   8.110  18.210  0.00  0.00    +0.000 A 
ATOM     28  C   UNL     1       1.830   9.371  17.790  0.00  0.00    +0.000 A 
ATOM     29  C   UNL     1       1.122  10.183  18.671  0.00  0.00    +0.000 A 
ATOM     30  N   UNL     1       0.690  11.446  18.264  0.00  0.00    +0.000 N 
ATOM     31  H   UNL     1       0.952  11.828  17.366  0.00  0.00    +0.000 HD
ENDBRANCH  18  26
ENDBRANCH  17  18
ENDBRANCH   1  17
TORSDOF 4
ENDMDL
MODEL 3
REMARK VINA RESULT:      -9.3      1.784      2.212
REMARK  Name = 
REMARK  4 active torsions:
REMARK  status: ('A' for Active; 'I' for Inactive)
REMARK    1  A    between atoms: C_7  and  N_8
REMARK    2  A    between atoms: N_8  and  C_9
REMARK    3  A    between atoms: C_9  and  C_10
REMARK    4  A    between atoms: C_14  and  C_15
REMARK                            x       y       z     vdW  Elec       q    Type
REMARK                         _______ _______ _______ _____ _____    ______ ____
ROOT
ATOM      1  C   UNL     1       2.358   5.262  20.006  0.00  0.00    +0.000 A 
ATOM      2  C   UNL     1       1.536   4.496  20.813  0.00  0.00    +0.000 A 
ATOM      3  N   UNL     1       2.007   3.226  20.755  0.00  0.00    +0.000 N 
ATOM      4  N   UNL     1       3.091   3.095  19.989  0.00  0.00    +0.000 NA
ATOM      5  C   UNL     1       3.313   4.322  19.483  0.00  0.00    +0.000 A 
ATOM      6  H   UNL     1       1.638   2.397  21.212  0.00  0.00    +0.000 HD
ENDROOT
BRANCH   5   7
ATOM      7  C   UNL     1       4.406   4.512  18.520  0.00  0.00    +0.000 A 
ATOM      8  C   UNL     1       5.707   4.791  18.977  0.00  0.00    +0.000 A 
ATOM      9  C   UNL     1       6.779   4.894  18.084  0.00  0.00    +0.000 A 
ATOM     10  C   UNL     1       6.562   4.725  16.721  0.00  0.00    +0.000 A 
ATOM     11  C   UNL     1       5.277   4.436  16.257  0.00  0.00    +0.000 A 
ATOM     12  C   UNL     1       4.208   4.339  17.146  0.00  0.00    +0.000 A 
ATOM     13  O   UNL     1       4.983   4.219  14.934  0.00  0.00    +0.000 OA
ATOM     14  C   UNL     1       6.168   3.919  14.191  0.00  0.00    +0.000 C 
ATOM     15  C   UNL     1       7.269   4.913  14.520  0.00  0.00    +0.000 C 
ATOM     16  O   UNL     1       7.653   4.819  15.897  0.00  0.00    +0.000 OA
ENDBRANCH   5   7
BRANCH   1  17
ATOM     17  C   UNL     1       2.252   6.741  19.758  0.00  0.00    +0.000 C 
BRANCH  17  18
ATOM     18  N   UNL     1       1.941   7.547  20.934  0.00  0.00    +0.000 N 
ATOM     19  H   UNL     1       2.717   7.613  21.585  0.00  0.00    +0.000 HD
BRANCH  18  26
ATOM     20  O   UNL     1      -2.611  13.528  22.159  0.00  0.00    +0.000 OA
ATOM     21  C   UNL     1      -1.944  12.497  22.112  0.00  0.00    +0.000 C 
ATOM     22  C   UNL     1      -1.850  11.506  23.271  0.00  0.00    +0.000 C 
ATOM     23  O   UNL     1      -0.760  10.600  23.327  0.00  0.00    +0.000 OA
ATOM     24  C   UNL     1      -0.257  10.254  22.103  0.00  0.00    +0.000 A 
ATOM     25  C   UNL     1       0.584   9.143  22.072  0.00  0.00    +0.000 A 
ATOM     26  C   UNL     1       1.189   8.713  20.882  0.00  0.00    +0.000 A 
ATOM     27  C   UNL     1       0.890   9.413  19.708  0.00  0.00    +0.000 A 
ATOM     28  C   UNL     1       0.072  10.553  19.734  0.00  0.00    +0.000 A 
ATOM     29  C   UNL     1      -0.500  10.968  20.934  0.00  0.00    +0.000 A 
ATOM     30  N   UNL     1      -1.298  12.112  20.968  0.00  0.00    +0.000 N 
ATOM     31  H   UNL     1      -1.407  12.703  20.155  0.00  0.00    +0.000 HD
ENDBRANCH  18  26
ENDBRANCH  17  18
ENDBRANCH   1  17
TORSDOF 4
ENDMDL
MODEL 4
REMARK VINA RESULT:      -9.1      1.327      1.835
REMARK  Name = 
REMARK  4 active torsions:
REMARK  status: ('A' for Active; 'I' for Inactive)
REMARK    1  A    between atoms: C_7  and  N_8
REMARK    2  A    between atoms: N_8  and  C_9
REMARK    3  A    between atoms: C_9  and  C_10
REMARK    4  A    between atoms: C_14  and  C_15
REMARK                            x       y       z     vdW  Elec       q    Type
REMARK                         _______ _______ _______ _____ _____    ______ ____
ROOT
ATOM      1  C   UNL     1       2.105   4.036  20.831  0.00  0.00    +0.000 A 
ATOM      2  C   UNL     1       1.805   3.245  21.927  0.00  0.00    +0.000 A 
ATOM      3  N   UNL     1       2.658   2.192  21.893  0.00  0.00    +0.000 N 
ATOM      4  N   UNL     1       3.515   2.234  20.872  0.00  0.00    +0.000 NA
ATOM      5  C   UNL     1       3.179   3.336  20.177  0.00  0.00    +0.000 A 
ATOM      6  H   UNL     1       2.712   1.406  22.534  0.00  0.00    +0.000 HD
ENDROOT
BRANCH   5   7
ATOM      7  C   UNL     1       3.888   3.638  18.928  0.00  0.00    +0.000 A 
ATOM      8  C   UNL     1       3.284   3.358  17.688  0.00  0.00    +0.000 A 
ATOM      9  C   UNL     1       3.904   3.713  16.486  0.00  0.00    +0.000 A 
ATOM     10  C   UNL     1       5.142   4.348  16.507  0.00  0.00    +0.000 A 
ATOM     11  C   UNL     1       5.746   4.642  17.731  0.00  0.00    +0.000 A 
ATOM     12  C   UNL     1       5.130   4.284  18.929  0.00  0.00    +0.000 A 
ATOM     13  O   UNL     1       6.946   5.298  17.842  0.00  0.00    +0.000 OA
ATOM     14  C   UNL     1       7.268   5.981  16.627  0.00  0.00    +0.000 C 
ATOM     15  C   UNL     1       7.066   5.066  15.432  0.00  0.00    +0.000 C 
ATOM     16  O   UNL     1       5.691   4.687  15.298  0.00  0.00    +0.000 OA
ENDBRANCH   5   7
BRANCH   1  17
ATOM     17  C   UNL     1       1.442   5.328  20.444  0.00  0.00    +0.000 C 
BRANCH  17  18
ATOM     18  N   UNL     1       2.315   6.498  20.445  0.00  0.00    +0.000 N 
ATOM     19  H   UNL     1       3.296   6.260  20.341  0.00  0.00    +0.000 HD
BRANCH  18  26
ATOM     20  O   UNL     1      -0.465  13.251  18.286  0.00  0.00    +0.000 OA
ATOM     21  C   UNL     1      -0.144  12.162  18.758  0.00  0.00    +0.000 C 
ATOM     22  C   UNL     1      -0.713  11.616  20.067  0.00  0.00    +0.000 C 
ATOM     23  O   UNL     1      -0.007  10.603  20.764  0.00  0.00    +0.000 OA
ATOM     24  C   UNL     1       0.737   9.784  19.960  0.00  0.00    +0.000 A 
ATOM     25  C   UNL     1       1.187   8.596  20.534  0.00  0.00    +0.000 A 
ATOM     26  C   UNL     1       1.988   7.693  19.819  0.00  0.00    +0.000 A 
ATOM     27  C   UNL     1       2.292   8.001  18.489  0.00  0.00    +0.000 A 
ATOM     28  C   UNL     1       1.873   9.210  17.913  0.00  0.00    +0.000 A 
ATOM     29  C   UNL     1       1.095  10.097  18.652  0.00  0.00    +0.000 A 
ATOM     30  N   UNL     1       0.692  11.309  18.090  0.00  0.00    +0.000 N 
ATOM     31  H   UNL     1       1.022  11.604  17.181  0.00  0.00    +0.000 HD
ENDBRANCH  18  26
ENDBRANCH  17  18
ENDBRANCH   1  17
TORSDOF 4
ENDMDL
MODEL 5
REMARK VINA RESULT:      -9.0      1.330      1.574
REMARK  Name = 
REMARK  4 active torsions:
REMARK  status: ('A' for Active; 'I' for Inactive)
REMARK    1  A    between atoms: C_7  and  N_8
REMARK    2  A    between atoms: N_8  and  C_9
REMARK    3  A    between atoms: C_9  and  C_10
REMARK    4  A    between atoms: C_14  and  C_15
REMARK                            x       y       z     vdW  Elec       q    Type
REMARK                         _______ _______ _______ _____ _____    ______ ____
ROOT
ATOM      1  C   UNL     1       2.050   4.206  20.031  0.00  0.00    +0.000 A 
ATOM      2  C   UNL     1       1.027   3.325  20.338  0.00  0.00    +0.000 A 
ATOM      3  N   UNL     1       1.239   2.210  19.597  0.00  0.00    +0.000 N 
ATOM      4  N   UNL     1       2.335   2.274  18.839  0.00  0.00    +0.000 NA
ATOM      5  C   UNL     1       2.837   3.504  19.054  0.00  0.00    +0.000 A 
ATOM      6  H   UNL     1       0.676   1.365  19.557  0.00  0.00    +0.000 HD
ENDROOT
BRANCH   5   7
ATOM      7  C   UNL     1       4.021   3.934  18.299  0.00  0.00    +0.000 A 
ATOM      8  C   UNL     1       5.199   4.292  18.980  0.00  0.00    +0.000 A 
ATOM      9  C   UNL     1       6.365   4.625  18.281  0.00  0.00    +0.000 A 
ATOM     10  C   UNL     1       6.364   4.611  16.890  0.00  0.00    +0.000 A 
ATOM     11  C   UNL     1       5.205   4.246  16.204  0.00  0.00    +0.000 A 
ATOM     12  C   UNL     1       4.043   3.919  16.900  0.00  0.00    +0.000 A 
ATOM     13  O   UNL     1       5.130   4.170  14.836  0.00  0.00    +0.000 OA
ATOM     14  C   UNL     1       6.436   4.100  14.256  0.00  0.00    +0.000 C 
ATOM     15  C   UNL     1       7.345   5.156  14.861  0.00  0.00    +0.000 C 
ATOM     16  O   UNL     1       7.540   4.928  16.262  0.00  0.00    +0.000 OA
ENDBRANCH   5   7
BRANCH   1  17
ATOM     17  C   UNL     1       2.261   5.577  20.610  0.00  0.00    +0.000 C 
BRANCH  17  18
ATOM     18  N   UNL     1       2.238   6.670  19.643  0.00  0.00    +0.000 N 
ATOM     19  H   UNL     1       2.059   6.355  18.694  0.00  0.00    +0.000 HD
BRANCH  18  26
ATOM     20  O   UNL     1      -1.317  12.774  22.485  0.00  0.00    +0.000 OA
ATOM     21  C   UNL     1      -0.818  11.699  22.160  0.00  0.00    +0.000 C 
ATOM     22  C   UNL     1      -0.860  10.454  23.046  0.00  0.00    +0.000 C 
ATOM     23  O   UNL     1       0.079   9.414  22.828  0.00  0.00    +0.000 OA
ATOM     24  C   UNL     1       0.503   9.304  21.533  0.00  0.00    +0.000 A 
ATOM     25  C   UNL     1       1.162   8.123  21.196  0.00  0.00    +0.000 A 
ATOM     26  C   UNL     1       1.674   7.911  19.907  0.00  0.00    +0.000 A 
ATOM     27  C   UNL     1       1.467   8.909  18.949  0.00  0.00    +0.000 A 
ATOM     28  C   UNL     1       0.835  10.115  19.288  0.00  0.00    +0.000 A 
ATOM     29  C   UNL     1       0.354  10.307  20.580  0.00  0.00    +0.000 A 
ATOM     30  N   UNL     1      -0.258  11.512  20.926  0.00  0.00    +0.000 N 
ATOM     31  H   UNL     1      -0.288  12.292  20.283  0.00  0.00    +0.000 HD
ENDBRANCH  18  26
ENDBRANCH  17  18
ENDBRANCH   1  17
TORSDOF 4
ENDMDL
MODEL 6
REMARK VINA RESULT:      -9.0      1.668      2.022
REMARK  Name = 
REMARK  4 active torsions:
REMARK  status: ('A' for Active; 'I' for Inactive)
REMARK    1  A    between atoms: C_7  and  N_8
REMARK    2  A    between atoms: N_8  and  C_9
REMARK    3  A    between atoms: C_9  and  C_10
REMARK    4  A    between atoms: C_14  and  C_15
REMARK                            x       y       z     vdW  Elec       q    Type
REMARK                         _______ _______ _______ _____ _____    ______ ____
ROOT
ATOM      1  C   UNL     1       2.659   4.523  19.210  0.00  0.00    +0.000 A 
ATOM      2  C   UNL     1       2.172   3.789  20.278  0.00  0.00    +0.000 A 
ATOM      3  N   UNL     1       3.119   2.867  20.581  0.00  0.00    +0.000 N 
ATOM      4  N   UNL     1       4.206   2.948  19.811  0.00  0.00    +0.000 NA
ATOM      5  C   UNL     1       3.941   3.933  18.933  0.00  0.00    +0.000 A 
ATOM      6  H   UNL     1       3.092   2.151  21.300  0.00  0.00    +0.000 HD
ENDROOT
BRANCH   5   7
ATOM      7  C   UNL     1       4.916   4.231  17.877  0.00  0.00    +0.000 A 
ATOM      8  C   UNL     1       6.231   4.601  18.215  0.00  0.00    +0.000 A 
ATOM      9  C   UNL     1       7.200   4.808  17.227  0.00  0.00    +0.000 A 
ATOM     10  C   UNL     1       6.864   4.655  15.886  0.00  0.00    +0.000 A 
ATOM     11  C   UNL     1       5.566   4.276  15.539  0.00  0.00    +0.000 A 
ATOM     12  C   UNL     1       4.599   4.075  16.523  0.00  0.00    +0.000 A 
ATOM     13  O   UNL     1       5.161   4.068  14.244  0.00  0.00    +0.000 OA
ATOM     14  C   UNL     1       6.288   3.880  13.382  0.00  0.00    +0.000 C 
ATOM     15  C   UNL     1       7.336   4.949  13.636  0.00  0.00    +0.000 C 
ATOM     16  O   UNL     1       7.859   4.853  14.966  0.00  0.00    +0.000 OA
ENDBRANCH   5   7
BRANCH   1  17
ATOM     17  C   UNL     1       1.977   5.673  18.523  0.00  0.00    +0.000 C 
BRANCH  17  18
ATOM     18  N   UNL     1       2.614   6.974  18.711  0.00  0.00    +0.000 N 
ATOM     19  H   UNL     1       3.237   7.223  17.948  0.00  0.00    +0.000 HD
BRANCH  18  26
ATOM     20  O   UNL     1      -1.145  12.069  22.941  0.00  0.00    +0.000 OA
ATOM     21  C   UNL     1      -0.580  11.129  22.385  0.00  0.00    +0.000 C 
ATOM     22  C   UNL     1      -0.336   9.780  23.061  0.00  0.00    +0.000 C 
ATOM     23  O   UNL     1       0.672   8.921  22.555  0.00  0.00    +0.000 OA
ATOM     24  C   UNL     1       0.899   9.052  21.213  0.00  0.00    +0.000 A 
ATOM     25  C   UNL     1       1.631   8.033  20.606  0.00  0.00    +0.000 A 
ATOM     26  C   UNL     1       1.957   8.075  19.243  0.00  0.00    +0.000 A 
ATOM     27  C   UNL     1       1.487   9.157  18.492  0.00  0.00    +0.000 A 
ATOM     28  C   UNL     1       0.778  10.205  19.100  0.00  0.00    +0.000 A 
ATOM     29  C   UNL     1       0.486  10.147  20.459  0.00  0.00    +0.000 A 
ATOM     30  N   UNL     1      -0.202  11.195  21.072  0.00  0.00    +0.000 N 
ATOM     31  H   UNL     1      -0.423  12.045  20.570  0.00  0.00    +0.000 HD
ENDBRANCH  18  26
ENDBRANCH  17  18
ENDBRANCH   1  17
TORSDOF 4
ENDMDL
MODEL 7
REMARK VINA RESULT:      -9.0      2.196      7.181
REMARK  Name = 
REMARK  4 active torsions:
REMARK  status: ('A' for Active; 'I' for Inactive)
REMARK    1  A    between atoms: C_7  and  N_8
REMARK    2  A    between atoms: N_8  and  C_9
REMARK    3  A    between atoms: C_9  and  C_10
REMARK    4  A    between atoms: C_14  and  C_15
REMARK                            x       y       z     vdW  Elec       q    Type
REMARK                         _______ _______ _______ _____ _____    ______ ____
ROOT
ATOM      1  C   UNL     1       2.965   3.849  20.368  0.00  0.00    +0.000 A 
ATOM      2  C   UNL     1       2.272   2.822  20.983  0.00  0.00    +0.000 A 
ATOM      3  N   UNL     1       0.971   3.202  21.028  0.00  0.00    +0.000 N 
ATOM      4  N   UNL     1       0.745   4.393  20.471  0.00  0.00    +0.000 NA
ATOM      5  C   UNL     1       1.957   4.836  20.088  0.00  0.00    +0.000 A 
ATOM      6  H   UNL     1       0.183   2.700  21.425  0.00  0.00    +0.000 HD
ENDROOT
BRANCH   5   7
ATOM      7  C   UNL     1       2.075   6.176  19.499  0.00  0.00    +0.000 A 
ATOM      8  C   UNL     1       2.630   6.337  18.217  0.00  0.00    +0.000 A 
ATOM      9  C   UNL     1       2.676   7.592  17.601  0.00  0.00    +0.000 A 
ATOM     10  C   UNL     1       2.174   8.706  18.266  0.00  0.00    +0.000 A 
ATOM     11  C   UNL     1       1.611   8.558  19.534  0.00  0.00    +0.000 A 
ATOM     12  C   UNL     1       1.569   7.308  20.149  0.00  0.00    +0.000 A 
ATOM     13  O   UNL     1       1.060   9.597  20.242  0.00  0.00    +0.000 OA
ATOM     14  C   UNL     1       0.769  10.702  19.382  0.00  0.00    +0.000 C 
ATOM     15  C   UNL     1       1.956  11.004  18.483  0.00  0.00    +0.000 C 
ATOM     16  O   UNL     1       2.231   9.906  17.605  0.00  0.00    +0.000 OA
ENDBRANCH   5   7
BRANCH   1  17
ATOM     17  C   UNL     1       4.438   3.891  20.072  0.00  0.00    +0.000 C 
BRANCH  17  18
ATOM     18  N   UNL     1       4.840   3.246  18.826  0.00  0.00    +0.000 N 
ATOM     19  H   UNL     1       4.119   2.643  18.442  0.00  0.00    +0.000 HD
BRANCH  18  26
ATOM     20  O   UNL     1       8.100   5.755  12.417  0.00  0.00    +0.000 OA
ATOM     21  C   UNL     1       7.510   5.217  13.352  0.00  0.00    +0.000 C 
ATOM     22  C   UNL     1       6.506   4.080  13.166  0.00  0.00    +0.000 C 
ATOM     23  O   UNL     1       5.561   3.811  14.189  0.00  0.00    +0.000 OA
ATOM     24  C   UNL     1       5.992   4.130  15.447  0.00  0.00    +0.000 A 
ATOM     25  C   UNL     1       5.255   3.602  16.505  0.00  0.00    +0.000 A 
ATOM     26  C   UNL     1       5.578   3.887  17.840  0.00  0.00    +0.000 A 
ATOM     27  C   UNL     1       6.697   4.692  18.083  0.00  0.00    +0.000 A 
ATOM     28  C   UNL     1       7.425   5.256  17.024  0.00  0.00    +0.000 A 
ATOM     29  C   UNL     1       7.069   4.971  15.709  0.00  0.00    +0.000 A 
ATOM     30  N   UNL     1       7.778   5.545  14.653  0.00  0.00    +0.000 N 
ATOM     31  H   UNL     1       8.498   6.236  14.816  0.00  0.00    +0.000 HD
ENDBRANCH  18  26
ENDBRANCH  17  18
ENDBRANCH   1  17
TORSDOF 4
ENDMDL
MODEL 8
REMARK VINA RESULT:      -9.0      1.436      2.068
REMARK  Name = 
REMARK  4 active torsions:
REMARK  status: ('A' for Active; 'I' for Inactive)
REMARK    1  A    between atoms: C_7  and  N_8
REMARK    2  A    between atoms: N_8  and  C_9
REMARK    3  A    between atoms: C_9  and  C_10
REMARK    4  A    between atoms: C_14  and  C_15
REMARK                            x       y       z     vdW  Elec       q    Type
REMARK                         _______ _______ _______ _____ _____    ______ ____
ROOT
ATOM      1  C   UNL     1       2.238   5.049  19.973  0.00  0.00    +0.000 A 
ATOM      2  C   UNL     1       1.362   4.235  20.670  0.00  0.00    +0.000 A 
ATOM      3  N   UNL     1       1.773   2.958  20.469  0.00  0.00    +0.000 N 
ATOM      4  N   UNL     1       2.867   2.865  19.711  0.00  0.00    +0.000 NA
ATOM      5  C   UNL     1       3.158   4.130  19.358  0.00  0.00    +0.000 A 
ATOM      6  H   UNL     1       1.355   2.101  20.818  0.00  0.00    +0.000 HD
ENDROOT
BRANCH   5   7
ATOM      7  C   UNL     1       4.280   4.377  18.443  0.00  0.00    +0.000 A 
ATOM      8  C   UNL     1       5.550   4.697  18.955  0.00  0.00    +0.000 A 
ATOM      9  C   UNL     1       6.652   4.854  18.107  0.00  0.00    +0.000 A 
ATOM     10  C   UNL     1       6.495   4.701  16.734  0.00  0.00    +0.000 A 
ATOM     11  C   UNL     1       5.241   4.372  16.215  0.00  0.00    +0.000 A 
ATOM     12  C   UNL     1       4.143   4.220  17.059  0.00  0.00    +0.000 A 
ATOM     13  O   UNL     1       5.008   4.167  14.878  0.00  0.00    +0.000 OA
ATOM     14  C   UNL     1       6.232   3.924  14.178  0.00  0.00    +0.000 C 
ATOM     15  C   UNL     1       7.280   4.953  14.567  0.00  0.00    +0.000 C 
ATOM     16  O   UNL     1       7.614   4.849  15.956  0.00  0.00    +0.000 OA
ENDBRANCH   5   7
BRANCH   1  17
ATOM     17  C   UNL     1       2.208   6.550  19.901  0.00  0.00    +0.000 C 
BRANCH  17  18
ATOM     18  N   UNL     1       1.811   7.223  21.134  0.00  0.00    +0.000 N 
ATOM     19  H   UNL     1       2.512   7.155  21.865  0.00  0.00    +0.000 HD
BRANCH  18  26
ATOM     20  O   UNL     1      -1.257  14.060  19.781  0.00  0.00    +0.000 OA
ATOM     21  C   UNL     1      -0.663  12.986  19.855  0.00  0.00    +0.000 C 
ATOM     22  C   UNL     1       0.229  12.444  18.738  0.00  0.00    +0.000 C 
ATOM     23  O   UNL     1       0.518  11.056  18.690  0.00  0.00    +0.000 OA
ATOM     24  C   UNL     1       0.520  10.442  19.912  0.00  0.00    +0.000 A 
ATOM     25  C   UNL     1       1.103   9.177  19.967  0.00  0.00    +0.000 A 
ATOM     26  C   UNL     1       1.134   8.435  21.156  0.00  0.00    +0.000 A 
ATOM     27  C   UNL     1       0.594   9.021  22.306  0.00  0.00    +0.000 A 
ATOM     28  C   UNL     1      -0.025  10.279  22.254  0.00  0.00    +0.000 A 
ATOM     29  C   UNL     1      -0.058  10.985  21.055  0.00  0.00    +0.000 A 
ATOM     30  N   UNL     1      -0.689  12.228  20.994  0.00  0.00    +0.000 N 
ATOM     31  H   UNL     1      -1.203  12.598  21.782  0.00  0.00    +0.000 HD
ENDBRANCH  18  26
ENDBRANCH  17  18
ENDBRANCH   1  17
TORSDOF 4
ENDMDL
MODEL 9
REMARK VINA RESULT:      -8.9      1.320      1.937
REMARK  Name = 
REMARK  4 active torsions:
REMARK  status: ('A' for Active; 'I' for Inactive)
REMARK    1  A    between atoms: C_7  and  N_8
REMARK    2  A    between atoms: N_8  and  C_9
REMARK    3  A    between atoms: C_9  and  C_10
REMARK    4  A    between atoms: C_14  and  C_15
REMARK                            x       y       z     vdW  Elec       q    Type
REMARK                         _______ _______ _______ _____ _____    ______ ____
ROOT
ATOM      1  C   UNL     1       1.640   3.710  19.768  0.00  0.00    +0.000 A 
ATOM      2  C   UNL     1       0.787   2.620  19.762  0.00  0.00    +0.000 A 
ATOM      3  N   UNL     1       1.273   1.751  18.841  0.00  0.00    +0.000 N 
ATOM      4  N   UNL     1       2.394   2.171  18.253  0.00  0.00    +0.000 NA
ATOM      5  C   UNL     1       2.627   3.389  18.772  0.00  0.00    +0.000 A 
ATOM      6  H   UNL     1       0.891   0.852  18.563  0.00  0.00    +0.000 HD
ENDROOT
BRANCH   5   7
ATOM      7  C   UNL     1       3.763   4.175  18.272  0.00  0.00    +0.000 A 
ATOM      8  C   UNL     1       3.663   4.856  17.045  0.00  0.00    +0.000 A 
ATOM      9  C   UNL     1       4.699   5.677  16.588  0.00  0.00    +0.000 A 
ATOM     10  C   UNL     1       5.854   5.821  17.350  0.00  0.00    +0.000 A 
ATOM     11  C   UNL     1       5.960   5.159  18.575  0.00  0.00    +0.000 A 
ATOM     12  C   UNL     1       4.929   4.338  19.027  0.00  0.00    +0.000 A 
ATOM     13  O   UNL     1       7.047   5.276  19.404  0.00  0.00    +0.000 OA
ATOM     14  C   UNL     1       7.821   6.433  19.071  0.00  0.00    +0.000 C 
ATOM     15  C   UNL     1       8.060   6.500  17.572  0.00  0.00    +0.000 C 
ATOM     16  O   UNL     1       6.827   6.653  16.860  0.00  0.00    +0.000 OA
ENDBRANCH   5   7
BRANCH   1  17
ATOM     17  C   UNL     1       1.531   4.934  20.634  0.00  0.00    +0.000 C 
BRANCH  17  18
ATOM     18  N   UNL     1       2.487   5.995  20.332  0.00  0.00    +0.000 N 
ATOM     19  H   UNL     1       3.361   5.644  19.952  0.00  0.00    +0.000 HD
BRANCH  18  26
ATOM     20  O   UNL     1      -0.376  12.861  18.705  0.00  0.00    +0.000 OA
ATOM     21  C   UNL     1      -0.030  11.751  19.103  0.00  0.00    +0.000 C 
ATOM     22  C   UNL     1      -0.479  11.162  20.439  0.00  0.00    +0.000 C 
ATOM     23  O   UNL     1       0.275  10.114  21.027  0.00  0.00    +0.000 OA
ATOM     24  C   UNL     1       0.924   9.317  20.124  0.00  0.00    +0.000 A 
ATOM     25  C   UNL     1       1.408   8.102  20.607  0.00  0.00    +0.000 A 
ATOM     26  C   UNL     1       2.121   7.218  19.785  0.00  0.00    +0.000 A 
ATOM     27  C   UNL     1       2.300   7.572  18.444  0.00  0.00    +0.000 A 
ATOM     28  C   UNL     1       1.847   8.808  17.957  0.00  0.00    +0.000 A 
ATOM     29  C   UNL     1       1.159   9.675  18.800  0.00  0.00    +0.000 A 
ATOM     30  N   UNL     1       0.723  10.913  18.326  0.00  0.00    +0.000 N 
ATOM     31  H   UNL     1       0.969  11.239  17.400  0.00  0.00    +0.000 HD
ENDBRANCH  18  26
ENDBRANCH  17  18
ENDBRANCH   1  17
TORSDOF 4
ENDMDL
