MODEL 1
REMARK VINA RESULT:      -9.1      0.000      0.000
REMARK  Name = 
REMARK  6 active torsions:
REMARK  status: ('A' for Active; 'I' for Inactive)
REMARK    1  A    between atoms: C_1  and  C_2
REMARK    2  A    between atoms: C_7  and  C_8
REMARK    3  A    between atoms: N_10  and  C_11
REMARK    4  A    between atoms: N_10  and  C_19
REMARK    5  A    between atoms: C_11  and  C_12
REMARK    6  A    between atoms: C_26  and  C_27
REMARK                            x       y       z     vdW  Elec       q    Type
REMARK                         _______ _______ _______ _____ _____    ______ ____
ROOT
ATOM      1  C   UNL     1       2.594   7.603  18.331  0.00  0.00    +0.000 C 
ATOM      2  O   UNL     1       3.230   8.366  17.599  0.00  0.00    +0.000 OA
ATOM      3  N   UNL     1       2.825   6.209  18.215  0.00  0.00    +0.000 N 
ENDROOT
BRANCH   1  10
ATOM      4  C   UNL     1      -1.274  12.124  22.785  0.00  0.00    +0.000 C 
ATOM      5  C   UNL     1      -0.542  10.914  22.276  0.00  0.00    +0.000 A 
ATOM      6  C   UNL     1       0.056  10.001  23.156  0.00  0.00    +0.000 A 
ATOM      7  C   UNL     1       0.810   8.911  22.688  0.00  0.00    +0.000 A 
ATOM      8  C   UNL     1       0.958   8.796  21.306  0.00  0.00    +0.000 A 
ATOM      9  O   UNL     1       1.749   7.897  20.645  0.00  0.00    +0.000 OA
ATOM     10  C   UNL     1       1.667   8.181  19.303  0.00  0.00    +0.000 A 
ATOM     11  C   UNL     1       0.742   9.210  19.107  0.00  0.00    +0.000 A 
ATOM     12  C   UNL     1       0.327   9.847  17.829  0.00  0.00    +0.000 C 
ATOM     13  C   UNL     1       0.341   9.646  20.402  0.00  0.00    +0.000 A 
ATOM     14  C   UNL     1      -0.443  10.710  20.889  0.00  0.00    +0.000 A 
ENDBRANCH   1  10
BRANCH   3  15
ATOM     15  C   UNL     1       1.951   5.158  18.794  0.00  0.00    +0.000 C 
ATOM     16  C   UNL     1       2.366   4.652  20.186  0.00  0.00    +0.000 C 
ATOM     17  C   UNL     1       3.237   3.415  20.044  0.00  0.00    +0.000 C 
ATOM     18  S   UNL     1       2.713   2.608  18.551  0.00  0.00    +0.000 S 
ATOM     19  O   UNL     1       3.870   2.407  17.704  0.00  0.00    +0.000 OA
ATOM     20  O   UNL     1       1.823   1.522  18.903  0.00  0.00    +0.000 OA
ATOM     21  C   UNL     1       1.735   3.941  17.887  0.00  0.00    +0.000 C 
ENDBRANCH   3  15
BRANCH   3  22
ATOM     22  C   UNL     1       3.916   5.831  17.292  0.00  0.00    +0.000 C 
BRANCH  22  23
ATOM     23  C   UNL     1       5.309   6.032  17.848  0.00  0.00    +0.000 A 
ATOM     24  C   UNL     1       5.773   5.334  18.974  0.00  0.00    +0.000 A 
ATOM     25  C   UNL     1       7.075   5.523  19.449  0.00  0.00    +0.000 A 
ATOM     26  C   UNL     1       7.921   6.432  18.821  0.00  0.00    +0.000 A 
ATOM     27  C   UNL     1       7.447   7.171  17.744  0.00  0.00    +0.000 A 
ATOM     28  F   UNL     1       8.253   8.060  17.151  0.00  0.00    +0.000 F 
ATOM     29  C   UNL     1       6.153   6.991  17.265  0.00  0.00    +0.000 A 
ENDBRANCH  22  23
ENDBRANCH   3  22
TORSDOF 4
ENDMDL
MODEL 2
REMARK VINA RESULT:      -8.8      0.837      1.223
REMARK  Name = 
REMARK  6 active torsions:
REMARK  status: ('A' for Active; 'I' for Inactive)
REMARK    1  A    between atoms: C_1  and  C_2
REMARK    2  A    between atoms: C_7  and  C_8
REMARK    3  A    between atoms: N_10  and  C_11
REMARK    4  A    between atoms: N_10  and  C_19
REMARK    5  A    between atoms: C_11  and  C_12
REMARK    6  A    between atoms: C_26  and  C_27
REMARK                            x       y       z     vdW  Elec       q    Type
REMARK                         _______ _______ _______ _____ _____    ______ ____
ROOT
ATOM      1  C   UNL     1       2.696   7.492  18.276  0.00  0.00    +0.000 C 
ATOM      2  O   UNL     1       3.309   8.230  17.500  0.00  0.00    +0.000 OA
ATOM      3  N   UNL     1       2.945   6.097  18.220  0.00  0.00    +0.000 N 
ENDROOT
BRANCH   1  10
ATOM      4  C   UNL     1      -1.093  12.143  22.664  0.00  0.00    +0.000 C 
ATOM      5  C   UNL     1      -0.389  10.910  22.170  0.00  0.00    +0.000 A 
ATOM      6  C   UNL     1       0.177   9.988  23.061  0.00  0.00    +0.000 A 
ATOM      7  C   UNL     1       0.907   8.875  22.607  0.00  0.00    +0.000 A 
ATOM      8  C   UNL     1       1.065   8.747  21.228  0.00  0.00    +0.000 A 
ATOM      9  O   UNL     1       1.837   7.823  20.580  0.00  0.00    +0.000 OA
ATOM     10  C   UNL     1       1.775   8.101  19.235  0.00  0.00    +0.000 A 
ATOM     11  C   UNL     1       0.879   9.151  19.025  0.00  0.00    +0.000 A 
ATOM     12  C   UNL     1       0.492   9.790  17.738  0.00  0.00    +0.000 C 
ATOM     13  C   UNL     1       0.478   9.606  20.313  0.00  0.00    +0.000 A 
ATOM     14  C   UNL     1      -0.283  10.694  20.785  0.00  0.00    +0.000 A 
ENDBRANCH   1  10
BRANCH   3  15
ATOM     15  C   UNL     1       2.096   5.061  18.860  0.00  0.00    +0.000 C 
ATOM     16  C   UNL     1       2.601   4.544  20.217  0.00  0.00    +0.000 C 
ATOM     17  C   UNL     1       3.436   3.292  20.011  0.00  0.00    +0.000 C 
ATOM     18  S   UNL     1       2.789   2.498  18.560  0.00  0.00    +0.000 S 
ATOM     19  O   UNL     1       3.878   2.277  17.630  0.00  0.00    +0.000 OA
ATOM     20  O   UNL     1       1.907   1.428  18.975  0.00  0.00    +0.000 OA
ATOM     21  C   UNL     1       1.791   3.851  17.970  0.00  0.00    +0.000 C 
ENDBRANCH   3  15
BRANCH   3  22
ATOM     22  C   UNL     1       4.027   5.693  17.298  0.00  0.00    +0.000 C 
BRANCH  22  23
ATOM     23  C   UNL     1       5.419   6.069  17.756  0.00  0.00    +0.000 A 
ATOM     24  C   UNL     1       6.215   6.988  17.055  0.00  0.00    +0.000 A 
ATOM     25  C   UNL     1       7.488   7.335  17.517  0.00  0.00    +0.000 A 
ATOM     26  C   UNL     1       7.993   6.748  18.674  0.00  0.00    +0.000 A 
ATOM     27  C   UNL     1       7.235   5.794  19.340  0.00  0.00    +0.000 A 
ATOM     28  F   UNL     1       7.726   5.214  20.442  0.00  0.00    +0.000 F 
ATOM     29  C   UNL     1       5.967   5.440  18.886  0.00  0.00    +0.000 A 
ENDBRANCH  22  23
ENDBRANCH   3  22
TORSDOF 4
ENDMDL
MODEL 3
REMARK VINA RESULT:      -7.2      1.900      2.233
REMARK  Name = 
REMARK  6 active torsions:
REMARK  status: ('A' for Active; 'I' for Inactive)
REMARK    1  A    between atoms: C_1  and  C_2
REMARK    2  A    between atoms: C_7  and  C_8
REMARK    3  A    between atoms: N_10  and  C_11
REMARK    4  A    between atoms: N_10  and  C_19
REMARK    5  A    between atoms: C_11  and  C_12
REMARK    6  A    between atoms: C_26  and  C_27
REMARK                            x       y       z     vdW  Elec       q    Type
REMARK                         _______ _______ _______ _____ _____    ______ ____
ROOT
ATOM      1  C   UNL     1       2.948   6.953  19.492  0.00  0.00    +0.000 C 
ATOM      2  O   UNL     1       4.065   7.453  19.335  0.00  0.00    +0.000 OA
ATOM      3  N   UNL     1       2.791   5.564  19.255  0.00  0.00    +0.000 N 
ENDROOT
BRANCH   1  10
ATOM      4  C   UNL     1      -1.324  12.663  21.585  0.00  0.00    +0.000 C 
ATOM      5  C   UNL     1      -0.716  11.290  21.523  0.00  0.00    +0.000 A 
ATOM      6  C   UNL     1      -0.699  10.450  22.645  0.00  0.00    +0.000 A 
ATOM      7  C   UNL     1      -0.061   9.197  22.619  0.00  0.00    +0.000 A 
ATOM      8  C   UNL     1       0.578   8.842  21.432  0.00  0.00    +0.000 A 
ATOM      9  O   UNL     1       1.361   7.739  21.229  0.00  0.00    +0.000 OA
ATOM     10  C   UNL     1       1.858   7.814  19.950  0.00  0.00    +0.000 A 
ATOM     11  C   UNL     1       1.308   8.926  19.308  0.00  0.00    +0.000 A 
ATOM     12  C   UNL     1       1.552   9.405  17.921  0.00  0.00    +0.000 C 
ATOM     13  C   UNL     1       0.539   9.619  20.286  0.00  0.00    +0.000 A 
ATOM     14  C   UNL     1      -0.138  10.854  20.319  0.00  0.00    +0.000 A 
ENDBRANCH   1  10
BRANCH   3  15
ATOM     15  C   UNL     1       1.485   4.875  19.110  0.00  0.00    +0.000 C 
ATOM     16  C   UNL     1       0.960   4.188  20.381  0.00  0.00    +0.000 C 
ATOM     17  C   UNL     1       1.380   2.728  20.387  0.00  0.00    +0.000 C 
ATOM     18  S   UNL     1       1.489   2.237  18.683  0.00  0.00    +0.000 S 
ATOM     19  O   UNL     1       2.802   1.670  18.449  0.00  0.00    +0.000 OA
ATOM     20  O   UNL     1       0.276   1.532  18.329  0.00  0.00    +0.000 OA
ATOM     21  C   UNL     1       1.425   3.863  17.959  0.00  0.00    +0.000 C 
ENDBRANCH   3  15
BRANCH   3  22
ATOM     22  C   UNL     1       4.043   4.836  18.957  0.00  0.00    +0.000 C 
BRANCH  22  23
ATOM     23  C   UNL     1       4.579   5.051  17.559  0.00  0.00    +0.000 A 
ATOM     24  C   UNL     1       4.542   6.305  16.928  0.00  0.00    +0.000 A 
ATOM     25  C   UNL     1       5.069   6.478  15.644  0.00  0.00    +0.000 A 
ATOM     26  C   UNL     1       5.615   5.394  14.963  0.00  0.00    +0.000 A 
ATOM     27  C   UNL     1       5.600   4.139  15.557  0.00  0.00    +0.000 A 
ATOM     28  F   UNL     1       6.107   3.091  14.897  0.00  0.00    +0.000 F 
ATOM     29  C   UNL     1       5.076   3.956  16.834  0.00  0.00    +0.000 A 
ENDBRANCH  22  23
ENDBRANCH   3  22
TORSDOF 4
ENDMDL
MODEL 4
REMARK VINA RESULT:      -7.1      3.733      7.891
REMARK  Name = 
REMARK  6 active torsions:
REMARK  status: ('A' for Active; 'I' for Inactive)
REMARK    1  A    between atoms: C_1  and  C_2
REMARK    2  A    between atoms: C_7  and  C_8
REMARK    3  A    between atoms: N_10  and  C_11
REMARK    4  A    between atoms: N_10  and  C_19
REMARK    5  A    between atoms: C_11  and  C_12
REMARK    6  A    between atoms: C_26  and  C_27
REMARK                            x       y       z     vdW  Elec       q    Type
REMARK                         _______ _______ _______ _____ _____    ______ ____
ROOT
ATOM      1  C   UNL     1       2.066   8.460  18.409  0.00  0.00    +0.000 C 
ATOM      2  O   UNL     1       2.284   8.928  17.288  0.00  0.00    +0.000 OA
ATOM      3  N   UNL     1       1.372   9.262  19.351  0.00  0.00    +0.000 N 
ENDROOT
BRANCH   1  10
ATOM      4  C   UNL     1       3.831   1.250  18.054  0.00  0.00    +0.000 C 
ATOM      5  C   UNL     1       3.328   2.567  18.576  0.00  0.00    +0.000 A 
ATOM      6  C   UNL     1       2.349   2.628  19.577  0.00  0.00    +0.000 A 
ATOM      7  C   UNL     1       1.815   3.853  20.014  0.00  0.00    +0.000 A 
ATOM      8  C   UNL     1       2.286   5.004  19.384  0.00  0.00    +0.000 A 
ATOM      9  O   UNL     1       1.817   6.276  19.559  0.00  0.00    +0.000 OA
ATOM     10  C   UNL     1       2.501   7.093  18.691  0.00  0.00    +0.000 A 
ATOM     11  C   UNL     1       3.477   6.345  18.029  0.00  0.00    +0.000 A 
ATOM     12  C   UNL     1       4.453   6.802  17.003  0.00  0.00    +0.000 C 
ATOM     13  C   UNL     1       3.290   4.991  18.429  0.00  0.00    +0.000 A 
ATOM     14  C   UNL     1       3.841   3.757  18.032  0.00  0.00    +0.000 A 
ENDBRANCH   1  10
BRANCH   3  15
ATOM     15  C   UNL     1       1.291   8.976  20.806  0.00  0.00    +0.000 C 
ATOM     16  C   UNL     1       0.084   8.128  21.242  0.00  0.00    +0.000 C 
ATOM     17  C   UNL     1      -1.054   9.037  21.671  0.00  0.00    +0.000 C 
ATOM     18  S   UNL     1      -0.297  10.512  22.308  0.00  0.00    +0.000 S 
ATOM     19  O   UNL     1      -0.855  11.655  21.614  0.00  0.00    +0.000 OA
ATOM     20  O   UNL     1      -0.272  10.430  23.753  0.00  0.00    +0.000 OA
ATOM     21  C   UNL     1       1.352  10.218  21.702  0.00  0.00    +0.000 C 
ENDBRANCH   3  15
BRANCH   3  22
ATOM     22  C   UNL     1       0.873  10.551  18.827  0.00  0.00    +0.000 C 
BRANCH  22  23
ATOM     23  C   UNL     1      -0.570  10.528  18.372  0.00  0.00    +0.000 A 
ATOM     24  C   UNL     1      -1.035   9.623  17.405  0.00  0.00    +0.000 A 
ATOM     25  C   UNL     1      -2.380   9.610  17.022  0.00  0.00    +0.000 A 
ATOM     26  C   UNL     1      -3.273  10.520  17.582  0.00  0.00    +0.000 A 
ATOM     27  C   UNL     1      -2.807  11.457  18.494  0.00  0.00    +0.000 A 
ATOM     28  F   UNL     1      -3.659  12.345  19.020  0.00  0.00    +0.000 F 
ATOM     29  C   UNL     1      -1.469  11.480  18.880  0.00  0.00    +0.000 A 
ENDBRANCH  22  23
ENDBRANCH   3  22
TORSDOF 4
ENDMDL
MODEL 5
REMARK VINA RESULT:      -7.1      1.392      1.821
REMARK  Name = 
REMARK  6 active torsions:
REMARK  status: ('A' for Active; 'I' for Inactive)
REMARK    1  A    between atoms: C_1  and  C_2
REMARK    2  A    between atoms: C_7  and  C_8
REMARK    3  A    between atoms: N_10  and  C_11
REMARK    4  A    between atoms: N_10  and  C_19
REMARK    5  A    between atoms: C_11  and  C_12
REMARK    6  A    between atoms: C_26  and  C_27
REMARK                            x       y       z     vdW  Elec       q    Type
REMARK                         _______ _______ _______ _____ _____    ______ ____
ROOT
ATOM      1  C   UNL     1       3.032   6.789  19.522  0.00  0.00    +0.000 C 
ATOM      2  O   UNL     1       4.143   7.256  19.257  0.00  0.00    +0.000 OA
ATOM      3  N   UNL     1       2.873   5.381  19.515  0.00  0.00    +0.000 N 
ENDROOT
BRANCH   1  10
ATOM      4  C   UNL     1      -1.124  12.760  21.047  0.00  0.00    +0.000 C 
ATOM      5  C   UNL     1      -0.570  11.363  21.093  0.00  0.00    +0.000 A 
ATOM      6  C   UNL     1      -0.661  10.581  22.253  0.00  0.00    +0.000 A 
ATOM      7  C   UNL     1      -0.075   9.305  22.330  0.00  0.00    +0.000 A 
ATOM      8  C   UNL     1       0.623   8.865  21.207  0.00  0.00    +0.000 A 
ATOM      9  O   UNL     1       1.371   7.723  21.110  0.00  0.00    +0.000 OA
ATOM     10  C   UNL     1       1.951   7.713  19.864  0.00  0.00    +0.000 A 
ATOM     11  C   UNL     1       1.491   8.811  19.134  0.00  0.00    +0.000 A 
ATOM     12  C   UNL     1       1.843   9.209  17.744  0.00  0.00    +0.000 C 
ATOM     13  C   UNL     1       0.691   9.583  20.024  0.00  0.00    +0.000 A 
ATOM     14  C   UNL     1       0.065  10.843  19.952  0.00  0.00    +0.000 A 
ENDBRANCH   1  10
BRANCH   3  15
ATOM     15  C   UNL     1       1.565   4.678  19.518  0.00  0.00    +0.000 C 
ATOM     16  C   UNL     1       1.277   3.831  20.769  0.00  0.00    +0.000 C 
ATOM     17  C   UNL     1       1.700   2.393  20.524  0.00  0.00    +0.000 C 
ATOM     18  S   UNL     1       1.510   2.111  18.781  0.00  0.00    +0.000 S 
ATOM     19  O   UNL     1       2.764   1.611  18.254  0.00  0.00    +0.000 OA
ATOM     20  O   UNL     1       0.257   1.420  18.560  0.00  0.00    +0.000 OA
ATOM     21  C   UNL     1       1.309   3.809  18.281  0.00  0.00    +0.000 C 
ENDBRANCH   3  15
BRANCH   3  22
ATOM     22  C   UNL     1       4.119   4.613  19.306  0.00  0.00    +0.000 C 
BRANCH  22  23
ATOM     23  C   UNL     1       4.799   4.866  17.978  0.00  0.00    +0.000 A 
ATOM     24  C   UNL     1       4.308   4.339  16.773  0.00  0.00    +0.000 A 
ATOM     25  C   UNL     1       4.944   4.611  15.558  0.00  0.00    +0.000 A 
ATOM     26  C   UNL     1       6.095   5.393  15.535  0.00  0.00    +0.000 A 
ATOM     27  C   UNL     1       6.621   5.868  16.730  0.00  0.00    +0.000 A 
ATOM     28  F   UNL     1       7.738   6.604  16.711  0.00  0.00    +0.000 F 
ATOM     29  C   UNL     1       5.995   5.600  17.944  0.00  0.00    +0.000 A 
ENDBRANCH  22  23
ENDBRANCH   3  22
TORSDOF 4
ENDMDL
MODEL 6
REMARK VINA RESULT:      -7.1      5.381      9.886
REMARK  Name = 
REMARK  6 active torsions:
REMARK  status: ('A' for Active; 'I' for Inactive)
REMARK    1  A    between atoms: C_1  and  C_2
REMARK    2  A    between atoms: C_7  and  C_8
REMARK    3  A    between atoms: N_10  and  C_11
REMARK    4  A    between atoms: N_10  and  C_19
REMARK    5  A    between atoms: C_11  and  C_12
REMARK    6  A    between atoms: C_26  and  C_27
REMARK                            x       y       z     vdW  Elec       q    Type
REMARK                         _______ _______ _______ _____ _____    ______ ____
ROOT
ATOM      1  C   UNL     1       0.270  12.650  21.356  0.00  0.00    +0.000 C 
ATOM      2  O   UNL     1       1.246  13.346  21.651  0.00  0.00    +0.000 OA
ATOM      3  N   UNL     1      -1.024  13.129  21.681  0.00  0.00    +0.000 N 
ENDROOT
BRANCH   1  10
ATOM      4  C   UNL     1       2.859   6.096  18.992  0.00  0.00    +0.000 C 
ATOM      5  C   UNL     1       2.256   7.473  18.986  0.00  0.00    +0.000 A 
ATOM      6  C   UNL     1       2.332   8.296  17.854  0.00  0.00    +0.000 A 
ATOM      7  C   UNL     1       1.843   9.614  17.865  0.00  0.00    +0.000 A 
ATOM      8  C   UNL     1       1.302  10.073  19.066  0.00  0.00    +0.000 A 
ATOM      9  O   UNL     1       0.889  11.349  19.336  0.00  0.00    +0.000 OA
ATOM     10  C   UNL     1       0.502  11.388  20.654  0.00  0.00    +0.000 A 
ATOM     11  C   UNL     1       0.582  10.102  21.195  0.00  0.00    +0.000 A 
ATOM     12  C   UNL     1       0.265   9.662  22.580  0.00  0.00    +0.000 C 
ATOM     13  C   UNL     1       1.159   9.276  20.190  0.00  0.00    +0.000 A 
ATOM     14  C   UNL     1       1.621   7.945  20.147  0.00  0.00    +0.000 A 
ENDBRANCH   1  10
BRANCH   3  15
ATOM     15  C   UNL     1      -2.257  12.304  21.668  0.00  0.00    +0.000 C 
ATOM     16  C   UNL     1      -3.258  12.635  20.548  0.00  0.00    +0.000 C 
ATOM     17  C   UNL     1      -4.293  13.621  21.059  0.00  0.00    +0.000 C 
ATOM     18  S   UNL     1      -4.460  13.308  22.799  0.00  0.00    +0.000 S 
ATOM     19  O   UNL     1      -4.253  14.551  23.515  0.00  0.00    +0.000 OA
ATOM     20  O   UNL     1      -5.636  12.491  23.009  0.00  0.00    +0.000 OA
ATOM     21  C   UNL     1      -3.019  12.280  22.999  0.00  0.00    +0.000 C 
ENDBRANCH   3  15
BRANCH   3  22
ATOM     22  C   UNL     1      -1.061  14.497  22.240  0.00  0.00    +0.000 C 
BRANCH  22  23
ATOM     23  C   UNL     1      -1.351  15.583  21.228  0.00  0.00    +0.000 A 
ATOM     24  C   UNL     1      -2.248  16.631  21.491  0.00  0.00    +0.000 A 
ATOM     25  C   UNL     1      -2.477  17.634  20.544  0.00  0.00    +0.000 A 
ATOM     26  C   UNL     1      -1.833  17.589  19.311  0.00  0.00    +0.000 A 
ATOM     27  C   UNL     1      -0.990  16.524  19.022  0.00  0.00    +0.000 A 
ATOM     28  F   UNL     1      -0.384  16.468  17.829  0.00  0.00    +0.000 F 
ATOM     29  C   UNL     1      -0.758  15.519  19.957  0.00  0.00    +0.000 A 
ENDBRANCH  22  23
ENDBRANCH   3  22
TORSDOF 4
ENDMDL
MODEL 7
REMARK VINA RESULT:      -7.0      1.961      2.426
REMARK  Name = 
REMARK  6 active torsions:
REMARK  status: ('A' for Active; 'I' for Inactive)
REMARK    1  A    between atoms: C_1  and  C_2
REMARK    2  A    between atoms: C_7  and  C_8
REMARK    3  A    between atoms: N_10  and  C_11
REMARK    4  A    between atoms: N_10  and  C_19
REMARK    5  A    between atoms: C_11  and  C_12
REMARK    6  A    between atoms: C_26  and  C_27
REMARK                            x       y       z     vdW  Elec       q    Type
REMARK                         _______ _______ _______ _____ _____    ______ ____
ROOT
ATOM      1  C   UNL     1       3.755   6.318  19.329  0.00  0.00    +0.000 C 
ATOM      2  O   UNL     1       4.742   6.820  18.783  0.00  0.00    +0.000 OA
ATOM      3  N   UNL     1       3.816   4.954  19.710  0.00  0.00    +0.000 N 
ENDROOT
BRANCH   1  10
ATOM      4  C   UNL     1      -0.911  12.002  20.407  0.00  0.00    +0.000 C 
ATOM      5  C   UNL     1      -0.253  10.657  20.540  0.00  0.00    +0.000 A 
ATOM      6  C   UNL     1      -0.332   9.922  21.732  0.00  0.00    +0.000 A 
ATOM      7  C   UNL     1       0.347   8.702  21.893  0.00  0.00    +0.000 A 
ATOM      8  C   UNL     1       1.124   8.269  20.819  0.00  0.00    +0.000 A 
ATOM      9  O   UNL     1       1.961   7.187  20.805  0.00  0.00    +0.000 OA
ATOM     10  C   UNL     1       2.593   7.168  19.585  0.00  0.00    +0.000 A 
ATOM     11  C   UNL     1       2.080   8.192  18.786  0.00  0.00    +0.000 A 
ATOM     12  C   UNL     1       2.459   8.555  17.394  0.00  0.00    +0.000 C 
ATOM     13  C   UNL     1       1.186   8.937  19.607  0.00  0.00    +0.000 A 
ATOM     14  C   UNL     1       0.468  10.139  19.451  0.00  0.00    +0.000 A 
ENDBRANCH   1  10
BRANCH   3  15
ATOM     15  C   UNL     1       2.642   4.132  20.097  0.00  0.00    +0.000 C 
ATOM     16  C   UNL     1       2.949   2.659  20.416  0.00  0.00    +0.000 C 
ATOM     17  C   UNL     1       2.745   1.811  19.173  0.00  0.00    +0.000 C 
ATOM     18  S   UNL     1       1.486   2.623  18.219  0.00  0.00    +0.000 S 
ATOM     19  O   UNL     1       1.990   2.842  16.879  0.00  0.00    +0.000 OA
ATOM     20  O   UNL     1       0.223   1.958  18.463  0.00  0.00    +0.000 OA
ATOM     21  C   UNL     1       1.481   4.173  19.096  0.00  0.00    +0.000 C 
ENDBRANCH   3  15
BRANCH   3  22
ATOM     22  C   UNL     1       5.133   4.309  19.515  0.00  0.00    +0.000 C 
BRANCH  22  23
ATOM     23  C   UNL     1       5.675   4.400  18.105  0.00  0.00    +0.000 A 
ATOM     24  C   UNL     1       7.007   4.751  17.837  0.00  0.00    +0.000 A 
ATOM     25  C   UNL     1       7.486   4.801  16.524  0.00  0.00    +0.000 A 
ATOM     26  C   UNL     1       6.631   4.528  15.460  0.00  0.00    +0.000 A 
ATOM     27  C   UNL     1       5.297   4.239  15.715  0.00  0.00    +0.000 A 
ATOM     28  F   UNL     1       4.469   3.994  14.692  0.00  0.00    +0.000 F 
ATOM     29  C   UNL     1       4.811   4.188  17.019  0.00  0.00    +0.000 A 
ENDBRANCH  22  23
ENDBRANCH   3  22
TORSDOF 4
ENDMDL
MODEL 8
REMARK VINA RESULT:      -7.0      1.671      2.189
REMARK  Name = 
REMARK  6 active torsions:
REMARK  status: ('A' for Active; 'I' for Inactive)
REMARK    1  A    between atoms: C_1  and  C_2
REMARK    2  A    between atoms: C_7  and  C_8
REMARK    3  A    between atoms: N_10  and  C_11
REMARK    4  A    between atoms: N_10  and  C_19
REMARK    5  A    between atoms: C_11  and  C_12
REMARK    6  A    between atoms: C_26  and  C_27
REMARK                            x       y       z     vdW  Elec       q    Type
REMARK                         _______ _______ _______ _____ _____    ______ ____
ROOT
ATOM      1  C   UNL     1       3.602   6.562  19.133  0.00  0.00    +0.000 C 
ATOM      2  O   UNL     1       4.469   7.091  18.432  0.00  0.00    +0.000 OA
ATOM      3  N   UNL     1       3.787   5.214  19.532  0.00  0.00    +0.000 N 
ENDROOT
BRANCH   1  10
ATOM      4  C   UNL     1      -1.062  12.051  20.964  0.00  0.00    +0.000 C 
ATOM      5  C   UNL     1      -0.367  10.718  20.958  0.00  0.00    +0.000 A 
ATOM      6  C   UNL     1      -0.319   9.916  22.106  0.00  0.00    +0.000 A 
ATOM      7  C   UNL     1       0.397   8.707  22.133  0.00  0.00    +0.000 A 
ATOM      8  C   UNL     1       1.080   8.356  20.969  0.00  0.00    +0.000 A 
ATOM      9  O   UNL     1       1.935   7.299  20.816  0.00  0.00    +0.000 OA
ATOM     10  C   UNL     1       2.451   7.365  19.544  0.00  0.00    +0.000 A 
ATOM     11  C   UNL     1       1.845   8.419  18.856  0.00  0.00    +0.000 A 
ATOM     12  C   UNL     1       2.085   8.869  17.459  0.00  0.00    +0.000 C 
ATOM     13  C   UNL     1       1.015   9.092  19.797  0.00  0.00    +0.000 A 
ATOM     14  C   UNL     1       0.261  10.282  19.779  0.00  0.00    +0.000 A 
ENDBRANCH   1  10
BRANCH   3  15
ATOM     15  C   UNL     1       2.727   4.351  20.111  0.00  0.00    +0.000 C 
ATOM     16  C   UNL     1       3.170   2.925  20.481  0.00  0.00    +0.000 C 
ATOM     17  C   UNL     1       2.877   1.981  19.327  0.00  0.00    +0.000 C 
ATOM     18  S   UNL     1       1.460   2.647  18.489  0.00  0.00    +0.000 S 
ATOM     19  O   UNL     1       1.784   2.802  17.086  0.00  0.00    +0.000 OA
ATOM     20  O   UNL     1       0.285   1.925  18.928  0.00  0.00    +0.000 OA
ATOM     21  C   UNL     1       1.455   4.252  19.262  0.00  0.00    +0.000 C 
ENDBRANCH   3  15
BRANCH   3  22
ATOM     22  C   UNL     1       5.089   4.624  19.153  0.00  0.00    +0.000 C 
BRANCH  22  23
ATOM     23  C   UNL     1       5.340   4.557  17.663  0.00  0.00    +0.000 A 
ATOM     24  C   UNL     1       4.374   4.084  16.761  0.00  0.00    +0.000 A 
ATOM     25  C   UNL     1       4.626   4.058  15.386  0.00  0.00    +0.000 A 
ATOM     26  C   UNL     1       5.859   4.480  14.896  0.00  0.00    +0.000 A 
ATOM     27  C   UNL     1       6.841   4.892  15.787  0.00  0.00    +0.000 A 
ATOM     28  F   UNL     1       8.034   5.280  15.319  0.00  0.00    +0.000 F 
ATOM     29  C   UNL     1       6.600   4.920  17.158  0.00  0.00    +0.000 A 
ENDBRANCH  22  23
ENDBRANCH   3  22
TORSDOF 4
ENDMDL
MODEL 9
REMARK VINA RESULT:      -7.0      2.904      7.366
REMARK  Name = 
REMARK  6 active torsions:
REMARK  status: ('A' for Active; 'I' for Inactive)
REMARK    1  A    between atoms: C_1  and  C_2
REMARK    2  A    between atoms: C_7  and  C_8
REMARK    3  A    between atoms: N_10  and  C_11
REMARK    4  A    between atoms: N_10  and  C_19
REMARK    5  A    between atoms: C_11  and  C_12
REMARK    6  A    between atoms: C_26  and  C_27
REMARK                            x       y       z     vdW  Elec       q    Type
REMARK                         _______ _______ _______ _____ _____    ______ ____
ROOT
ATOM      1  C   UNL     1       5.120   5.250  18.459  0.00  0.00    +0.000 C 
ATOM      2  O   UNL     1       5.751   5.895  19.301  0.00  0.00    +0.000 OA
ATOM      3  N   UNL     1       3.781   4.888  18.751  0.00  0.00    +0.000 N 
ENDROOT
BRANCH   1  10
ATOM      4  C   UNL     1       7.829   5.299  11.538  0.00  0.00    +0.000 C 
ATOM      5  C   UNL     1       7.214   4.814  12.822  0.00  0.00    +0.000 A 
ATOM      6  C   UNL     1       6.371   3.695  12.848  0.00  0.00    +0.000 A 
ATOM      7  C   UNL     1       5.728   3.283  14.029  0.00  0.00    +0.000 A 
ATOM      8  C   UNL     1       5.948   4.057  15.167  0.00  0.00    +0.000 A 
ATOM      9  O   UNL     1       5.329   3.916  16.379  0.00  0.00    +0.000 OA
ATOM     10  C   UNL     1       5.777   4.929  17.192  0.00  0.00    +0.000 A 
ATOM     11  C   UNL     1       6.757   5.660  16.519  0.00  0.00    +0.000 A 
ATOM     12  C   UNL     1       7.522   6.842  17.001  0.00  0.00    +0.000 C 
ATOM     13  C   UNL     1       6.816   5.137  15.196  0.00  0.00    +0.000 A 
ATOM     14  C   UNL     1       7.481   5.512  14.012  0.00  0.00    +0.000 A 
ENDBRANCH   1  10
BRANCH   3  15
ATOM     15  C   UNL     1       2.996   3.880  17.996  0.00  0.00    +0.000 C 
ATOM     16  C   UNL     1       1.543   4.278  17.685  0.00  0.00    +0.000 C 
ATOM     17  C   UNL     1       0.620   3.736  18.764  0.00  0.00    +0.000 C 
ATOM     18  S   UNL     1       1.382   2.250  19.367  0.00  0.00    +0.000 S 
ATOM     19  O   UNL     1       1.513   2.349  20.807  0.00  0.00    +0.000 OA
ATOM     20  O   UNL     1       0.745   1.116  18.733  0.00  0.00    +0.000 OA
ATOM     21  C   UNL     1       2.985   2.482  18.625  0.00  0.00    +0.000 C 
ENDBRANCH   3  15
BRANCH   3  22
ATOM     22  C   UNL     1       3.244   5.443  20.012  0.00  0.00    +0.000 C 
BRANCH  22  23
ATOM     23  C   UNL     1       2.501   6.752  19.857  0.00  0.00    +0.000 A 
ATOM     24  C   UNL     1       1.694   7.279  20.877  0.00  0.00    +0.000 A 
ATOM     25  C   UNL     1       1.038   8.504  20.714  0.00  0.00    +0.000 A 
ATOM     26  C   UNL     1       1.160   9.204  19.517  0.00  0.00    +0.000 A 
ATOM     27  C   UNL     1       1.908   8.659  18.482  0.00  0.00    +0.000 A 
ATOM     28  F   UNL     1       2.010   9.322  17.323  0.00  0.00    +0.000 F 
ATOM     29  C   UNL     1       2.562   7.440  18.634  0.00  0.00    +0.000 A 
ENDBRANCH  22  23
ENDBRANCH   3  22
TORSDOF 4
ENDMDL
