MODEL 1
REMARK VINA RESULT:      -9.7      0.000      0.000
REMARK  Name = 
REMARK  5 active torsions:
REMARK  status: ('A' for Active; 'I' for Inactive)
REMARK    1  A    between atoms: C_7  and  C_8
REMARK    2  A    between atoms: N_10  and  C_11
REMARK    3  A    between atoms: C_11  and  C_12
REMARK    4  A    between atoms: C_12  and  C_13
REMARK    5  A    between atoms: C_12  and  C_19
REMARK                            x       y       z     vdW  Elec       q    Type
REMARK                         _______ _______ _______ _____ _____    ______ ____
ROOT
ATOM      1  C   UNL     1       1.425   9.274  18.317  0.00  0.00    +0.000 C 
ATOM      2  O   UNL     1       2.174   9.579  17.404  0.00  0.00    +0.000 OA
ATOM      3  N   UNL     1       1.649   8.192  19.147  0.00  0.00    +0.000 N 
ATOM      4  H   UNL     1       0.901   7.846  19.733  0.00  0.00    +0.000 HD
ENDROOT
BRANCH   1  11
ATOM      5  O   UNL     1      -5.542  12.648  18.549  0.00  0.00    +0.000 OA
ATOM      6  C   UNL     1      -4.553  11.929  18.431  0.00  0.00    +0.000 C 
ATOM      7  C   UNL     1      -4.617  10.556  17.802  0.00  0.00    +0.000 C 
ATOM      8  C   UNL     1      -3.334  10.225  17.057  0.00  0.00    +0.000 C 
ATOM      9  C   UNL     1      -2.136  10.480  17.929  0.00  0.00    +0.000 A 
ATOM     10  C   UNL     1      -0.948   9.753  17.773  0.00  0.00    +0.000 A 
ATOM     11  C   UNL     1       0.179  10.057  18.554  0.00  0.00    +0.000 A 
ATOM     12  C   UNL     1       0.119  11.114  19.472  0.00  0.00    +0.000 A 
ATOM     13  C   UNL     1      -1.056  11.861  19.607  0.00  0.00    +0.000 A 
ATOM     14  C   UNL     1      -2.177  11.537  18.844  0.00  0.00    +0.000 A 
ATOM     15  N   UNL     1      -3.349  12.286  18.982  0.00  0.00    +0.000 N 
ATOM     16  H   UNL     1      -3.350  13.142  19.519  0.00  0.00    +0.000 HD
ENDBRANCH   1  11
BRANCH   3  17
ATOM     17  C   UNL     1       2.834   7.357  18.968  0.00  0.00    +0.000 C 
BRANCH  17  18
ATOM     18  C   UNL     1       2.580   5.997  18.257  0.00  0.00    +0.000 C 
BRANCH  18  19
ATOM     19  C   UNL     1       3.775   5.583  17.384  0.00  0.00    +0.000 A 
ATOM     20  C   UNL     1       4.026   4.228  17.111  0.00  0.00    +0.000 A 
ATOM     21  C   UNL     1       5.110   3.832  16.332  0.00  0.00    +0.000 A 
ATOM     22  C   UNL     1       5.959   4.792  15.786  0.00  0.00    +0.000 A 
ATOM     23  C   UNL     1       5.721   6.142  16.025  0.00  0.00    +0.000 A 
ATOM     24  C   UNL     1       4.645   6.541  16.830  0.00  0.00    +0.000 A 
ENDBRANCH  18  19
BRANCH  18  25
ATOM     25  C   UNL     1       2.100   4.880  19.206  0.00  0.00    +0.000 A 
ATOM     26  C   UNL     1       1.245   3.844  18.789  0.00  0.00    +0.000 A 
ATOM     27  C   UNL     1       0.845   2.837  19.664  0.00  0.00    +0.000 A 
ATOM     28  C   UNL     1       1.286   2.843  20.980  0.00  0.00    +0.000 A 
ATOM     29  C   UNL     1       2.127   3.862  21.423  0.00  0.00    +0.000 A 
ATOM     30  C   UNL     1       2.538   4.866  20.543  0.00  0.00    +0.000 A 
ENDBRANCH  18  25
ENDBRANCH  17  18
ENDBRANCH   3  17
TORSDOF 5
ENDMDL
MODEL 2
REMARK VINA RESULT:      -9.7      0.038      1.287
REMARK  Name = 
REMARK  5 active torsions:
REMARK  status: ('A' for Active; 'I' for Inactive)
REMARK    1  A    between atoms: C_7  and  C_8
REMARK    2  A    between atoms: N_10  and  C_11
REMARK    3  A    between atoms: C_11  and  C_12
REMARK    4  A    between atoms: C_12  and  C_13
REMARK    5  A    between atoms: C_12  and  C_19
REMARK                            x       y       z     vdW  Elec       q    Type
REMARK                         _______ _______ _______ _____ _____    ______ ____
ROOT
ATOM      1  C   UNL     1       1.423   9.259  18.311  0.00  0.00    +0.000 C 
ATOM      2  O   UNL     1       2.157   9.550  17.382  0.00  0.00    +0.000 OA
ATOM      3  N   UNL     1       1.662   8.193  19.158  0.00  0.00    +0.000 N 
ATOM      4  H   UNL     1       0.924   7.856  19.760  0.00  0.00    +0.000 HD
ENDROOT
BRANCH   1  11
ATOM      5  O   UNL     1      -5.535  12.651  18.549  0.00  0.00    +0.000 OA
ATOM      6  C   UNL     1      -4.548  11.931  18.427  0.00  0.00    +0.000 C 
ATOM      7  C   UNL     1      -4.612  10.567  17.779  0.00  0.00    +0.000 C 
ATOM      8  C   UNL     1      -3.325  10.242  17.037  0.00  0.00    +0.000 C 
ATOM      9  C   UNL     1      -2.132  10.482  17.919  0.00  0.00    +0.000 A 
ATOM     10  C   UNL     1      -0.946   9.753  17.760  0.00  0.00    +0.000 A 
ATOM     11  C   UNL     1       0.178  10.043  18.552  0.00  0.00    +0.000 A 
ATOM     12  C   UNL     1       0.116  11.087  19.484  0.00  0.00    +0.000 A 
ATOM     13  C   UNL     1      -1.058  11.836  19.622  0.00  0.00    +0.000 A 
ATOM     14  C   UNL     1      -2.176  11.526  18.849  0.00  0.00    +0.000 A 
ATOM     15  N   UNL     1      -3.346  12.276  18.990  0.00  0.00    +0.000 N 
ATOM     16  H   UNL     1      -3.347  13.125  19.538  0.00  0.00    +0.000 HD
ENDBRANCH   1  11
BRANCH   3  17
ATOM     17  C   UNL     1       2.847   7.359  18.977  0.00  0.00    +0.000 C 
BRANCH  17  18
ATOM     18  C   UNL     1       2.589   5.989  18.285  0.00  0.00    +0.000 C 
BRANCH  18  19
ATOM     19  C   UNL     1       3.767   5.577  17.389  0.00  0.00    +0.000 A 
ATOM     20  C   UNL     1       4.614   6.548  16.830  0.00  0.00    +0.000 A 
ATOM     21  C   UNL     1       5.680   6.196  16.006  0.00  0.00    +0.000 A 
ATOM     22  C   UNL     1       5.937   4.853  15.740  0.00  0.00    +0.000 A 
ATOM     23  C   UNL     1       5.124   3.870  16.296  0.00  0.00    +0.000 A 
ATOM     24  C   UNL     1       4.035   4.225  17.106  0.00  0.00    +0.000 A 
ENDBRANCH  18  19
BRANCH  18  25
ATOM     25  C   UNL     1       2.142   4.878  19.257  0.00  0.00    +0.000 A 
ATOM     26  C   UNL     1       2.566   4.824  20.597  0.00  0.00    +0.000 A 
ATOM     27  C   UNL     1       2.128   3.820  21.457  0.00  0.00    +0.000 A 
ATOM     28  C   UNL     1       1.259   2.841  20.998  0.00  0.00    +0.000 A 
ATOM     29  C   UNL     1       0.829   2.864  19.673  0.00  0.00    +0.000 A 
ATOM     30  C   UNL     1       1.258   3.878  18.813  0.00  0.00    +0.000 A 
ENDBRANCH  18  25
ENDBRANCH  17  18
ENDBRANCH   3  17
TORSDOF 5
ENDMDL
MODEL 3
REMARK VINA RESULT:      -9.5      1.120      1.705
REMARK  Name = 
REMARK  5 active torsions:
REMARK  status: ('A' for Active; 'I' for Inactive)
REMARK    1  A    between atoms: C_7  and  C_8
REMARK    2  A    between atoms: N_10  and  C_11
REMARK    3  A    between atoms: C_11  and  C_12
REMARK    4  A    between atoms: C_12  and  C_13
REMARK    5  A    between atoms: C_12  and  C_19
REMARK                            x       y       z     vdW  Elec       q    Type
REMARK                         _______ _______ _______ _____ _____    ______ ____
ROOT
ATOM      1  C   UNL     1       1.272   9.125  19.035  0.00  0.00    +0.000 C 
ATOM      2  O   UNL     1       1.780   9.074  20.142  0.00  0.00    +0.000 OA
ATOM      3  N   UNL     1       1.852   8.566  17.911  0.00  0.00    +0.000 N 
ATOM      4  H   UNL     1       1.517   8.824  16.993  0.00  0.00    +0.000 HD
ENDROOT
BRANCH   1  11
ATOM      5  O   UNL     1      -5.390  12.376  16.792  0.00  0.00    +0.000 OA
ATOM      6  C   UNL     1      -4.390  11.693  16.998  0.00  0.00    +0.000 C 
ATOM      7  C   UNL     1      -4.078  10.448  16.198  0.00  0.00    +0.000 C 
ATOM      8  C   UNL     1      -2.578  10.258  16.030  0.00  0.00    +0.000 C 
ATOM      9  C   UNL     1      -1.880  10.364  17.357  0.00  0.00    +0.000 A 
ATOM     10  C   UNL     1      -0.684   9.680  17.612  0.00  0.00    +0.000 A 
ATOM     11  C   UNL     1      -0.015   9.850  18.836  0.00  0.00    +0.000 A 
ATOM     12  C   UNL     1      -0.536  10.732  19.792  0.00  0.00    +0.000 A 
ATOM     13  C   UNL     1      -1.714  11.440  19.526  0.00  0.00    +0.000 A 
ATOM     14  C   UNL     1      -2.384  11.246  18.318  0.00  0.00    +0.000 A 
ATOM     15  N   UNL     1      -3.560  11.955  18.057  0.00  0.00    +0.000 N 
ATOM     16  H   UNL     1      -3.852  12.706  18.667  0.00  0.00    +0.000 HD
ENDBRANCH   1  11
BRANCH   3  17
ATOM     17  C   UNL     1       3.125   7.858  18.014  0.00  0.00    +0.000 C 
BRANCH  17  18
ATOM     18  C   UNL     1       3.095   6.377  17.540  0.00  0.00    +0.000 C 
BRANCH  18  19
ATOM     19  C   UNL     1       4.486   5.897  17.094  0.00  0.00    +0.000 A 
ATOM     20  C   UNL     1       5.632   6.651  17.394  0.00  0.00    +0.000 A 
ATOM     21  C   UNL     1       6.900   6.239  16.990  0.00  0.00    +0.000 A 
ATOM     22  C   UNL     1       7.051   5.043  16.291  0.00  0.00    +0.000 A 
ATOM     23  C   UNL     1       5.932   4.269  15.998  0.00  0.00    +0.000 A 
ATOM     24  C   UNL     1       4.653   4.694  16.382  0.00  0.00    +0.000 A 
ENDBRANCH  18  19
BRANCH  18  25
ATOM     25  C   UNL     1       2.408   5.420  18.536  0.00  0.00    +0.000 A 
ATOM     26  C   UNL     1       2.455   5.613  19.928  0.00  0.00    +0.000 A 
ATOM     27  C   UNL     1       1.806   4.744  20.803  0.00  0.00    +0.000 A 
ATOM     28  C   UNL     1       1.100   3.658  20.307  0.00  0.00    +0.000 A 
ATOM     29  C   UNL     1       1.044   3.437  18.933  0.00  0.00    +0.000 A 
ATOM     30  C   UNL     1       1.684   4.315  18.054  0.00  0.00    +0.000 A 
ENDBRANCH  18  25
ENDBRANCH  17  18
ENDBRANCH   3  17
TORSDOF 5
ENDMDL
MODEL 4
REMARK VINA RESULT:      -9.3      2.318      4.394
REMARK  Name = 
REMARK  5 active torsions:
REMARK  status: ('A' for Active; 'I' for Inactive)
REMARK    1  A    between atoms: C_7  and  C_8
REMARK    2  A    between atoms: N_10  and  C_11
REMARK    3  A    between atoms: C_11  and  C_12
REMARK    4  A    between atoms: C_12  and  C_13
REMARK    5  A    between atoms: C_12  and  C_19
REMARK                            x       y       z     vdW  Elec       q    Type
REMARK                         _______ _______ _______ _____ _____    ______ ____
ROOT
ATOM      1  C   UNL     1       1.367   9.061  19.079  0.00  0.00    +0.000 C 
ATOM      2  O   UNL     1       1.325   9.567  17.970  0.00  0.00    +0.000 OA
ATOM      3  N   UNL     1       2.129   7.946  19.371  0.00  0.00    +0.000 N 
ATOM      4  H   UNL     1       1.961   7.434  20.226  0.00  0.00    +0.000 HD
ENDROOT
BRANCH   1  11
ATOM      5  O   UNL     1      -3.208  12.933  23.984  0.00  0.00    +0.000 OA
ATOM      6  C   UNL     1      -2.619  12.409  23.042  0.00  0.00    +0.000 C 
ATOM      7  C   UNL     1      -2.962  12.710  21.601  0.00  0.00    +0.000 C 
ATOM      8  C   UNL     1      -1.730  12.650  20.711  0.00  0.00    +0.000 C 
ATOM      9  C   UNL     1      -0.975  11.370  20.941  0.00  0.00    +0.000 A 
ATOM     10  C   UNL     1      -0.209  10.780  19.927  0.00  0.00    +0.000 A 
ATOM     11  C   UNL     1       0.543   9.621  20.187  0.00  0.00    +0.000 A 
ATOM     12  C   UNL     1       0.546   9.075  21.477  0.00  0.00    +0.000 A 
ATOM     13  C   UNL     1      -0.194   9.681  22.499  0.00  0.00    +0.000 A 
ATOM     14  C   UNL     1      -0.955  10.817  22.225  0.00  0.00    +0.000 A 
ATOM     15  N   UNL     1      -1.693  11.419  23.248  0.00  0.00    +0.000 N 
ATOM     16  H   UNL     1      -1.569  11.128  24.208  0.00  0.00    +0.000 HD
ENDBRANCH   1  11
BRANCH   3  17
ATOM     17  C   UNL     1       2.948   7.320  18.337  0.00  0.00    +0.000 C 
BRANCH  17  18
ATOM     18  C   UNL     1       3.682   6.019  18.774  0.00  0.00    +0.000 C 
BRANCH  18  19
ATOM     19  C   UNL     1       2.690   4.883  19.069  0.00  0.00    +0.000 A 
ATOM     20  C   UNL     1       2.351   4.555  20.392  0.00  0.00    +0.000 A 
ATOM     21  C   UNL     1       1.462   3.522  20.681  0.00  0.00    +0.000 A 
ATOM     22  C   UNL     1       0.874   2.803  19.643  0.00  0.00    +0.000 A 
ATOM     23  C   UNL     1       1.179   3.120  18.322  0.00  0.00    +0.000 A 
ATOM     24  C   UNL     1       2.092   4.144  18.031  0.00  0.00    +0.000 A 
ENDBRANCH  18  19
BRANCH  18  25
ATOM     25  C   UNL     1       4.825   5.603  17.827  0.00  0.00    +0.000 A 
ATOM     26  C   UNL     1       5.928   4.843  18.255  0.00  0.00    +0.000 A 
ATOM     27  C   UNL     1       6.935   4.463  17.371  0.00  0.00    +0.000 A 
ATOM     28  C   UNL     1       6.868   4.839  16.038  0.00  0.00    +0.000 A 
ATOM     29  C   UNL     1       5.792   5.600  15.586  0.00  0.00    +0.000 A 
ATOM     30  C   UNL     1       4.774   5.970  16.470  0.00  0.00    +0.000 A 
ENDBRANCH  18  25
ENDBRANCH  17  18
ENDBRANCH   3  17
TORSDOF 5
ENDMDL
MODEL 5
REMARK VINA RESULT:      -9.2      2.284      4.307
REMARK  Name = 
REMARK  5 active torsions:
REMARK  status: ('A' for Active; 'I' for Inactive)
REMARK    1  A    between atoms: C_7  and  C_8
REMARK    2  A    between atoms: N_10  and  C_11
REMARK    3  A    between atoms: C_11  and  C_12
REMARK    4  A    between atoms: C_12  and  C_13
REMARK    5  A    between atoms: C_12  and  C_19
REMARK                            x       y       z     vdW  Elec       q    Type
REMARK                         _______ _______ _______ _____ _____    ______ ____
ROOT
ATOM      1  C   UNL     1       1.490   9.146  19.058  0.00  0.00    +0.000 C 
ATOM      2  O   UNL     1       1.594   9.753  18.005  0.00  0.00    +0.000 OA
ATOM      3  N   UNL     1       2.102   7.930  19.293  0.00  0.00    +0.000 N 
ATOM      4  H   UNL     1       1.810   7.364  20.078  0.00  0.00    +0.000 HD
ENDROOT
BRANCH   1  11
ATOM      5  O   UNL     1      -3.243  12.926  23.885  0.00  0.00    +0.000 OA
ATOM      6  C   UNL     1      -2.631  12.410  22.953  0.00  0.00    +0.000 C 
ATOM      7  C   UNL     1      -2.975  12.680  21.506  0.00  0.00    +0.000 C 
ATOM      8  C   UNL     1      -1.736  12.650  20.625  0.00  0.00    +0.000 C 
ATOM      9  C   UNL     1      -0.940  11.400  20.876  0.00  0.00    +0.000 A 
ATOM     10  C   UNL     1      -0.148  10.822  19.875  0.00  0.00    +0.000 A 
ATOM     11  C   UNL     1       0.640   9.693  20.154  0.00  0.00    +0.000 A 
ATOM     12  C   UNL     1       0.653   9.164  21.451  0.00  0.00    +0.000 A 
ATOM     13  C   UNL     1      -0.113   9.758  22.460  0.00  0.00    +0.000 A 
ATOM     14  C   UNL     1      -0.910  10.864  22.167  0.00  0.00    +0.000 A 
ATOM     15  N   UNL     1      -1.674  11.454  23.178  0.00  0.00    +0.000 N 
ATOM     16  H   UNL     1      -1.547  11.180  24.143  0.00  0.00    +0.000 HD
ENDBRANCH   1  11
BRANCH   3  17
ATOM     17  C   UNL     1       2.934   7.312  18.263  0.00  0.00    +0.000 C 
BRANCH  17  18
ATOM     18  C   UNL     1       3.699   6.034  18.713  0.00  0.00    +0.000 C 
BRANCH  18  19
ATOM     19  C   UNL     1       2.733   4.896  19.078  0.00  0.00    +0.000 A 
ATOM     20  C   UNL     1       2.110   4.137  18.074  0.00  0.00    +0.000 A 
ATOM     21  C   UNL     1       1.224   3.108  18.385  0.00  0.00    +0.000 A 
ATOM     22  C   UNL     1       0.957   2.801  19.717  0.00  0.00    +0.000 A 
ATOM     23  C   UNL     1       1.577   3.525  20.731  0.00  0.00    +0.000 A 
ATOM     24  C   UNL     1       2.450   4.577  20.420  0.00  0.00    +0.000 A 
ENDBRANCH  18  19
BRANCH  18  25
ATOM     25  C   UNL     1       4.813   5.602  17.738  0.00  0.00    +0.000 A 
ATOM     26  C   UNL     1       4.771   5.889  16.362  0.00  0.00    +0.000 A 
ATOM     27  C   UNL     1       5.803   5.505  15.508  0.00  0.00    +0.000 A 
ATOM     28  C   UNL     1       6.900   4.819  16.009  0.00  0.00    +0.000 A 
ATOM     29  C   UNL     1       6.965   4.514  17.366  0.00  0.00    +0.000 A 
ATOM     30  C   UNL     1       5.936   4.910  18.225  0.00  0.00    +0.000 A 
ENDBRANCH  18  25
ENDBRANCH  17  18
ENDBRANCH   3  17
TORSDOF 5
ENDMDL
MODEL 6
REMARK VINA RESULT:      -9.2      2.995      5.463
REMARK  Name = 
REMARK  5 active torsions:
REMARK  status: ('A' for Active; 'I' for Inactive)
REMARK    1  A    between atoms: C_7  and  C_8
REMARK    2  A    between atoms: N_10  and  C_11
REMARK    3  A    between atoms: C_11  and  C_12
REMARK    4  A    between atoms: C_12  and  C_13
REMARK    5  A    between atoms: C_12  and  C_19
REMARK                            x       y       z     vdW  Elec       q    Type
REMARK                         _______ _______ _______ _____ _____    ______ ____
ROOT
ATOM      1  C   UNL     1       3.222   4.701  18.092  0.00  0.00    +0.000 C 
ATOM      2  O   UNL     1       3.042   3.576  18.528  0.00  0.00    +0.000 OA
ATOM      3  N   UNL     1       4.006   4.965  16.985  0.00  0.00    +0.000 N 
ATOM      4  H   UNL     1       4.308   5.911  16.799  0.00  0.00    +0.000 HD
ENDROOT
BRANCH   1  11
ATOM      5  O   UNL     1       0.398  11.468  20.586  0.00  0.00    +0.000 OA
ATOM      6  C   UNL     1       0.795  10.476  19.979  0.00  0.00    +0.000 C 
ATOM      7  C   UNL     1       0.847  10.413  18.469  0.00  0.00    +0.000 C 
ATOM      8  C   UNL     1       2.015   9.566  17.988  0.00  0.00    +0.000 C 
ATOM      9  C   UNL     1       2.026   8.236  18.690  0.00  0.00    +0.000 A 
ATOM     10  C   UNL     1       2.554   7.091  18.079  0.00  0.00    +0.000 A 
ATOM     11  C   UNL     1       2.615   5.875  18.781  0.00  0.00    +0.000 A 
ATOM     12  C   UNL     1       2.172   5.821  20.109  0.00  0.00    +0.000 A 
ATOM     13  C   UNL     1       1.673   6.971  20.731  0.00  0.00    +0.000 A 
ATOM     14  C   UNL     1       1.594   8.167  20.018  0.00  0.00    +0.000 A 
ATOM     15  N   UNL     1       1.095   9.314  20.642  0.00  0.00    +0.000 N 
ATOM     16  H   UNL     1       0.926   9.322  21.639  0.00  0.00    +0.000 HD
ENDBRANCH   1  11
BRANCH   3  17
ATOM     17  C   UNL     1       4.657   3.873  16.265  0.00  0.00    +0.000 C 
BRANCH  17  18
ATOM     18  C   UNL     1       6.188   4.048  16.048  0.00  0.00    +0.000 C 
BRANCH  18  19
ATOM     19  C   UNL     1       6.535   4.193  14.557  0.00  0.00    +0.000 A 
ATOM     20  C   UNL     1       5.826   3.469  13.584  0.00  0.00    +0.000 A 
ATOM     21  C   UNL     1       6.132   3.579  12.230  0.00  0.00    +0.000 A 
ATOM     22  C   UNL     1       7.147   4.438  11.815  0.00  0.00    +0.000 A 
ATOM     23  C   UNL     1       7.852   5.181  12.758  0.00  0.00    +0.000 A 
ATOM     24  C   UNL     1       7.561   5.053  14.124  0.00  0.00    +0.000 A 
ENDBRANCH  18  19
BRANCH  18  25
ATOM     25  C   UNL     1       6.819   5.143  16.932  0.00  0.00    +0.000 A 
ATOM     26  C   UNL     1       6.716   6.513  16.633  0.00  0.00    +0.000 A 
ATOM     27  C   UNL     1       7.279   7.481  17.463  0.00  0.00    +0.000 A 
ATOM     28  C   UNL     1       7.963   7.102  18.608  0.00  0.00    +0.000 A 
ATOM     29  C   UNL     1       8.089   5.751  18.925  0.00  0.00    +0.000 A 
ATOM     30  C   UNL     1       7.514   4.780  18.100  0.00  0.00    +0.000 A 
ENDBRANCH  18  25
ENDBRANCH  17  18
ENDBRANCH   3  17
TORSDOF 5
ENDMDL
MODEL 7
REMARK VINA RESULT:      -9.2      0.966      1.836
REMARK  Name = 
REMARK  5 active torsions:
REMARK  status: ('A' for Active; 'I' for Inactive)
REMARK    1  A    between atoms: C_7  and  C_8
REMARK    2  A    between atoms: N_10  and  C_11
REMARK    3  A    between atoms: C_11  and  C_12
REMARK    4  A    between atoms: C_12  and  C_13
REMARK    5  A    between atoms: C_12  and  C_19
REMARK                            x       y       z     vdW  Elec       q    Type
REMARK                         _______ _______ _______ _____ _____    ______ ____
ROOT
ATOM      1  C   UNL     1       1.405   9.220  18.432  0.00  0.00    +0.000 C 
ATOM      2  O   UNL     1       2.126   9.421  17.470  0.00  0.00    +0.000 OA
ATOM      3  N   UNL     1       1.629   8.208  19.346  0.00  0.00    +0.000 N 
ATOM      4  H   UNL     1       0.895   7.937  19.986  0.00  0.00    +0.000 HD
ENDROOT
BRANCH   1  11
ATOM      5  O   UNL     1      -4.368  13.850  20.717  0.00  0.00    +0.000 OA
ATOM      6  C   UNL     1      -3.321  13.248  20.493  0.00  0.00    +0.000 C 
ATOM      7  C   UNL     1      -2.033  13.559  21.220  0.00  0.00    +0.000 C 
ATOM      8  C   UNL     1      -1.186  12.310  21.411  0.00  0.00    +0.000 C 
ATOM      9  C   UNL     1      -1.031  11.574  20.110  0.00  0.00    +0.000 A 
ATOM     10  C   UNL     1       0.102  10.794  19.840  0.00  0.00    +0.000 A 
ATOM     11  C   UNL     1       0.192  10.060  18.645  0.00  0.00    +0.000 A 
ATOM     12  C   UNL     1      -0.872  10.089  17.735  0.00  0.00    +0.000 A 
ATOM     13  C   UNL     1      -2.017  10.842  18.016  0.00  0.00    +0.000 A 
ATOM     14  C   UNL     1      -2.088  11.586  19.194  0.00  0.00    +0.000 A 
ATOM     15  N   UNL     1      -3.233  12.337  19.471  0.00  0.00    +0.000 N 
ATOM     16  H   UNL     1      -4.063  12.236  18.902  0.00  0.00    +0.000 HD
ENDBRANCH   1  11
BRANCH   3  17
ATOM     17  C   UNL     1       2.782   7.323  19.198  0.00  0.00    +0.000 C 
BRANCH  17  18
ATOM     18  C   UNL     1       2.502   6.000  18.428  0.00  0.00    +0.000 C 
BRANCH  18  19
ATOM     19  C   UNL     1       3.665   5.633  17.493  0.00  0.00    +0.000 A 
ATOM     20  C   UNL     1       3.974   4.288  17.229  0.00  0.00    +0.000 A 
ATOM     21  C   UNL     1       5.030   3.934  16.393  0.00  0.00    +0.000 A 
ATOM     22  C   UNL     1       5.792   4.927  15.781  0.00  0.00    +0.000 A 
ATOM     23  C   UNL     1       5.496   6.267  16.012  0.00  0.00    +0.000 A 
ATOM     24  C   UNL     1       4.448   6.624  16.872  0.00  0.00    +0.000 A 
ENDBRANCH  18  19
BRANCH  18  25
ATOM     25  C   UNL     1       2.057   4.836  19.336  0.00  0.00    +0.000 A 
ATOM     26  C   UNL     1       1.232   3.791  18.882  0.00  0.00    +0.000 A 
ATOM     27  C   UNL     1       0.864   2.741  19.720  0.00  0.00    +0.000 A 
ATOM     28  C   UNL     1       1.306   2.712  21.035  0.00  0.00    +0.000 A 
ATOM     29  C   UNL     1       2.117   3.738  21.515  0.00  0.00    +0.000 A 
ATOM     30  C   UNL     1       2.497   4.786  20.671  0.00  0.00    +0.000 A 
ENDBRANCH  18  25
ENDBRANCH  17  18
ENDBRANCH   3  17
TORSDOF 5
ENDMDL
MODEL 8
REMARK VINA RESULT:      -9.2      0.803      2.093
REMARK  Name = 
REMARK  5 active torsions:
REMARK  status: ('A' for Active; 'I' for Inactive)
REMARK    1  A    between atoms: C_7  and  C_8
REMARK    2  A    between atoms: N_10  and  C_11
REMARK    3  A    between atoms: C_11  and  C_12
REMARK    4  A    between atoms: C_12  and  C_13
REMARK    5  A    between atoms: C_12  and  C_19
REMARK                            x       y       z     vdW  Elec       q    Type
REMARK                         _______ _______ _______ _____ _____    ______ ____
ROOT
ATOM      1  C   UNL     1       1.324   9.326  18.254  0.00  0.00    +0.000 C 
ATOM      2  O   UNL     1       2.161   9.727  17.462  0.00  0.00    +0.000 OA
ATOM      3  N   UNL     1       1.488   8.183  19.013  0.00  0.00    +0.000 N 
ATOM      4  H   UNL     1       0.691   7.770  19.477  0.00  0.00    +0.000 HD
ENDROOT
BRANCH   1  11
ATOM      5  O   UNL     1      -4.912  13.469  20.236  0.00  0.00    +0.000 OA
ATOM      6  C   UNL     1      -3.809  12.960  20.058  0.00  0.00    +0.000 C 
ATOM      7  C   UNL     1      -2.574  13.415  20.802  0.00  0.00    +0.000 C 
ATOM      8  C   UNL     1      -1.621  12.259  21.058  0.00  0.00    +0.000 C 
ATOM      9  C   UNL     1      -1.363  11.496  19.788  0.00  0.00    +0.000 A 
ATOM     10  C   UNL     1      -0.156  10.818  19.573  0.00  0.00    +0.000 A 
ATOM     11  C   UNL     1       0.034  10.056  18.408  0.00  0.00    +0.000 A 
ATOM     12  C   UNL     1      -1.005   9.954  17.473  0.00  0.00    +0.000 A 
ATOM     13  C   UNL     1      -2.222  10.605  17.700  0.00  0.00    +0.000 A 
ATOM     14  C   UNL     1      -2.392  11.378  18.848  0.00  0.00    +0.000 A 
ATOM     15  N   UNL     1      -3.609  12.028  19.072  0.00  0.00    +0.000 N 
ATOM     16  H   UNL     1      -4.411  11.830  18.488  0.00  0.00    +0.000 HD
ENDBRANCH   1  11
BRANCH   3  17
ATOM     17  C   UNL     1       2.714   7.396  18.905  0.00  0.00    +0.000 C 
BRANCH  17  18
ATOM     18  C   UNL     1       2.541   5.996  18.247  0.00  0.00    +0.000 C 
BRANCH  18  19
ATOM     19  C   UNL     1       3.771   5.609  17.410  0.00  0.00    +0.000 A 
ATOM     20  C   UNL     1       4.666   6.592  16.957  0.00  0.00    +0.000 A 
ATOM     21  C   UNL     1       5.781   6.263  16.189  0.00  0.00    +0.000 A 
ATOM     22  C   UNL     1       6.036   4.931  15.874  0.00  0.00    +0.000 A 
ATOM     23  C   UNL     1       5.175   3.936  16.326  0.00  0.00    +0.000 A 
ATOM     24  C   UNL     1       4.040   4.268  17.079  0.00  0.00    +0.000 A 
ENDBRANCH  18  19
BRANCH  18  25
ATOM     25  C   UNL     1       2.103   4.896  19.235  0.00  0.00    +0.000 A 
ATOM     26  C   UNL     1       2.548   4.851  20.568  0.00  0.00    +0.000 A 
ATOM     27  C   UNL     1       2.117   3.857  21.444  0.00  0.00    +0.000 A 
ATOM     28  C   UNL     1       1.235   2.880  21.006  0.00  0.00    +0.000 A 
ATOM     29  C   UNL     1       0.785   2.894  19.688  0.00  0.00    +0.000 A 
ATOM     30  C   UNL     1       1.206   3.898  18.813  0.00  0.00    +0.000 A 
ENDBRANCH  18  25
ENDBRANCH  17  18
ENDBRANCH   3  17
TORSDOF 5
ENDMDL
MODEL 9
REMARK VINA RESULT:      -9.2      1.218      3.433
REMARK  Name = 
REMARK  5 active torsions:
REMARK  status: ('A' for Active; 'I' for Inactive)
REMARK    1  A    between atoms: C_7  and  C_8
REMARK    2  A    between atoms: N_10  and  C_11
REMARK    3  A    between atoms: C_11  and  C_12
REMARK    4  A    between atoms: C_12  and  C_13
REMARK    5  A    between atoms: C_12  and  C_19
REMARK                            x       y       z     vdW  Elec       q    Type
REMARK                         _______ _______ _______ _____ _____    ______ ____
ROOT
ATOM      1  C   UNL     1       1.454   9.571  17.957  0.00  0.00    +0.000 C 
ATOM      2  O   UNL     1       2.405  10.221  17.558  0.00  0.00    +0.000 OA
ATOM      3  N   UNL     1       1.447   8.189  17.995  0.00  0.00    +0.000 N 
ATOM      4  H   UNL     1       0.573   7.695  18.114  0.00  0.00    +0.000 HD
ENDROOT
BRANCH   1  11
ATOM      5  O   UNL     1      -5.553  12.648  19.148  0.00  0.00    +0.000 OA
ATOM      6  C   UNL     1      -4.558  11.991  18.851  0.00  0.00    +0.000 C 
ATOM      7  C   UNL     1      -4.630  10.755  17.983  0.00  0.00    +0.000 C 
ATOM      8  C   UNL     1      -3.382  10.603  17.128  0.00  0.00    +0.000 C 
ATOM      9  C   UNL     1      -2.144  10.727  17.973  0.00  0.00    +0.000 A 
ATOM     10  C   UNL     1      -0.953  10.075  17.627  0.00  0.00    +0.000 A 
ATOM     11  C   UNL     1       0.208  10.262  18.395  0.00  0.00    +0.000 A 
ATOM     12  C   UNL     1       0.177  11.130  19.494  0.00  0.00    +0.000 A 
ATOM     13  C   UNL     1      -1.003  11.807  19.822  0.00  0.00    +0.000 A 
ATOM     14  C   UNL     1      -2.157  11.596  19.068  0.00  0.00    +0.000 A 
ATOM     15  N   UNL     1      -3.333  12.274  19.399  0.00  0.00    +0.000 N 
ATOM     16  H   UNL     1      -3.321  13.017  20.084  0.00  0.00    +0.000 HD
ENDBRANCH   1  11
BRANCH   3  17
ATOM     17  C   UNL     1       2.618   7.433  17.560  0.00  0.00    +0.000 C 
BRANCH  17  18
ATOM     18  C   UNL     1       3.268   6.538  18.655  0.00  0.00    +0.000 C 
BRANCH  18  19
ATOM     19  C   UNL     1       2.399   5.309  18.970  0.00  0.00    +0.000 A 
ATOM     20  C   UNL     1       2.115   4.360  17.974  0.00  0.00    +0.000 A 
ATOM     21  C   UNL     1       1.321   3.246  18.237  0.00  0.00    +0.000 A 
ATOM     22  C   UNL     1       0.808   3.046  19.516  0.00  0.00    +0.000 A 
ATOM     23  C   UNL     1       1.090   3.962  20.525  0.00  0.00    +0.000 A 
ATOM     24  C   UNL     1       1.869   5.097  20.256  0.00  0.00    +0.000 A 
ENDBRANCH  18  19
BRANCH  18  25
ATOM     25  C   UNL     1       4.743   6.187  18.375  0.00  0.00    +0.000 A 
ATOM     26  C   UNL     1       5.420   6.617  17.219  0.00  0.00    +0.000 A 
ATOM     27  C   UNL     1       6.760   6.303  17.004  0.00  0.00    +0.000 A 
ATOM     28  C   UNL     1       7.455   5.547  17.937  0.00  0.00    +0.000 A 
ATOM     29  C   UNL     1       6.809   5.101  19.087  0.00  0.00    +0.000 A 
ATOM     30  C   UNL     1       5.468   5.426  19.310  0.00  0.00    +0.000 A 
ENDBRANCH  18  25
ENDBRANCH  17  18
ENDBRANCH   3  17
TORSDOF 5
ENDMDL
