MODEL 1
REMARK VINA RESULT:      -9.3      0.000      0.000
REMARK  Name = 
REMARK  5 active torsions:
REMARK  status: ('A' for Active; 'I' for Inactive)
REMARK    1  A    between atoms: C_1  and  N_2
REMARK    2  A    between atoms: C_6  and  C_7
REMARK    3  A    between atoms: C_7  and  C_8
REMARK    4  A    between atoms: C_10  and  N_11
REMARK    5  A    between atoms: C_18  and  C_19
REMARK                            x       y       z     vdW  Elec       q    Type
REMARK                         _______ _______ _______ _____ _____    ______ ____
ROOT
ATOM      1  C   UNL     1       2.857   4.958  17.880  0.00  0.00    +0.000 A 
ATOM      2  C   UNL     1       2.168   6.055  18.433  0.00  0.00    +0.000 A 
ATOM      3  C   UNL     1       2.644   7.373  18.305  0.00  0.00    +0.000 A 
ATOM      4  C   UNL     1       3.836   7.573  17.592  0.00  0.00    +0.000 A 
ATOM      5  C   UNL     1       4.528   6.495  17.033  0.00  0.00    +0.000 A 
ATOM      6  C   UNL     1       4.032   5.205  17.174  0.00  0.00    +0.000 A 
ATOM      7  F   UNL     1       4.720   4.190  16.631  0.00  0.00    +0.000 F 
ENDROOT
BRANCH   3   8
ATOM      8  N   UNL     1       1.955   8.477  18.880  0.00  0.00    +0.000 N 
ATOM      9  C   UNL     1       1.328   8.417  20.195  0.00  0.00    +0.000 C 
ATOM     10  C   UNL     1       0.746   9.786  20.375  0.00  0.00    +0.000 A 
ATOM     11  C   UNL     1       1.006  10.543  19.235  0.00  0.00    +0.000 A 
ATOM     12  C   UNL     1       0.560  11.842  19.075  0.00  0.00    +0.000 A 
ATOM     13  C   UNL     1      -0.181  12.401  20.112  0.00  0.00    +0.000 A 
ATOM     14  C   UNL     1      -0.441  11.658  21.278  0.00  0.00    +0.000 A 
ATOM     15  C   UNL     1       0.024  10.335  21.433  0.00  0.00    +0.000 A 
ATOM     16  C   UNL     1       1.775   9.728  18.289  0.00  0.00    +0.000 C 
ATOM     17  O   UNL     1       2.108  10.155  17.202  0.00  0.00    +0.000 OA
BRANCH  15  18
ATOM     18  C   UNL     1      -0.272   9.587  22.706  0.00  0.00    +0.000 C 
ATOM     19  F   UNL     1       0.840   9.274  23.427  0.00  0.00    +0.000 F 
ATOM     20  F   UNL     1      -1.075  10.294  23.549  0.00  0.00    +0.000 F 
ATOM     21  F   UNL     1      -0.911   8.408  22.479  0.00  0.00    +0.000 F 
ENDBRANCH  15  18
ENDBRANCH   3   8
BRANCH   1  22
ATOM     22  C   UNL     1       2.366   3.546  18.084  0.00  0.00    +0.000 C 
BRANCH  22  28
ATOM     23  C   UNL     1       4.367   2.279  20.183  0.00  0.00    +0.000 C 
ATOM     24  N   UNL     1       3.109   2.925  20.460  0.00  0.00    +0.000 N 
ATOM     25  C   UNL     1       2.386   2.560  21.658  0.00  0.00    +0.000 C 
ATOM     26  N   UNL     1       0.969   2.701  21.319  0.00  0.00    +0.000 N 
ATOM     27  N   UNL     1       0.877   3.096  19.993  0.00  0.00    +0.000 NA
ATOM     28  C   UNL     1       2.111   3.163  19.523  0.00  0.00    +0.000 C 
ATOM     29  H   UNL     1       0.528   3.401  21.915  0.00  0.00    +0.000 HD
ENDBRANCH  22  28
ENDBRANCH   1  22
TORSDOF 4
ENDMDL
MODEL 2
REMARK VINA RESULT:      -9.0      2.429      3.690
REMARK  Name = 
REMARK  5 active torsions:
REMARK  status: ('A' for Active; 'I' for Inactive)
REMARK    1  A    between atoms: C_1  and  N_2
REMARK    2  A    between atoms: C_6  and  C_7
REMARK    3  A    between atoms: C_7  and  C_8
REMARK    4  A    between atoms: C_10  and  N_11
REMARK    5  A    between atoms: C_18  and  C_19
REMARK                            x       y       z     vdW  Elec       q    Type
REMARK                         _______ _______ _______ _____ _____    ______ ____
ROOT
ATOM      1  C   UNL     1       4.112   4.302  19.172  0.00  0.00    +0.000 A 
ATOM      2  C   UNL     1       3.615   5.617  19.275  0.00  0.00    +0.000 A 
ATOM      3  C   UNL     1       2.374   5.898  19.876  0.00  0.00    +0.000 A 
ATOM      4  C   UNL     1       1.636   4.820  20.389  0.00  0.00    +0.000 A 
ATOM      5  C   UNL     1       2.118   3.511  20.299  0.00  0.00    +0.000 A 
ATOM      6  C   UNL     1       3.349   3.265  19.703  0.00  0.00    +0.000 A 
ATOM      7  F   UNL     1       3.784   2.000  19.626  0.00  0.00    +0.000 F 
ENDROOT
BRANCH   3   8
ATOM      8  N   UNL     1       1.867   7.224  19.962  0.00  0.00    +0.000 N 
ATOM      9  C   UNL     1       1.171   7.727  21.141  0.00  0.00    +0.000 C 
ATOM     10  C   UNL     1       0.836   9.142  20.779  0.00  0.00    +0.000 A 
ATOM     11  C   UNL     1       1.288   9.400  19.487  0.00  0.00    +0.000 A 
ATOM     12  C   UNL     1       1.093  10.610  18.848  0.00  0.00    +0.000 A 
ATOM     13  C   UNL     1       0.412  11.604  19.544  0.00  0.00    +0.000 A 
ATOM     14  C   UNL     1      -0.040  11.369  20.856  0.00  0.00    +0.000 A 
ATOM     15  C   UNL     1       0.170  10.131  21.501  0.00  0.00    +0.000 A 
ATOM     16  C   UNL     1       1.947   8.198  18.966  0.00  0.00    +0.000 C 
ATOM     17  O   UNL     1       2.408   8.158  17.843  0.00  0.00    +0.000 OA
BRANCH  15  18
ATOM     18  C   UNL     1      -0.323   9.934  22.910  0.00  0.00    +0.000 C 
ATOM     19  F   UNL     1      -1.218   8.917  23.038  0.00  0.00    +0.000 F 
ATOM     20  F   UNL     1       0.688   9.652  23.778  0.00  0.00    +0.000 F 
ATOM     21  F   UNL     1      -0.943  11.040  23.403  0.00  0.00    +0.000 F 
ENDBRANCH  15  18
ENDBRANCH   3   8
BRANCH   1  22
ATOM     22  C   UNL     1       5.414   4.015  18.465  0.00  0.00    +0.000 C 
BRANCH  22  28
ATOM     23  C   UNL     1       6.828   5.813  16.279  0.00  0.00    +0.000 C 
ATOM     24  N   UNL     1       6.812   6.027  17.703  0.00  0.00    +0.000 N 
ATOM     25  C   UNL     1       7.898   6.762  18.312  0.00  0.00    +0.000 C 
ATOM     26  N   UNL     1       8.060   6.189  19.648  0.00  0.00    +0.000 N 
ATOM     27  N   UNL     1       7.140   5.162  19.794  0.00  0.00    +0.000 NA
ATOM     28  C   UNL     1       6.483   5.065  18.651  0.00  0.00    +0.000 C 
ATOM     29  H   UNL     1       7.896   6.897  20.362  0.00  0.00    +0.000 HD
ENDBRANCH  22  28
ENDBRANCH   1  22
TORSDOF 4
ENDMDL
MODEL 3
REMARK VINA RESULT:      -9.0      2.325      3.493
REMARK  Name = 
REMARK  5 active torsions:
REMARK  status: ('A' for Active; 'I' for Inactive)
REMARK    1  A    between atoms: C_1  and  N_2
REMARK    2  A    between atoms: C_6  and  C_7
REMARK    3  A    between atoms: C_7  and  C_8
REMARK    4  A    between atoms: C_10  and  N_11
REMARK    5  A    between atoms: C_18  and  C_19
REMARK                            x       y       z     vdW  Elec       q    Type
REMARK                         _______ _______ _______ _____ _____    ______ ____
ROOT
ATOM      1  C   UNL     1       4.201   4.545  18.665  0.00  0.00    +0.000 A 
ATOM      2  C   UNL     1       3.721   5.812  19.055  0.00  0.00    +0.000 A 
ATOM      3  C   UNL     1       2.414   6.236  18.753  0.00  0.00    +0.000 A 
ATOM      4  C   UNL     1       1.583   5.349  18.051  0.00  0.00    +0.000 A 
ATOM      5  C   UNL     1       2.043   4.088  17.662  0.00  0.00    +0.000 A 
ATOM      6  C   UNL     1       3.338   3.696  17.978  0.00  0.00    +0.000 A 
ATOM      7  F   UNL     1       3.754   2.482  17.588  0.00  0.00    +0.000 F 
ENDROOT
BRANCH   3   8
ATOM      8  N   UNL     1       1.938   7.522  19.131  0.00  0.00    +0.000 N 
ATOM      9  C   UNL     1       1.315   7.783  20.423  0.00  0.00    +0.000 C 
ATOM     10  C   UNL     1       0.989   9.245  20.373  0.00  0.00    +0.000 A 
ATOM     11  C   UNL     1       1.378   9.754  19.136  0.00  0.00    +0.000 A 
ATOM     12  C   UNL     1       1.173  11.070  18.765  0.00  0.00    +0.000 A 
ATOM     13  C   UNL     1       0.549  11.909  19.683  0.00  0.00    +0.000 A 
ATOM     14  C   UNL     1       0.163  11.418  20.944  0.00  0.00    +0.000 A 
ATOM     15  C   UNL     1       0.382  10.074  21.314  0.00  0.00    +0.000 A 
ATOM     16  C   UNL     1       1.984   8.676  18.348  0.00  0.00    +0.000 C 
ATOM     17  O   UNL     1       2.385   8.860  17.217  0.00  0.00    +0.000 OA
BRANCH  15  18
ATOM     18  C   UNL     1      -0.040   9.601  22.680  0.00  0.00    +0.000 C 
ATOM     19  F   UNL     1      -0.704  10.544  23.403  0.00  0.00    +0.000 F 
ATOM     20  F   UNL     1      -0.870   8.523  22.622  0.00  0.00    +0.000 F 
ATOM     21  F   UNL     1       1.016   9.221  23.448  0.00  0.00    +0.000 F 
ENDBRANCH  15  18
ENDBRANCH   3   8
BRANCH   1  22
ATOM     22  C   UNL     1       5.627   4.135  18.941  0.00  0.00    +0.000 C 
BRANCH  22  28
ATOM     23  C   UNL     1       6.603   5.679  16.358  0.00  0.00    +0.000 C 
ATOM     24  N   UNL     1       6.772   6.085  17.730  0.00  0.00    +0.000 N 
ATOM     25  C   UNL     1       7.883   6.945  18.072  0.00  0.00    +0.000 C 
ATOM     26  N   UNL     1       8.266   6.567  19.433  0.00  0.00    +0.000 N 
ATOM     27  N   UNL     1       7.444   5.530  19.844  0.00  0.00    +0.000 NA
ATOM     28  C   UNL     1       6.641   5.247  18.832  0.00  0.00    +0.000 C 
ATOM     29  H   UNL     1       8.158   7.358  20.067  0.00  0.00    +0.000 HD
ENDBRANCH  22  28
ENDBRANCH   1  22
TORSDOF 4
ENDMDL
MODEL 4
REMARK VINA RESULT:      -9.0      2.389      3.650
REMARK  Name = 
REMARK  5 active torsions:
REMARK  status: ('A' for Active; 'I' for Inactive)
REMARK    1  A    between atoms: C_1  and  N_2
REMARK    2  A    between atoms: C_6  and  C_7
REMARK    3  A    between atoms: C_7  and  C_8
REMARK    4  A    between atoms: C_10  and  N_11
REMARK    5  A    between atoms: C_18  and  C_19
REMARK                            x       y       z     vdW  Elec       q    Type
REMARK                         _______ _______ _______ _____ _____    ______ ____
ROOT
ATOM      1  C   UNL     1       4.384   4.959  18.137  0.00  0.00    +0.000 A 
ATOM      2  C   UNL     1       3.792   6.205  18.425  0.00  0.00    +0.000 A 
ATOM      3  C   UNL     1       2.585   6.307  19.139  0.00  0.00    +0.000 A 
ATOM      4  C   UNL     1       1.979   5.119  19.575  0.00  0.00    +0.000 A 
ATOM      5  C   UNL     1       2.556   3.875  19.302  0.00  0.00    +0.000 A 
ATOM      6  C   UNL     1       3.752   3.807  18.597  0.00  0.00    +0.000 A 
ATOM      7  F   UNL     1       4.279   2.600  18.346  0.00  0.00    +0.000 F 
ENDROOT
BRANCH   3   8
ATOM      8  N   UNL     1       1.980   7.566  19.412  0.00  0.00    +0.000 N 
ATOM      9  C   UNL     1       1.340   7.873  20.686  0.00  0.00    +0.000 C 
ATOM     10  C   UNL     1       0.865   9.285  20.514  0.00  0.00    +0.000 A 
ATOM     11  C   UNL     1       1.193   9.721  19.232  0.00  0.00    +0.000 A 
ATOM     12  C   UNL     1       0.852  10.971  18.752  0.00  0.00    +0.000 A 
ATOM     13  C   UNL     1       0.150  11.819  19.603  0.00  0.00    +0.000 A 
ATOM     14  C   UNL     1      -0.178  11.403  20.906  0.00  0.00    +0.000 A 
ATOM     15  C   UNL     1       0.181  10.126  21.388  0.00  0.00    +0.000 A 
ATOM     16  C   UNL     1       1.904   8.646  18.532  0.00  0.00    +0.000 C 
ATOM     17  O   UNL     1       2.278   8.770  17.383  0.00  0.00    +0.000 OA
BRANCH  15  18
ATOM     18  C   UNL     1      -0.183   9.733  22.796  0.00  0.00    +0.000 C 
ATOM     19  F   UNL     1       0.888   9.379  23.558  0.00  0.00    +0.000 F 
ATOM     20  F   UNL     1      -0.803  10.740  23.471  0.00  0.00    +0.000 F 
ATOM     21  F   UNL     1      -1.035   8.674  22.836  0.00  0.00    +0.000 F 
ENDBRANCH  15  18
ENDBRANCH   3   8
BRANCH   1  22
ATOM     22  C   UNL     1       5.645   4.867  17.313  0.00  0.00    +0.000 C 
BRANCH  22  28
ATOM     23  C   UNL     1       7.526   5.613  19.746  0.00  0.00    +0.000 C 
ATOM     24  N   UNL     1       7.604   6.118  18.399  0.00  0.00    +0.000 N 
ATOM     25  C   UNL     1       8.190   7.421  18.174  0.00  0.00    +0.000 C 
ATOM     26  N   UNL     1       7.481   7.977  17.022  0.00  0.00    +0.000 N 
ATOM     27  N   UNL     1       6.520   7.061  16.620  0.00  0.00    +0.000 NA
ATOM     28  C   UNL     1       6.585   6.040  17.457  0.00  0.00    +0.000 C 
ATOM     29  H   UNL     1       8.128   8.150  16.254  0.00  0.00    +0.000 HD
ENDBRANCH  22  28
ENDBRANCH   1  22
TORSDOF 4
ENDMDL
MODEL 5
REMARK VINA RESULT:      -8.9      2.443      3.619
REMARK  Name = 
REMARK  5 active torsions:
REMARK  status: ('A' for Active; 'I' for Inactive)
REMARK    1  A    between atoms: C_1  and  N_2
REMARK    2  A    between atoms: C_6  and  C_7
REMARK    3  A    between atoms: C_7  and  C_8
REMARK    4  A    between atoms: C_10  and  N_11
REMARK    5  A    between atoms: C_18  and  C_19
REMARK                            x       y       z     vdW  Elec       q    Type
REMARK                         _______ _______ _______ _____ _____    ______ ____
ROOT
ATOM      1  C   UNL     1       4.513   4.505  19.168  0.00  0.00    +0.000 A 
ATOM      2  C   UNL     1       3.934   5.783  19.293  0.00  0.00    +0.000 A 
ATOM      3  C   UNL     1       2.594   5.958  19.684  0.00  0.00    +0.000 A 
ATOM      4  C   UNL     1       1.838   4.808  19.960  0.00  0.00    +0.000 A 
ATOM      5  C   UNL     1       2.400   3.533  19.845  0.00  0.00    +0.000 A 
ATOM      6  C   UNL     1       3.727   3.393  19.460  0.00  0.00    +0.000 A 
ATOM      7  F   UNL     1       4.238   2.158  19.354  0.00  0.00    +0.000 F 
ENDROOT
BRANCH   3   8
ATOM      8  N   UNL     1       2.007   7.249  19.791  0.00  0.00    +0.000 N 
ATOM      9  C   UNL     1       1.313   7.702  20.991  0.00  0.00    +0.000 C 
ATOM     10  C   UNL     1       0.881   9.095  20.648  0.00  0.00    +0.000 A 
ATOM     11  C   UNL     1       1.280   9.387  19.345  0.00  0.00    +0.000 A 
ATOM     12  C   UNL     1       0.992  10.584  18.719  0.00  0.00    +0.000 A 
ATOM     13  C   UNL     1       0.269  11.531  19.440  0.00  0.00    +0.000 A 
ATOM     14  C   UNL     1      -0.130  11.262  20.762  0.00  0.00    +0.000 A 
ATOM     15  C   UNL     1       0.175  10.037  21.393  0.00  0.00    +0.000 A 
ATOM     16  C   UNL     1       1.998   8.230  18.799  0.00  0.00    +0.000 C 
ATOM     17  O   UNL     1       2.430   8.225  17.664  0.00  0.00    +0.000 OA
BRANCH  15  18
ATOM     18  C   UNL     1      -0.266   9.804  22.814  0.00  0.00    +0.000 C 
ATOM     19  F   UNL     1       0.761   9.534  23.666  0.00  0.00    +0.000 F 
ATOM     20  F   UNL     1      -0.913  10.880  23.340  0.00  0.00    +0.000 F 
ATOM     21  F   UNL     1      -1.126   8.757  22.926  0.00  0.00    +0.000 F 
ENDBRANCH  15  18
ENDBRANCH   3   8
BRANCH   1  22
ATOM     22  C   UNL     1       5.933   4.337  18.685  0.00  0.00    +0.000 C 
BRANCH  22  28
ATOM     23  C   UNL     1       7.310   6.697  17.090  0.00  0.00    +0.000 C 
ATOM     24  N   UNL     1       7.010   5.377  16.601  0.00  0.00    +0.000 N 
ATOM     25  C   UNL     1       6.800   5.187  15.182  0.00  0.00    +0.000 C 
ATOM     26  N   UNL     1       5.822   4.106  15.070  0.00  0.00    +0.000 N 
ATOM     27  N   UNL     1       5.463   3.711  16.350  0.00  0.00    +0.000 NA
ATOM     28  C   UNL     1       6.119   4.489  17.194  0.00  0.00    +0.000 C 
ATOM     29  H   UNL     1       6.221   3.313  14.569  0.00  0.00    +0.000 HD
ENDBRANCH  22  28
ENDBRANCH   1  22
TORSDOF 4
ENDMDL
MODEL 6
REMARK VINA RESULT:      -8.8      2.535      3.777
REMARK  Name = 
REMARK  5 active torsions:
REMARK  status: ('A' for Active; 'I' for Inactive)
REMARK    1  A    between atoms: C_1  and  N_2
REMARK    2  A    between atoms: C_6  and  C_7
REMARK    3  A    between atoms: C_7  and  C_8
REMARK    4  A    between atoms: C_10  and  N_11
REMARK    5  A    between atoms: C_18  and  C_19
REMARK                            x       y       z     vdW  Elec       q    Type
REMARK                         _______ _______ _______ _____ _____    ______ ____
ROOT
ATOM      1  C   UNL     1       4.760   4.622  19.226  0.00  0.00    +0.000 A 
ATOM      2  C   UNL     1       4.119   5.874  19.316  0.00  0.00    +0.000 A 
ATOM      3  C   UNL     1       2.770   5.993  19.696  0.00  0.00    +0.000 A 
ATOM      4  C   UNL     1       2.069   4.816  19.998  0.00  0.00    +0.000 A 
ATOM      5  C   UNL     1       2.692   3.567  19.919  0.00  0.00    +0.000 A 
ATOM      6  C   UNL     1       4.027   3.482  19.544  0.00  0.00    +0.000 A 
ATOM      7  F   UNL     1       4.597   2.271  19.472  0.00  0.00    +0.000 F 
ENDROOT
BRANCH   3   8
ATOM      8  N   UNL     1       2.120   7.257  19.767  0.00  0.00    +0.000 N 
ATOM      9  C   UNL     1       1.392   7.703  20.949  0.00  0.00    +0.000 C 
ATOM     10  C   UNL     1       0.897   9.066  20.569  0.00  0.00    +0.000 A 
ATOM     11  C   UNL     1       1.298   9.346  19.265  0.00  0.00    +0.000 A 
ATOM     12  C   UNL     1       0.960  10.515  18.608  0.00  0.00    +0.000 A 
ATOM     13  C   UNL     1       0.185  11.441  19.299  0.00  0.00    +0.000 A 
ATOM     14  C   UNL     1      -0.217  11.183  20.622  0.00  0.00    +0.000 A 
ATOM     15  C   UNL     1       0.138   9.989  21.285  0.00  0.00    +0.000 A 
ATOM     16  C   UNL     1       2.077   8.214  18.753  0.00  0.00    +0.000 C 
ATOM     17  O   UNL     1       2.522   8.204  17.623  0.00  0.00    +0.000 OA
BRANCH  15  18
ATOM     18  C   UNL     1      -0.307   9.766  22.706  0.00  0.00    +0.000 C 
ATOM     19  F   UNL     1      -1.120   8.685  22.860  0.00  0.00    +0.000 F 
ATOM     20  F   UNL     1       0.740   9.569  23.553  0.00  0.00    +0.000 F 
ATOM     21  F   UNL     1      -0.999  10.825  23.205  0.00  0.00    +0.000 F 
ENDBRANCH  15  18
ENDBRANCH   3   8
BRANCH   1  22
ATOM     22  C   UNL     1       6.189   4.511  18.754  0.00  0.00    +0.000 C 
BRANCH  22  28
ATOM     23  C   UNL     1       4.745   3.586  16.094  0.00  0.00    +0.000 C 
ATOM     24  N   UNL     1       5.544   4.769  16.284  0.00  0.00    +0.000 N 
ATOM     25  C   UNL     1       6.218   5.348  15.142  0.00  0.00    +0.000 C 
ATOM     26  N   UNL     1       7.451   5.933  15.669  0.00  0.00    +0.000 N 
ATOM     27  N   UNL     1       7.502   5.684  17.033  0.00  0.00    +0.000 NA
ATOM     28  C   UNL     1       6.428   4.976  17.337  0.00  0.00    +0.000 C 
ATOM     29  H   UNL     1       7.466   6.939  15.507  0.00  0.00    +0.000 HD
ENDBRANCH  22  28
ENDBRANCH   1  22
TORSDOF 4
ENDMDL
MODEL 7
REMARK VINA RESULT:      -8.8      2.279      3.446
REMARK  Name = 
REMARK  5 active torsions:
REMARK  status: ('A' for Active; 'I' for Inactive)
REMARK    1  A    between atoms: C_1  and  N_2
REMARK    2  A    between atoms: C_6  and  C_7
REMARK    3  A    between atoms: C_7  and  C_8
REMARK    4  A    between atoms: C_10  and  N_11
REMARK    5  A    between atoms: C_18  and  C_19
REMARK                            x       y       z     vdW  Elec       q    Type
REMARK                         _______ _______ _______ _____ _____    ______ ____
ROOT
ATOM      1  C   UNL     1       3.362   4.139  18.474  0.00  0.00    +0.000 A 
ATOM      2  C   UNL     1       2.956   5.480  18.622  0.00  0.00    +0.000 A 
ATOM      3  C   UNL     1       2.201   5.911  19.728  0.00  0.00    +0.000 A 
ATOM      4  C   UNL     1       1.865   4.959  20.703  0.00  0.00    +0.000 A 
ATOM      5  C   UNL     1       2.265   3.626  20.573  0.00  0.00    +0.000 A 
ATOM      6  C   UNL     1       3.012   3.231  19.471  0.00  0.00    +0.000 A 
ATOM      7  F   UNL     1       3.377   1.945  19.371  0.00  0.00    +0.000 F 
ENDROOT
BRANCH   3   8
ATOM      8  N   UNL     1       1.778   7.262  19.866  0.00  0.00    +0.000 N 
ATOM      9  C   UNL     1       1.100   7.759  21.057  0.00  0.00    +0.000 C 
ATOM     10  C   UNL     1       0.860   9.207  20.753  0.00  0.00    +0.000 A 
ATOM     11  C   UNL     1       1.344   9.489  19.477  0.00  0.00    +0.000 A 
ATOM     12  C   UNL     1       1.234  10.734  18.888  0.00  0.00    +0.000 A 
ATOM     13  C   UNL     1       0.608  11.740  19.619  0.00  0.00    +0.000 A 
ATOM     14  C   UNL     1       0.126  11.480  20.915  0.00  0.00    +0.000 A 
ATOM     15  C   UNL     1       0.250  10.206  21.509  0.00  0.00    +0.000 A 
ATOM     16  C   UNL     1       1.931   8.270  18.912  0.00  0.00    +0.000 C 
ATOM     17  O   UNL     1       2.403   8.248  17.793  0.00  0.00    +0.000 OA
BRANCH  15  18
ATOM     18  C   UNL     1      -0.272   9.982  22.904  0.00  0.00    +0.000 C 
ATOM     19  F   UNL     1       0.694   9.636  23.799  0.00  0.00    +0.000 F 
ATOM     20  F   UNL     1      -0.874  11.091  23.416  0.00  0.00    +0.000 F 
ATOM     21  F   UNL     1      -1.201   8.991  22.958  0.00  0.00    +0.000 F 
ENDBRANCH  15  18
ENDBRANCH   3   8
BRANCH   1  22
ATOM     22  C   UNL     1       4.114   3.683  17.248  0.00  0.00    +0.000 C 
BRANCH  22  28
ATOM     23  C   UNL     1       6.036   3.971  14.752  0.00  0.00    +0.000 C 
ATOM     24  N   UNL     1       6.250   4.490  16.078  0.00  0.00    +0.000 N 
ATOM     25  C   UNL     1       7.605   4.705  16.534  0.00  0.00    +0.000 C 
ATOM     26  N   UNL     1       7.578   4.457  17.976  0.00  0.00    +0.000 N 
ATOM     27  N   UNL     1       6.288   4.092  18.329  0.00  0.00    +0.000 NA
ATOM     28  C   UNL     1       5.573   4.071  17.218  0.00  0.00    +0.000 C 
ATOM     29  H   UNL     1       7.846   5.297  18.488  0.00  0.00    +0.000 HD
ENDBRANCH  22  28
ENDBRANCH   1  22
TORSDOF 4
ENDMDL
MODEL 8
REMARK VINA RESULT:      -8.6      2.821      8.166
REMARK  Name = 
REMARK  5 active torsions:
REMARK  status: ('A' for Active; 'I' for Inactive)
REMARK    1  A    between atoms: C_1  and  N_2
REMARK    2  A    between atoms: C_6  and  C_7
REMARK    3  A    between atoms: C_7  and  C_8
REMARK    4  A    between atoms: C_10  and  N_11
REMARK    5  A    between atoms: C_18  and  C_19
REMARK                            x       y       z     vdW  Elec       q    Type
REMARK                         _______ _______ _______ _____ _____    ______ ____
ROOT
ATOM      1  C   UNL     1       0.558  10.339  19.749  0.00  0.00    +0.000 A 
ATOM      2  C   UNL     1       1.177   9.240  19.121  0.00  0.00    +0.000 A 
ATOM      3  C   UNL     1       1.688   8.155  19.856  0.00  0.00    +0.000 A 
ATOM      4  C   UNL     1       1.556   8.189  21.253  0.00  0.00    +0.000 A 
ATOM      5  C   UNL     1       0.940   9.270  21.890  0.00  0.00    +0.000 A 
ATOM      6  C   UNL     1       0.441  10.326  21.137  0.00  0.00    +0.000 A 
ATOM      7  F   UNL     1      -0.140  11.351  21.775  0.00  0.00    +0.000 F 
ENDROOT
BRANCH   3   8
ATOM      8  N   UNL     1       2.329   7.055  19.221  0.00  0.00    +0.000 N 
ATOM      9  C   UNL     1       3.297   7.222  18.143  0.00  0.00    +0.000 C 
ATOM     10  C   UNL     1       3.697   5.818  17.803  0.00  0.00    +0.000 A 
ATOM     11  C   UNL     1       2.985   4.935  18.612  0.00  0.00    +0.000 A 
ATOM     12  C   UNL     1       3.100   3.561  18.511  0.00  0.00    +0.000 A 
ATOM     13  C   UNL     1       3.973   3.056  17.552  0.00  0.00    +0.000 A 
ATOM     14  C   UNL     1       4.712   3.931  16.735  0.00  0.00    +0.000 A 
ATOM     15  C   UNL     1       4.591   5.333  16.851  0.00  0.00    +0.000 A 
ATOM     16  C   UNL     1       2.125   5.706  19.515  0.00  0.00    +0.000 C 
ATOM     17  O   UNL     1       1.383   5.164  20.308  0.00  0.00    +0.000 OA
BRANCH  15  18
ATOM     18  C   UNL     1       5.414   6.226  15.961  0.00  0.00    +0.000 C 
ATOM     19  F   UNL     1       4.668   7.065  15.190  0.00  0.00    +0.000 F 
ATOM     20  F   UNL     1       6.260   7.025  16.668  0.00  0.00    +0.000 F 
ATOM     21  F   UNL     1       6.194   5.523  15.097  0.00  0.00    +0.000 F 
ENDBRANCH  15  18
ENDBRANCH   3   8
BRANCH   1  22
ATOM     22  C   UNL     1       0.075  11.523  18.948  0.00  0.00    +0.000 C 
BRANCH  22  28
ATOM     23  C   UNL     1      -1.896  10.016  16.985  0.00  0.00    +0.000 C 
ATOM     24  N   UNL     1      -2.242  10.725  18.190  0.00  0.00    +0.000 N 
ATOM     25  C   UNL     1      -3.569  11.287  18.314  0.00  0.00    +0.000 C 
ATOM     26  N   UNL     1      -3.411  12.495  19.124  0.00  0.00    +0.000 N 
ATOM     27  N   UNL     1      -2.066  12.640  19.427  0.00  0.00    +0.000 NA
ATOM     28  C   UNL     1      -1.426  11.646  18.837  0.00  0.00    +0.000 C 
ATOM     29  H   UNL     1      -3.948  12.419  19.987  0.00  0.00    +0.000 HD
ENDBRANCH  22  28
ENDBRANCH   1  22
TORSDOF 4
ENDMDL
MODEL 9
REMARK VINA RESULT:      -8.6      0.689      1.265
REMARK  Name = 
REMARK  5 active torsions:
REMARK  status: ('A' for Active; 'I' for Inactive)
REMARK    1  A    between atoms: C_1  and  N_2
REMARK    2  A    between atoms: C_6  and  C_7
REMARK    3  A    between atoms: C_7  and  C_8
REMARK    4  A    between atoms: C_10  and  N_11
REMARK    5  A    between atoms: C_18  and  C_19
REMARK                            x       y       z     vdW  Elec       q    Type
REMARK                         _______ _______ _______ _____ _____    ______ ____
ROOT
ATOM      1  C   UNL     1       2.948   5.037  17.903  0.00  0.00    +0.000 A 
ATOM      2  C   UNL     1       2.240   6.115  18.469  0.00  0.00    +0.000 A 
ATOM      3  C   UNL     1       2.657   7.449  18.302  0.00  0.00    +0.000 A 
ATOM      4  C   UNL     1       3.810   7.683  17.536  0.00  0.00    +0.000 A 
ATOM      5  C   UNL     1       4.521   6.624  16.964  0.00  0.00    +0.000 A 
ATOM      6  C   UNL     1       4.082   5.318  17.144  0.00  0.00    +0.000 A 
ATOM      7  F   UNL     1       4.786   4.322  16.587  0.00  0.00    +0.000 F 
ENDROOT
BRANCH   3   8
ATOM      8  N   UNL     1       1.950   8.534  18.890  0.00  0.00    +0.000 N 
ATOM      9  C   UNL     1       1.315   8.444  20.199  0.00  0.00    +0.000 C 
ATOM     10  C   UNL     1       0.713   9.803  20.396  0.00  0.00    +0.000 A 
ATOM     11  C   UNL     1       0.972  10.582  19.271  0.00  0.00    +0.000 A 
ATOM     12  C   UNL     1       0.511  11.877  19.129  0.00  0.00    +0.000 A 
ATOM     13  C   UNL     1      -0.244  12.410  20.169  0.00  0.00    +0.000 A 
ATOM     14  C   UNL     1      -0.504  11.645  21.321  0.00  0.00    +0.000 A 
ATOM     15  C   UNL     1      -0.023  10.325  21.458  0.00  0.00    +0.000 A 
ATOM     16  C   UNL     1       1.759   9.792  18.317  0.00  0.00    +0.000 C 
ATOM     17  O   UNL     1       2.094  10.242  17.240  0.00  0.00    +0.000 OA
BRANCH  15  18
ATOM     18  C   UNL     1      -0.318   9.553  22.716  0.00  0.00    +0.000 C 
ATOM     19  F   UNL     1       0.788   9.276  23.460  0.00  0.00    +0.000 F 
ATOM     20  F   UNL     1      -1.168  10.219  23.547  0.00  0.00    +0.000 F 
ATOM     21  F   UNL     1      -0.905   8.352  22.463  0.00  0.00    +0.000 F 
ENDBRANCH  15  18
ENDBRANCH   3   8
BRANCH   1  22
ATOM     22  C   UNL     1       2.522   3.610  18.148  0.00  0.00    +0.000 C 
BRANCH  22  28
ATOM     23  C   UNL     1       1.890   3.602  21.248  0.00  0.00    +0.000 C 
ATOM     24  N   UNL     1       2.740   2.687  20.531  0.00  0.00    +0.000 N 
ATOM     25  C   UNL     1       3.815   2.029  21.241  0.00  0.00    +0.000 C 
ATOM     26  N   UNL     1       4.883   1.849  20.258  0.00  0.00    +0.000 N 
ATOM     27  N   UNL     1       4.462   2.396  19.055  0.00  0.00    +0.000 NA
ATOM     28  C   UNL     1       3.261   2.909  19.262  0.00  0.00    +0.000 C 
ATOM     29  H   UNL     1       5.086   0.858  20.128  0.00  0.00    +0.000 HD
ENDBRANCH  22  28
ENDBRANCH   1  22
TORSDOF 4
ENDMDL
