MODEL 1
REMARK VINA RESULT:      -8.2      0.000      0.000
REMARK  Name = 
REMARK  5 active torsions:
REMARK  status: ('A' for Active; 'I' for Inactive)
REMARK    1  A    between atoms: C_1  and  C_2
REMARK    2  A    between atoms: C_7  and  C_8
REMARK    3  A    between atoms: C_12  and  C_13
REMARK    4  A    between atoms: N_15  and  C_16
REMARK    5  A    between atoms: C_24  and  O_25
REMARK                            x       y       z     vdW  Elec       q    Type
REMARK                         _______ _______ _______ _____ _____    ______ ____
ROOT
ATOM      1  C   UNL     1       4.184   3.858  16.738  0.00  0.00    +0.000 C 
ATOM      2  O   UNL     1       4.005   2.693  17.057  0.00  0.00    +0.000 OA
ATOM      3  N   UNL     1       3.425   4.908  17.222  0.00  0.00    +0.000 N 
ATOM      4  H   UNL     1       3.322   5.645  16.534  0.00  0.00    +0.000 HD
ENDROOT
BRANCH   1  13
ATOM      5  C   UNL     1       6.392   6.147  18.454  0.00  0.00    +0.000 C 
ATOM      6  C   UNL     1       6.824   5.979  17.049  0.00  0.00    +0.000 A 
ATOM      7  N   UNL     1       7.899   6.680  16.652  0.00  0.00    +0.000 NA
ATOM      8  O   UNL     1       8.109   6.332  15.336  0.00  0.00    +0.000 OA
ATOM      9  C   UNL     1       7.168   5.441  14.943  0.00  0.00    +0.000 A 
ATOM     10  N   UNL     1       7.150   4.941  13.697  0.00  0.00    +0.000 NA
ATOM     11  C   UNL     1       6.166   4.067  13.448  0.00  0.00    +0.000 A 
ATOM     12  C   UNL     1       5.228   3.714  14.423  0.00  0.00    +0.000 A 
ATOM     13  C   UNL     1       5.254   4.249  15.733  0.00  0.00    +0.000 A 
ATOM     14  C   UNL     1       6.297   5.166  15.998  0.00  0.00    +0.000 A 
BRANCH  11  15
ATOM     15  C   UNL     1       6.053   3.497  12.050  0.00  0.00    +0.000 C 
ATOM     16  C   UNL     1       4.687   3.231  11.458  0.00  0.00    +0.000 C 
ATOM     17  C   UNL     1       5.578   2.081  11.819  0.00  0.00    +0.000 C 
ENDBRANCH  11  15
ENDBRANCH   1  13
BRANCH   3  18
ATOM     18  C   UNL     1       2.164   4.847  17.989  0.00  0.00    +0.000 C 
ATOM     19  C   UNL     1       2.034   3.897  19.167  0.00  0.00    +0.000 A 
ATOM     20  C   UNL     1       1.491   2.623  19.197  0.00  0.00    +0.000 A 
ATOM     21  C   UNL     1       1.206   2.026  20.440  0.00  0.00    +0.000 A 
ATOM     22  C   UNL     1       1.485   2.690  21.645  0.00  0.00    +0.000 A 
ATOM     23  C   UNL     1       2.047   3.958  21.622  0.00  0.00    +0.000 A 
ATOM     24  C   UNL     1       2.290   4.549  20.387  0.00  0.00    +0.000 A 
ATOM     25  C   UNL     1       2.736   5.946  20.153  0.00  0.00    +0.000 C 
ATOM     26  C   UNL     1       2.082   6.209  18.783  0.00  0.00    +0.000 C 
BRANCH  26  27
ATOM     27  O   UNL     1       2.763   7.257  18.073  0.00  0.00    +0.000 OA
ATOM     28  H   UNL     1       2.732   8.062  18.620  0.00  0.00    +0.000 HD
ENDBRANCH  26  27
ENDBRANCH   3  18
TORSDOF 4
ENDMDL
MODEL 2
REMARK VINA RESULT:      -8.1      1.322      2.367
REMARK  Name = 
REMARK  5 active torsions:
REMARK  status: ('A' for Active; 'I' for Inactive)
REMARK    1  A    between atoms: C_1  and  C_2
REMARK    2  A    between atoms: C_7  and  C_8
REMARK    3  A    between atoms: C_12  and  C_13
REMARK    4  A    between atoms: N_15  and  C_16
REMARK    5  A    between atoms: C_24  and  O_25
REMARK                            x       y       z     vdW  Elec       q    Type
REMARK                         _______ _______ _______ _____ _____    ______ ____
ROOT
ATOM      1  C   UNL     1       4.382   3.709  16.747  0.00  0.00    +0.000 C 
ATOM      2  O   UNL     1       3.184   3.886  16.600  0.00  0.00    +0.000 OA
ATOM      3  N   UNL     1       4.937   3.132  17.875  0.00  0.00    +0.000 N 
ATOM      4  H   UNL     1       5.852   3.517  18.081  0.00  0.00    +0.000 HD
ENDROOT
BRANCH   1  13
ATOM      5  C   UNL     1       6.536   6.124  18.356  0.00  0.00    +0.000 C 
ATOM      6  C   UNL     1       6.914   5.973  16.934  0.00  0.00    +0.000 A 
ATOM      7  N   UNL     1       7.930   6.728  16.487  0.00  0.00    +0.000 NA
ATOM      8  O   UNL     1       8.102   6.385  15.164  0.00  0.00    +0.000 OA
ATOM      9  C   UNL     1       7.194   5.442  14.817  0.00  0.00    +0.000 A 
ATOM     10  N   UNL     1       7.149   4.935  13.574  0.00  0.00    +0.000 NA
ATOM     11  C   UNL     1       6.203   4.007  13.372  0.00  0.00    +0.000 A 
ATOM     12  C   UNL     1       5.330   3.609  14.388  0.00  0.00    +0.000 A 
ATOM     13  C   UNL     1       5.384   4.153  15.694  0.00  0.00    +0.000 A 
ATOM     14  C   UNL     1       6.386   5.126  15.909  0.00  0.00    +0.000 A 
BRANCH  11  15
ATOM     15  C   UNL     1       6.061   3.424  11.982  0.00  0.00    +0.000 C 
ATOM     16  C   UNL     1       4.682   3.152  11.422  0.00  0.00    +0.000 C 
ATOM     17  C   UNL     1       5.580   2.006  11.774  0.00  0.00    +0.000 C 
ENDBRANCH  11  15
ENDBRANCH   1  13
BRANCH   3  18
ATOM     18  C   UNL     1       4.285   2.841  19.167  0.00  0.00    +0.000 C 
ATOM     19  C   UNL     1       3.060   3.630  19.597  0.00  0.00    +0.000 A 
ATOM     20  C   UNL     1       2.990   4.742  20.420  0.00  0.00    +0.000 A 
ATOM     21  C   UNL     1       1.740   5.149  20.923  0.00  0.00    +0.000 A 
ATOM     22  C   UNL     1       0.564   4.460  20.586  0.00  0.00    +0.000 A 
ATOM     23  C   UNL     1       0.624   3.358  19.746  0.00  0.00    +0.000 A 
ATOM     24  C   UNL     1       1.870   2.947  19.286  0.00  0.00    +0.000 A 
ATOM     25  C   UNL     1       2.160   1.712  18.514  0.00  0.00    +0.000 C 
ATOM     26  C   UNL     1       3.598   1.431  18.990  0.00  0.00    +0.000 C 
BRANCH  26  27
ATOM     27  O   UNL     1       4.315   0.629  18.036  0.00  0.00    +0.000 OA
ATOM     28  H   UNL     1       3.667   0.092  17.547  0.00  0.00    +0.000 HD
ENDBRANCH  26  27
ENDBRANCH   3  18
TORSDOF 4
ENDMDL
MODEL 3
REMARK VINA RESULT:      -7.9      2.198      7.287
REMARK  Name = 
REMARK  5 active torsions:
REMARK  status: ('A' for Active; 'I' for Inactive)
REMARK    1  A    between atoms: C_1  and  C_2
REMARK    2  A    between atoms: C_7  and  C_8
REMARK    3  A    between atoms: C_12  and  C_13
REMARK    4  A    between atoms: N_15  and  C_16
REMARK    5  A    between atoms: C_24  and  O_25
REMARK                            x       y       z     vdW  Elec       q    Type
REMARK                         _______ _______ _______ _____ _____    ______ ____
ROOT
ATOM      1  C   UNL     1       3.649   4.453  17.058  0.00  0.00    +0.000 C 
ATOM      2  O   UNL     1       3.028   3.467  16.695  0.00  0.00    +0.000 OA
ATOM      3  N   UNL     1       4.931   4.748  16.633  0.00  0.00    +0.000 N 
ATOM      4  H   UNL     1       5.467   5.221  17.353  0.00  0.00    +0.000 HD
ENDROOT
BRANCH   1  13
ATOM      5  C   UNL     1       3.132   2.598  20.116  0.00  0.00    +0.000 C 
ATOM      6  C   UNL     1       2.658   3.990  20.278  0.00  0.00    +0.000 A 
ATOM      7  N   UNL     1       2.124   4.320  21.465  0.00  0.00    +0.000 NA
ATOM      8  O   UNL     1       1.794   5.654  21.372  0.00  0.00    +0.000 OA
ATOM      9  C   UNL     1       2.116   6.119  20.141  0.00  0.00    +0.000 A 
ATOM     10  N   UNL     1       1.895   7.396  19.793  0.00  0.00    +0.000 NA
ATOM     11  C   UNL     1       2.266   7.719  18.546  0.00  0.00    +0.000 A 
ATOM     12  C   UNL     1       2.836   6.782  17.680  0.00  0.00    +0.000 A 
ATOM     13  C   UNL     1       3.062   5.436  18.056  0.00  0.00    +0.000 A 
ATOM     14  C   UNL     1       2.678   5.098  19.374  0.00  0.00    +0.000 A 
BRANCH  11  15
ATOM     15  C   UNL     1       2.003   9.131  18.066  0.00  0.00    +0.000 C 
ATOM     16  C   UNL     1       1.406  10.145  19.015  0.00  0.00    +0.000 C 
ATOM     17  C   UNL     1       0.594   9.638  17.862  0.00  0.00    +0.000 C 
ENDBRANCH  11  15
ENDBRANCH   1  13
BRANCH   3  18
ATOM     18  C   UNL     1       5.870   3.883  15.889  0.00  0.00    +0.000 C 
ATOM     19  C   UNL     1       6.054   4.068  14.393  0.00  0.00    +0.000 A 
ATOM     20  C   UNL     1       5.441   3.388  13.353  0.00  0.00    +0.000 A 
ATOM     21  C   UNL     1       5.958   3.512  12.050  0.00  0.00    +0.000 A 
ATOM     22  C   UNL     1       7.068   4.329  11.785  0.00  0.00    +0.000 A 
ATOM     23  C   UNL     1       7.675   5.028  12.818  0.00  0.00    +0.000 A 
ATOM     24  C   UNL     1       7.175   4.869  14.105  0.00  0.00    +0.000 A 
ATOM     25  C   UNL     1       7.774   5.401  15.355  0.00  0.00    +0.000 C 
ATOM     26  C   UNL     1       7.313   4.322  16.353  0.00  0.00    +0.000 C 
BRANCH  26  27
ATOM     27  O   UNL     1       7.285   4.833  17.696  0.00  0.00    +0.000 OA
ATOM     28  H   UNL     1       7.339   4.077  18.308  0.00  0.00    +0.000 HD
ENDBRANCH  26  27
ENDBRANCH   3  18
TORSDOF 4
ENDMDL
MODEL 4
REMARK VINA RESULT:      -7.7      3.591      6.123
REMARK  Name = 
REMARK  5 active torsions:
REMARK  status: ('A' for Active; 'I' for Inactive)
REMARK    1  A    between atoms: C_1  and  C_2
REMARK    2  A    between atoms: C_7  and  C_8
REMARK    3  A    between atoms: C_12  and  C_13
REMARK    4  A    between atoms: N_15  and  C_16
REMARK    5  A    between atoms: C_24  and  O_25
REMARK                            x       y       z     vdW  Elec       q    Type
REMARK                         _______ _______ _______ _____ _____    ______ ____
ROOT
ATOM      1  C   UNL     1       2.265   6.566  19.860  0.00  0.00    +0.000 C 
ATOM      2  O   UNL     1       1.501   6.193  20.736  0.00  0.00    +0.000 OA
ATOM      3  N   UNL     1       2.097   7.739  19.148  0.00  0.00    +0.000 N 
ATOM      4  H   UNL     1       2.435   7.652  18.196  0.00  0.00    +0.000 HD
ENDROOT
BRANCH   1  13
ATOM      5  C   UNL     1       1.736   3.274  21.253  0.00  0.00    +0.000 C 
ATOM      6  C   UNL     1       3.037   3.327  20.552  0.00  0.00    +0.000 A 
ATOM      7  N   UNL     1       3.782   2.209  20.559  0.00  0.00    +0.000 NA
ATOM      8  O   UNL     1       4.911   2.504  19.827  0.00  0.00    +0.000 OA
ATOM      9  C   UNL     1       4.851   3.786  19.393  0.00  0.00    +0.000 A 
ATOM     10  N   UNL     1       5.834   4.324  18.653  0.00  0.00    +0.000 NA
ATOM     11  C   UNL     1       5.641   5.599  18.290  0.00  0.00    +0.000 A 
ATOM     12  C   UNL     1       4.497   6.308  18.666  0.00  0.00    +0.000 A 
ATOM     13  C   UNL     1       3.467   5.733  19.449  0.00  0.00    +0.000 A 
ATOM     14  C   UNL     1       3.668   4.385  19.825  0.00  0.00    +0.000 A 
BRANCH  11  15
ATOM     15  C   UNL     1       6.730   6.288  17.494  0.00  0.00    +0.000 C 
ATOM     16  C   UNL     1       7.887   6.939  18.217  0.00  0.00    +0.000 C 
ATOM     17  C   UNL     1       6.878   7.792  17.511  0.00  0.00    +0.000 C 
ENDBRANCH  11  15
ENDBRANCH   1  13
BRANCH   3  18
ATOM     18  C   UNL     1       0.916   8.626  19.112  0.00  0.00    +0.000 C 
ATOM     19  C   UNL     1       0.620   9.547  20.283  0.00  0.00    +0.000 A 
ATOM     20  C   UNL     1      -0.233   9.340  21.355  0.00  0.00    +0.000 A 
ATOM     21  C   UNL     1      -0.583  10.428  22.177  0.00  0.00    +0.000 A 
ATOM     22  C   UNL     1      -0.063  11.710  21.942  0.00  0.00    +0.000 A 
ATOM     23  C   UNL     1       0.807  11.921  20.882  0.00  0.00    +0.000 A 
ATOM     24  C   UNL     1       1.115  10.845  20.059  0.00  0.00    +0.000 A 
ATOM     25  C   UNL     1       1.894  10.897  18.794  0.00  0.00    +0.000 C 
ATOM     26  C   UNL     1       1.243   9.728  18.031  0.00  0.00    +0.000 C 
BRANCH  26  27
ATOM     27  O   UNL     1       2.126   9.209  17.022  0.00  0.00    +0.000 OA
ATOM     28  H   UNL     1       1.816   8.319  16.778  0.00  0.00    +0.000 HD
ENDBRANCH  26  27
ENDBRANCH   3  18
TORSDOF 4
ENDMDL
MODEL 5
REMARK VINA RESULT:      -7.6      5.211      8.110
REMARK  Name = 
REMARK  5 active torsions:
REMARK  status: ('A' for Active; 'I' for Inactive)
REMARK    1  A    between atoms: C_1  and  C_2
REMARK    2  A    between atoms: C_7  and  C_8
REMARK    3  A    between atoms: C_12  and  C_13
REMARK    4  A    between atoms: N_15  and  C_16
REMARK    5  A    between atoms: C_24  and  O_25
REMARK                            x       y       z     vdW  Elec       q    Type
REMARK                         _______ _______ _______ _____ _____    ______ ____
ROOT
ATOM      1  C   UNL     1       0.860   9.387  19.938  0.00  0.00    +0.000 C 
ATOM      2  O   UNL     1       1.148   9.626  21.100  0.00  0.00    +0.000 OA
ATOM      3  N   UNL     1       1.312   8.275  19.251  0.00  0.00    +0.000 N 
ATOM      4  H   UNL     1       1.447   8.472  18.265  0.00  0.00    +0.000 HD
ENDROOT
BRANCH   1  13
ATOM      5  C   UNL     1       2.101  12.715  20.602  0.00  0.00    +0.000 C 
ATOM      6  C   UNL     1       0.931  12.779  19.700  0.00  0.00    +0.000 A 
ATOM      7  N   UNL     1       0.526  13.998  19.307  0.00  0.00    +0.000 NA
ATOM      8  O   UNL     1      -0.543  13.787  18.465  0.00  0.00    +0.000 OA
ATOM      9  C   UNL     1      -0.785  12.459  18.360  0.00  0.00    +0.000 A 
ATOM     10  N   UNL     1      -1.781  11.985  17.594  0.00  0.00    +0.000 NA
ATOM     11  C   UNL     1      -1.904  10.651  17.580  0.00  0.00    +0.000 A 
ATOM     12  C   UNL     1      -1.053   9.824  18.318  0.00  0.00    +0.000 A 
ATOM     13  C   UNL     1      -0.008  10.334  19.126  0.00  0.00    +0.000 A 
ATOM     14  C   UNL     1       0.126  11.741  19.134  0.00  0.00    +0.000 A 
BRANCH  11  15
ATOM     15  C   UNL     1      -3.035  10.046  16.775  0.00  0.00    +0.000 C 
ATOM     16  C   UNL     1      -2.927   9.974  15.269  0.00  0.00    +0.000 C 
ATOM     17  C   UNL     1      -3.918  10.905  15.899  0.00  0.00    +0.000 C 
ENDBRANCH  11  15
ENDBRANCH   1  13
BRANCH   3  18
ATOM     18  C   UNL     1       2.363   7.318  19.652  0.00  0.00    +0.000 C 
ATOM     19  C   UNL     1       2.016   5.858  19.882  0.00  0.00    +0.000 A 
ATOM     20  C   UNL     1       1.722   5.213  21.073  0.00  0.00    +0.000 A 
ATOM     21  C   UNL     1       1.709   3.806  21.109  0.00  0.00    +0.000 A 
ATOM     22  C   UNL     1       1.965   3.048  19.956  0.00  0.00    +0.000 A 
ATOM     23  C   UNL     1       2.240   3.687  18.755  0.00  0.00    +0.000 A 
ATOM     24  C   UNL     1       2.284   5.076  18.743  0.00  0.00    +0.000 A 
ATOM     25  C   UNL     1       2.711   5.934  17.607  0.00  0.00    +0.000 C 
ATOM     26  C   UNL     1       3.282   7.137  18.382  0.00  0.00    +0.000 C 
BRANCH  26  27
ATOM     27  O   UNL     1       3.277   8.326  17.573  0.00  0.00    +0.000 OA
ATOM     28  H   UNL     1       2.420   8.375  17.115  0.00  0.00    +0.000 HD
ENDBRANCH  26  27
ENDBRANCH   3  18
TORSDOF 4
ENDMDL
MODEL 6
REMARK VINA RESULT:      -7.5      2.509      7.626
REMARK  Name = 
REMARK  5 active torsions:
REMARK  status: ('A' for Active; 'I' for Inactive)
REMARK    1  A    between atoms: C_1  and  C_2
REMARK    2  A    between atoms: C_7  and  C_8
REMARK    3  A    between atoms: C_12  and  C_13
REMARK    4  A    between atoms: N_15  and  C_16
REMARK    5  A    between atoms: C_24  and  O_25
REMARK                            x       y       z     vdW  Elec       q    Type
REMARK                         _______ _______ _______ _____ _____    ______ ____
ROOT
ATOM      1  C   UNL     1       4.221   5.532  18.127  0.00  0.00    +0.000 C 
ATOM      2  O   UNL     1       4.130   6.039  17.021  0.00  0.00    +0.000 OA
ATOM      3  N   UNL     1       5.308   4.781  18.536  0.00  0.00    +0.000 N 
ATOM      4  H   UNL     1       5.036   4.045  19.179  0.00  0.00    +0.000 HD
ENDROOT
BRANCH   1  13
ATOM      5  C   UNL     1       3.317   2.158  19.054  0.00  0.00    +0.000 C 
ATOM      6  C   UNL     1       2.451   3.129  19.758  0.00  0.00    +0.000 A 
ATOM      7  N   UNL     1       1.506   2.629  20.571  0.00  0.00    +0.000 NA
ATOM      8  O   UNL     1       0.866   3.718  21.119  0.00  0.00    +0.000 OA
ATOM      9  C   UNL     1       1.412   4.859  20.635  0.00  0.00    +0.000 A 
ATOM     10  N   UNL     1       0.965   6.067  21.014  0.00  0.00    +0.000 NA
ATOM     11  C   UNL     1       1.599   7.109  20.459  0.00  0.00    +0.000 A 
ATOM     12  C   UNL     1       2.645   6.936  19.548  0.00  0.00    +0.000 A 
ATOM     13  C   UNL     1       3.107   5.657  19.152  0.00  0.00    +0.000 A 
ATOM     14  C   UNL     1       2.442   4.559  19.744  0.00  0.00    +0.000 A 
BRANCH  11  15
ATOM     15  C   UNL     1       1.119   8.503  20.802  0.00  0.00    +0.000 C 
ATOM     16  C   UNL     1       1.294   9.030  22.208  0.00  0.00    +0.000 C 
ATOM     17  C   UNL     1      -0.080   8.719  21.696  0.00  0.00    +0.000 C 
ENDBRANCH  11  15
ENDBRANCH   1  13
BRANCH   3  18
ATOM     18  C   UNL     1       6.416   4.253  17.714  0.00  0.00    +0.000 C 
ATOM     19  C   UNL     1       6.366   4.376  16.201  0.00  0.00    +0.000 A 
ATOM     20  C   UNL     1       5.939   3.443  15.269  0.00  0.00    +0.000 A 
ATOM     21  C   UNL     1       6.241   3.643  13.908  0.00  0.00    +0.000 A 
ATOM     22  C   UNL     1       6.945   4.779  13.480  0.00  0.00    +0.000 A 
ATOM     23  C   UNL     1       7.358   5.726  14.406  0.00  0.00    +0.000 A 
ATOM     24  C   UNL     1       7.084   5.499  15.749  0.00  0.00    +0.000 A 
ATOM     25  C   UNL     1       7.573   6.305  16.897  0.00  0.00    +0.000 C 
ATOM     26  C   UNL     1       7.640   5.212  17.981  0.00  0.00    +0.000 C 
BRANCH  26  27
ATOM     27  O   UNL     1       7.566   5.781  19.299  0.00  0.00    +0.000 OA
ATOM     28  H   UNL     1       7.003   5.204  19.845  0.00  0.00    +0.000 HD
ENDBRANCH  26  27
ENDBRANCH   3  18
TORSDOF 4
ENDMDL
MODEL 7
REMARK VINA RESULT:      -7.3      3.429      5.695
REMARK  Name = 
REMARK  5 active torsions:
REMARK  status: ('A' for Active; 'I' for Inactive)
REMARK    1  A    between atoms: C_1  and  C_2
REMARK    2  A    between atoms: C_7  and  C_8
REMARK    3  A    between atoms: C_12  and  C_13
REMARK    4  A    between atoms: N_15  and  C_16
REMARK    5  A    between atoms: C_24  and  O_25
REMARK                            x       y       z     vdW  Elec       q    Type
REMARK                         _______ _______ _______ _____ _____    ______ ____
ROOT
ATOM      1  C   UNL     1       2.136   6.601  19.768  0.00  0.00    +0.000 C 
ATOM      2  O   UNL     1       1.505   6.274  20.761  0.00  0.00    +0.000 OA
ATOM      3  N   UNL     1       1.874   7.747  19.040  0.00  0.00    +0.000 N 
ATOM      4  H   UNL     1       2.068   7.617  18.053  0.00  0.00    +0.000 HD
ENDROOT
BRANCH   1  13
ATOM      5  C   UNL     1       2.035   3.513  21.643  0.00  0.00    +0.000 C 
ATOM      6  C   UNL     1       3.160   3.490  20.682  0.00  0.00    +0.000 A 
ATOM      7  N   UNL     1       3.934   2.392  20.673  0.00  0.00    +0.000 NA
ATOM      8  O   UNL     1       4.874   2.602  19.689  0.00  0.00    +0.000 OA
ATOM      9  C   UNL     1       4.676   3.815  19.120  0.00  0.00    +0.000 A 
ATOM     10  N   UNL     1       5.463   4.264  18.129  0.00  0.00    +0.000 NA
ATOM     11  C   UNL     1       5.149   5.478  17.657  0.00  0.00    +0.000 A 
ATOM     12  C   UNL     1       4.080   6.217  18.174  0.00  0.00    +0.000 A 
ATOM     13  C   UNL     1       3.258   5.736  19.222  0.00  0.00    +0.000 A 
ATOM     14  C   UNL     1       3.585   4.452  19.713  0.00  0.00    +0.000 A 
BRANCH  11  15
ATOM     15  C   UNL     1       6.022   6.070  16.571  0.00  0.00    +0.000 C 
ATOM     16  C   UNL     1       5.821   5.642  15.134  0.00  0.00    +0.000 C 
ATOM     17  C   UNL     1       7.065   5.235  15.864  0.00  0.00    +0.000 C 
ENDBRANCH  11  15
ENDBRANCH   1  13
BRANCH   3  18
ATOM     18  C   UNL     1       0.708   8.648  19.140  0.00  0.00    +0.000 C 
ATOM     19  C   UNL     1       0.456   9.429  20.418  0.00  0.00    +0.000 A 
ATOM     20  C   UNL     1      -0.374   9.109  21.481  0.00  0.00    +0.000 A 
ATOM     21  C   UNL     1      -0.684  10.098  22.433  0.00  0.00    +0.000 A 
ATOM     22  C   UNL     1      -0.150  11.392  22.336  0.00  0.00    +0.000 A 
ATOM     23  C   UNL     1       0.697  11.713  21.285  0.00  0.00    +0.000 A 
ATOM     24  C   UNL     1       0.967  10.737  20.333  0.00  0.00    +0.000 A 
ATOM     25  C   UNL     1       1.714  10.927  19.063  0.00  0.00    +0.000 C 
ATOM     26  C   UNL     1       1.025   9.864  18.186  0.00  0.00    +0.000 C 
BRANCH  26  27
ATOM     27  O   UNL     1       1.874   9.456  17.101  0.00  0.00    +0.000 OA
ATOM     28  H   UNL     1       2.748   9.864  17.232  0.00  0.00    +0.000 HD
ENDBRANCH  26  27
ENDBRANCH   3  18
TORSDOF 4
ENDMDL
MODEL 8
REMARK VINA RESULT:      -7.2      3.548      6.144
REMARK  Name = 
REMARK  5 active torsions:
REMARK  status: ('A' for Active; 'I' for Inactive)
REMARK    1  A    between atoms: C_1  and  C_2
REMARK    2  A    between atoms: C_7  and  C_8
REMARK    3  A    between atoms: C_12  and  C_13
REMARK    4  A    between atoms: N_15  and  C_16
REMARK    5  A    between atoms: C_24  and  O_25
REMARK                            x       y       z     vdW  Elec       q    Type
REMARK                         _______ _______ _______ _____ _____    ______ ____
ROOT
ATOM      1  C   UNL     1       2.626   7.921  18.171  0.00  0.00    +0.000 C 
ATOM      2  O   UNL     1       2.897   8.735  17.303  0.00  0.00    +0.000 OA
ATOM      3  N   UNL     1       2.000   8.249  19.359  0.00  0.00    +0.000 N 
ATOM      4  H   UNL     1       2.312   7.660  20.123  0.00  0.00    +0.000 HD
ENDROOT
BRANCH   1  13
ATOM      5  C   UNL     1       6.112   7.852  17.219  0.00  0.00    +0.000 C 
ATOM      6  C   UNL     1       5.572   6.477  17.273  0.00  0.00    +0.000 A 
ATOM      7  N   UNL     1       6.412   5.476  16.960  0.00  0.00    +0.000 NA
ATOM      8  O   UNL     1       5.689   4.315  17.114  0.00  0.00    +0.000 OA
ATOM      9  C   UNL     1       4.426   4.612  17.504  0.00  0.00    +0.000 A 
ATOM     10  N   UNL     1       3.515   3.651  17.725  0.00  0.00    +0.000 NA
ATOM     11  C   UNL     1       2.308   4.088  18.111  0.00  0.00    +0.000 A 
ATOM     12  C   UNL     1       2.031   5.449  18.264  0.00  0.00    +0.000 A 
ATOM     13  C   UNL     1       2.998   6.455  18.026  0.00  0.00    +0.000 A 
ATOM     14  C   UNL     1       4.273   5.993  17.626  0.00  0.00    +0.000 A 
BRANCH  11  15
ATOM     15  C   UNL     1       1.215   3.064  18.332  0.00  0.00    +0.000 C 
ATOM     16  C   UNL     1       0.732   2.776  19.736  0.00  0.00    +0.000 C 
ATOM     17  C   UNL     1       1.509   1.735  18.988  0.00  0.00    +0.000 C 
ENDBRANCH  11  15
ENDBRANCH   1  13
BRANCH   3  18
ATOM     18  C   UNL     1       1.751   9.593  19.920  0.00  0.00    +0.000 C 
ATOM     19  C   UNL     1       0.603  10.437  19.392  0.00  0.00    +0.000 A 
ATOM     20  C   UNL     1       0.629  11.430  18.426  0.00  0.00    +0.000 A 
ATOM     21  C   UNL     1      -0.480  12.284  18.288  0.00  0.00    +0.000 A 
ATOM     22  C   UNL     1      -1.619  12.133  19.095  0.00  0.00    +0.000 A 
ATOM     23  C   UNL     1      -1.659  11.128  20.051  0.00  0.00    +0.000 A 
ATOM     24  C   UNL     1      -0.542  10.314  20.200  0.00  0.00    +0.000 A 
ATOM     25  C   UNL     1      -0.330   9.296  21.261  0.00  0.00    +0.000 C 
ATOM     26  C   UNL     1       1.205   9.351  21.380  0.00  0.00    +0.000 C 
BRANCH  26  27
ATOM     27  O   UNL     1       1.729   8.129  21.926  0.00  0.00    +0.000 OA
ATOM     28  H   UNL     1       0.986   7.623  22.300  0.00  0.00    +0.000 HD
ENDBRANCH  26  27
ENDBRANCH   3  18
TORSDOF 4
ENDMDL
MODEL 9
REMARK VINA RESULT:      -7.0      7.202     10.549
REMARK  Name = 
REMARK  5 active torsions:
REMARK  status: ('A' for Active; 'I' for Inactive)
REMARK    1  A    between atoms: C_1  and  C_2
REMARK    2  A    between atoms: C_7  and  C_8
REMARK    3  A    between atoms: C_12  and  C_13
REMARK    4  A    between atoms: N_15  and  C_16
REMARK    5  A    between atoms: C_24  and  O_25
REMARK                            x       y       z     vdW  Elec       q    Type
REMARK                         _______ _______ _______ _____ _____    ______ ____
ROOT
ATOM      1  C   UNL     1      -1.249  11.696  20.042  0.00  0.00    +0.000 C 
ATOM      2  O   UNL     1      -0.780  12.573  20.750  0.00  0.00    +0.000 OA
ATOM      3  N   UNL     1      -0.596  10.511  19.758  0.00  0.00    +0.000 N 
ATOM      4  H   UNL     1      -0.819  10.173  18.829  0.00  0.00    +0.000 HD
ENDROOT
BRANCH   1  13
ATOM      5  C   UNL     1      -3.455  13.084  22.546  0.00  0.00    +0.000 C 
ATOM      6  C   UNL     1      -4.199  12.841  21.291  0.00  0.00    +0.000 A 
ATOM      7  N   UNL     1      -5.508  13.142  21.287  0.00  0.00    +0.000 NA
ATOM      8  O   UNL     1      -5.955  12.857  20.016  0.00  0.00    +0.000 OA
ATOM      9  C   UNL     1      -4.932  12.382  19.267  0.00  0.00    +0.000 A 
ATOM     10  N   UNL     1      -5.106  12.028  17.984  0.00  0.00    +0.000 NA
ATOM     11  C   UNL     1      -4.007  11.579  17.363  0.00  0.00    +0.000 A 
ATOM     12  C   UNL     1      -2.775  11.485  18.018  0.00  0.00    +0.000 A 
ATOM     13  C   UNL     1      -2.603  11.858  19.373  0.00  0.00    +0.000 A 
ATOM     14  C   UNL     1      -3.761  12.339  20.025  0.00  0.00    +0.000 A 
BRANCH  11  15
ATOM     15  C   UNL     1      -4.136  11.116  15.927  0.00  0.00    +0.000 C 
ATOM     16  C   UNL     1      -3.812   9.682  15.571  0.00  0.00    +0.000 C 
ATOM     17  C   UNL     1      -2.915  10.786  15.099  0.00  0.00    +0.000 C 
ENDBRANCH  11  15
ENDBRANCH   1  13
BRANCH   3  18
ATOM     18  C   UNL     1       0.814  10.159  20.024  0.00  0.00    +0.000 C 
ATOM     19  C   UNL     1       1.275   8.717  19.897  0.00  0.00    +0.000 A 
ATOM     20  C   UNL     1       1.406   7.759  20.889  0.00  0.00    +0.000 A 
ATOM     21  C   UNL     1       2.118   6.576  20.614  0.00  0.00    +0.000 A 
ATOM     22  C   UNL     1       2.676   6.344  19.347  0.00  0.00    +0.000 A 
ATOM     23  C   UNL     1       2.531   7.290  18.343  0.00  0.00    +0.000 A 
ATOM     24  C   UNL     1       1.856   8.468  18.640  0.00  0.00    +0.000 A 
ATOM     25  C   UNL     1       1.733   9.659  17.760  0.00  0.00    +0.000 C 
ATOM     26  C   UNL     1       1.639  10.769  18.825  0.00  0.00    +0.000 C 
BRANCH  26  27
ATOM     27  O   UNL     1       0.990  11.939  18.300  0.00  0.00    +0.000 OA
ATOM     28  H   UNL     1       0.765  12.520  19.048  0.00  0.00    +0.000 HD
ENDBRANCH  26  27
ENDBRANCH   3  18
TORSDOF 4
ENDMDL
