MODEL 1
REMARK VINA RESULT:      -8.7      0.000      0.000
REMARK  Name = 
REMARK  4 active torsions:
REMARK  status: ('A' for Active; 'I' for Inactive)
REMARK    1  A    between atoms: C_2  and  C_16
REMARK    2  A    between atoms: N_3  and  C_4
REMARK    3  A    between atoms: C_4  and  C_5
REMARK    4  A    between atoms: C_5  and  C_6
REMARK                            x       y       z     vdW  Elec       q    Type
REMARK                         _______ _______ _______ _____ _____    ______ ____
ROOT
ATOM      1  O   UNL     1       0.859  10.105  19.991  0.00  0.00    +0.000 OA
ATOM      2  C   UNL     1       0.341  10.051  18.883  0.00  0.00    +0.000 C 
ATOM      3  N   UNL     1       0.946   9.478  17.783  0.00  0.00    +0.000 N 
ATOM      4  H   UNL     1       0.551   9.631  16.865  0.00  0.00    +0.000 HD
ENDROOT
BRANCH   2   5
ATOM      5  C   UNL     1      -0.995  10.651  18.663  0.00  0.00    +0.000 A 
ATOM      6  C   UNL     1      -1.498  11.529  19.628  0.00  0.00    +0.000 A 
ATOM      7  N   UNL     1      -2.705  12.161  19.583  0.00  0.00    +0.000 NA
ATOM      8  C   UNL     1      -3.403  11.820  18.485  0.00  0.00    +0.000 A 
ATOM      9  N   UNL     1      -4.651  12.252  18.145  0.00  0.00    +0.000 N 
ATOM     10  C   UNL     1      -4.988  11.646  16.964  0.00  0.00    +0.000 A 
ATOM     11  N   UNL     1      -4.026  10.861  16.522  0.00  0.00    +0.000 NA
ATOM     12  C   UNL     1      -3.032  10.956  17.463  0.00  0.00    +0.000 A 
ATOM     13  C   UNL     1      -1.779  10.340  17.544  0.00  0.00    +0.000 A 
ATOM     14  H   UNL     1      -5.213  12.892  18.685  0.00  0.00    +0.000 HD
ENDBRANCH   2   5
BRANCH   3  15
ATOM     15  C   UNL     1       2.278   8.900  17.881  0.00  0.00    +0.000 C 
BRANCH  15  16
ATOM     16  C   UNL     1       2.254   7.551  18.599  0.00  0.00    +0.000 C 
BRANCH  16  17
ATOM     17  C   UNL     1       3.140   6.510  17.947  0.00  0.00    +0.000 A 
ATOM     18  C   UNL     1       4.293   6.963  17.280  0.00  0.00    +0.000 A 
ATOM     19  C   UNL     1       5.134   6.072  16.620  0.00  0.00    +0.000 A 
ATOM     20  C   UNL     1       4.831   4.713  16.613  0.00  0.00    +0.000 A 
ATOM     21  C   UNL     1       3.698   4.225  17.275  0.00  0.00    +0.000 A 
ATOM     22  C   UNL     1       3.409   2.851  17.245  0.00  0.00    +0.000 A 
ATOM     23  C   UNL     1       2.291   2.337  17.899  0.00  0.00    +0.000 A 
ATOM     24  C   UNL     1       1.455   3.191  18.605  0.00  0.00    +0.000 A 
ATOM     25  C   UNL     1       1.729   4.561  18.643  0.00  0.00    +0.000 A 
ATOM     26  C   UNL     1       2.840   5.118  17.970  0.00  0.00    +0.000 A 
ENDBRANCH  16  17
ENDBRANCH  15  16
ENDBRANCH   3  15
TORSDOF 4
ENDMDL
MODEL 2
REMARK VINA RESULT:      -8.6      5.882      8.534
REMARK  Name = 
REMARK  4 active torsions:
REMARK  status: ('A' for Active; 'I' for Inactive)
REMARK    1  A    between atoms: C_2  and  C_16
REMARK    2  A    between atoms: N_3  and  C_4
REMARK    3  A    between atoms: C_4  and  C_5
REMARK    4  A    between atoms: C_5  and  C_6
REMARK                            x       y       z     vdW  Elec       q    Type
REMARK                         _______ _______ _______ _____ _____    ______ ____
ROOT
ATOM      1  O   UNL     1       6.103   3.906  15.562  0.00  0.00    +0.000 OA
ATOM      2  C   UNL     1       5.903   4.228  16.726  0.00  0.00    +0.000 C 
ATOM      3  N   UNL     1       4.935   3.653  17.523  0.00  0.00    +0.000 N 
ATOM      4  H   UNL     1       4.697   4.088  18.406  0.00  0.00    +0.000 HD
ENDROOT
BRANCH   2   5
ATOM      5  C   UNL     1       6.703   5.313  17.339  0.00  0.00    +0.000 A 
ATOM      6  C   UNL     1       7.472   5.017  18.469  0.00  0.00    +0.000 A 
ATOM      7  N   UNL     1       8.257   5.895  19.155  0.00  0.00    +0.000 NA
ATOM      8  C   UNL     1       8.195   7.132  18.630  0.00  0.00    +0.000 A 
ATOM      9  N   UNL     1       8.837   8.245  19.085  0.00  0.00    +0.000 N 
ATOM     10  C   UNL     1       8.482   9.287  18.271  0.00  0.00    +0.000 A 
ATOM     11  N   UNL     1       7.658   8.905  17.316  0.00  0.00    +0.000 NA
ATOM     12  C   UNL     1       7.466   7.563  17.529  0.00  0.00    +0.000 A 
ATOM     13  C   UNL     1       6.685   6.625  16.848  0.00  0.00    +0.000 A 
ATOM     14  H   UNL     1       9.451   8.277  19.885  0.00  0.00    +0.000 HD
ENDBRANCH   2   5
BRANCH   3  15
ATOM     15  C   UNL     1       4.064   2.610  17.004  0.00  0.00    +0.000 C 
BRANCH  15  16
ATOM     16  C   UNL     1       2.592   3.011  17.093  0.00  0.00    +0.000 C 
BRANCH  16  17
ATOM     17  C   UNL     1       2.163   3.413  18.489  0.00  0.00    +0.000 A 
ATOM     18  C   UNL     1       1.742   2.391  19.359  0.00  0.00    +0.000 A 
ATOM     19  C   UNL     1       1.292   2.685  20.642  0.00  0.00    +0.000 A 
ATOM     20  C   UNL     1       1.252   4.008  21.075  0.00  0.00    +0.000 A 
ATOM     21  C   UNL     1       1.674   5.050  20.240  0.00  0.00    +0.000 A 
ATOM     22  C   UNL     1       1.615   6.378  20.695  0.00  0.00    +0.000 A 
ATOM     23  C   UNL     1       2.033   7.434  19.888  0.00  0.00    +0.000 A 
ATOM     24  C   UNL     1       2.529   7.173  18.619  0.00  0.00    +0.000 A 
ATOM     25  C   UNL     1       2.593   5.858  18.151  0.00  0.00    +0.000 A 
ATOM     26  C   UNL     1       2.154   4.765  18.934  0.00  0.00    +0.000 A 
ENDBRANCH  16  17
ENDBRANCH  15  16
ENDBRANCH   3  15
TORSDOF 4
ENDMDL
MODEL 3
REMARK VINA RESULT:      -8.4      0.753      1.411
REMARK  Name = 
REMARK  4 active torsions:
REMARK  status: ('A' for Active; 'I' for Inactive)
REMARK    1  A    between atoms: C_2  and  C_16
REMARK    2  A    between atoms: N_3  and  C_4
REMARK    3  A    between atoms: C_4  and  C_5
REMARK    4  A    between atoms: C_5  and  C_6
REMARK                            x       y       z     vdW  Elec       q    Type
REMARK                         _______ _______ _______ _____ _____    ______ ____
ROOT
ATOM      1  O   UNL     1       0.158  10.169  19.749  0.00  0.00    +0.000 OA
ATOM      2  C   UNL     1      -0.128  10.001  18.571  0.00  0.00    +0.000 C 
ATOM      3  N   UNL     1       0.760   9.526  17.628  0.00  0.00    +0.000 N 
ATOM      4  H   UNL     1       0.521   9.587  16.647  0.00  0.00    +0.000 HD
ENDROOT
BRANCH   2   5
ATOM      5  C   UNL     1      -1.484  10.347  18.085  0.00  0.00    +0.000 A 
ATOM      6  C   UNL     1      -1.906   9.822  16.859  0.00  0.00    +0.000 A 
ATOM      7  N   UNL     1      -3.114  10.044  16.268  0.00  0.00    +0.000 NA
ATOM      8  C   UNL     1      -3.881  10.872  16.999  0.00  0.00    +0.000 A 
ATOM      9  N   UNL     1      -5.131  11.315  16.686  0.00  0.00    +0.000 N 
ATOM     10  C   UNL     1      -5.536  12.150  17.693  0.00  0.00    +0.000 A 
ATOM     11  N   UNL     1      -4.622  12.261  18.636  0.00  0.00    +0.000 NA
ATOM     12  C   UNL     1      -3.582  11.471  18.215  0.00  0.00    +0.000 A 
ATOM     13  C   UNL     1      -2.336  11.206  18.792  0.00  0.00    +0.000 A 
ATOM     14  H   UNL     1      -5.645  11.070  15.853  0.00  0.00    +0.000 HD
ENDBRANCH   2   5
BRANCH   3  15
ATOM     15  C   UNL     1       2.130   9.200  17.992  0.00  0.00    +0.000 C 
BRANCH  15  16
ATOM     16  C   UNL     1       2.217   7.850  18.703  0.00  0.00    +0.000 C 
BRANCH  16  17
ATOM     17  C   UNL     1       3.106   6.853  17.989  0.00  0.00    +0.000 A 
ATOM     18  C   UNL     1       4.217   7.357  17.288  0.00  0.00    +0.000 A 
ATOM     19  C   UNL     1       5.055   6.509  16.572  0.00  0.00    +0.000 A 
ATOM     20  C   UNL     1       4.793   5.142  16.542  0.00  0.00    +0.000 A 
ATOM     21  C   UNL     1       3.703   4.603  17.237  0.00  0.00    +0.000 A 
ATOM     22  C   UNL     1       3.454   3.221  17.183  0.00  0.00    +0.000 A 
ATOM     23  C   UNL     1       2.380   2.658  17.869  0.00  0.00    +0.000 A 
ATOM     24  C   UNL     1       1.549   3.468  18.630  0.00  0.00    +0.000 A 
ATOM     25  C   UNL     1       1.783   4.845  18.692  0.00  0.00    +0.000 A 
ATOM     26  C   UNL     1       2.849   5.452  17.988  0.00  0.00    +0.000 A 
ENDBRANCH  16  17
ENDBRANCH  15  16
ENDBRANCH   3  15
TORSDOF 4
ENDMDL
MODEL 4
REMARK VINA RESULT:      -8.3      3.337      8.979
REMARK  Name = 
REMARK  4 active torsions:
REMARK  status: ('A' for Active; 'I' for Inactive)
REMARK    1  A    between atoms: C_2  and  C_16
REMARK    2  A    between atoms: N_3  and  C_4
REMARK    3  A    between atoms: C_4  and  C_5
REMARK    4  A    between atoms: C_5  and  C_6
REMARK                            x       y       z     vdW  Elec       q    Type
REMARK                         _______ _______ _______ _____ _____    ______ ____
ROOT
ATOM      1  O   UNL     1       2.239   6.023  19.818  0.00  0.00    +0.000 OA
ATOM      2  C   UNL     1       2.908   6.643  19.001  0.00  0.00    +0.000 C 
ATOM      3  N   UNL     1       2.616   7.927  18.589  0.00  0.00    +0.000 N 
ATOM      4  H   UNL     1       3.092   8.310  17.783  0.00  0.00    +0.000 HD
ENDROOT
BRANCH   2   5
ATOM      5  C   UNL     1       4.085   6.001  18.371  0.00  0.00    +0.000 A 
ATOM      6  C   UNL     1       4.880   5.156  19.152  0.00  0.00    +0.000 A 
ATOM      7  N   UNL     1       5.995   4.494  18.733  0.00  0.00    +0.000 NA
ATOM      8  C   UNL     1       6.280   4.766  17.447  0.00  0.00    +0.000 A 
ATOM      9  N   UNL     1       7.335   4.289  16.727  0.00  0.00    +0.000 N 
ATOM     10  C   UNL     1       7.255   4.832  15.472  0.00  0.00    +0.000 A 
ATOM     11  N   UNL     1       6.206   5.619  15.343  0.00  0.00    +0.000 NA
ATOM     12  C   UNL     1       5.590   5.591  16.569  0.00  0.00    +0.000 A 
ATOM     13  C   UNL     1       4.444   6.241  17.038  0.00  0.00    +0.000 A 
ATOM     14  H   UNL     1       8.043   3.661  17.076  0.00  0.00    +0.000 HD
ENDBRANCH   2   5
BRANCH   3  15
ATOM     15  C   UNL     1       1.456   8.632  19.112  0.00  0.00    +0.000 C 
BRANCH  15  16
ATOM     16  C   UNL     1       0.813   9.522  18.049  0.00  0.00    +0.000 C 
BRANCH  16  17
ATOM     17  C   UNL     1      -0.251  10.447  18.605  0.00  0.00    +0.000 A 
ATOM     18  C   UNL     1       0.061  11.169  19.772  0.00  0.00    +0.000 A 
ATOM     19  C   UNL     1      -0.879  12.005  20.366  0.00  0.00    +0.000 A 
ATOM     20  C   UNL     1      -2.147  12.129  19.806  0.00  0.00    +0.000 A 
ATOM     21  C   UNL     1      -2.489  11.434  18.638  0.00  0.00    +0.000 A 
ATOM     22  C   UNL     1      -3.778  11.569  18.097  0.00  0.00    +0.000 A 
ATOM     23  C   UNL     1      -4.143  10.893  16.934  0.00  0.00    +0.000 A 
ATOM     24  C   UNL     1      -3.217  10.086  16.289  0.00  0.00    +0.000 A 
ATOM     25  C   UNL     1      -1.930   9.941  16.816  0.00  0.00    +0.000 A 
ATOM     26  C   UNL     1      -1.535  10.592  18.008  0.00  0.00    +0.000 A 
ENDBRANCH  16  17
ENDBRANCH  15  16
ENDBRANCH   3  15
TORSDOF 4
ENDMDL
MODEL 5
REMARK VINA RESULT:      -8.2      1.223      1.521
REMARK  Name = 
REMARK  4 active torsions:
REMARK  status: ('A' for Active; 'I' for Inactive)
REMARK    1  A    between atoms: C_2  and  C_16
REMARK    2  A    between atoms: N_3  and  C_4
REMARK    3  A    between atoms: C_4  and  C_5
REMARK    4  A    between atoms: C_5  and  C_6
REMARK                            x       y       z     vdW  Elec       q    Type
REMARK                         _______ _______ _______ _____ _____    ______ ____
ROOT
ATOM      1  O   UNL     1       0.989   9.720  18.040  0.00  0.00    +0.000 OA
ATOM      2  C   UNL     1       0.199   9.869  18.963  0.00  0.00    +0.000 C 
ATOM      3  N   UNL     1       0.427   9.417  20.246  0.00  0.00    +0.000 N 
ATOM      4  H   UNL     1      -0.337   9.404  20.910  0.00  0.00    +0.000 HD
ENDROOT
BRANCH   2   5
ATOM      5  C   UNL     1      -1.101  10.537  18.720  0.00  0.00    +0.000 A 
ATOM      6  C   UNL     1      -1.560  11.462  19.663  0.00  0.00    +0.000 A 
ATOM      7  N   UNL     1      -2.730  12.158  19.597  0.00  0.00    +0.000 NA
ATOM      8  C   UNL     1      -3.439  11.834  18.501  0.00  0.00    +0.000 A 
ATOM      9  N   UNL     1      -4.659  12.326  18.143  0.00  0.00    +0.000 N 
ATOM     10  C   UNL     1      -5.022  11.716  16.973  0.00  0.00    +0.000 A 
ATOM     11  N   UNL     1      -4.103  10.869  16.554  0.00  0.00    +0.000 NA
ATOM     12  C   UNL     1      -3.111  10.929  17.500  0.00  0.00    +0.000 A 
ATOM     13  C   UNL     1      -1.894  10.247  17.603  0.00  0.00    +0.000 A 
ATOM     14  H   UNL     1      -5.188  13.008  18.665  0.00  0.00    +0.000 HD
ENDBRANCH   2   5
BRANCH   3  15
ATOM     15  C   UNL     1       1.652   8.707  20.580  0.00  0.00    +0.000 C 
BRANCH  15  16
ATOM     16  C   UNL     1       1.409   7.205  20.727  0.00  0.00    +0.000 C 
BRANCH  16  17
ATOM     17  C   UNL     1       2.104   6.379  19.664  0.00  0.00    +0.000 A 
ATOM     18  C   UNL     1       2.939   7.057  18.756  0.00  0.00    +0.000 A 
ATOM     19  C   UNL     1       3.577   6.374  17.726  0.00  0.00    +0.000 A 
ATOM     20  C   UNL     1       3.389   5.002  17.585  0.00  0.00    +0.000 A 
ATOM     21  C   UNL     1       2.575   4.292  18.477  0.00  0.00    +0.000 A 
ATOM     22  C   UNL     1       2.392   2.910  18.308  0.00  0.00    +0.000 A 
ATOM     23  C   UNL     1       1.592   2.178  19.183  0.00  0.00    +0.000 A 
ATOM     24  C   UNL     1       0.975   2.819  20.249  0.00  0.00    +0.000 A 
ATOM     25  C   UNL     1       1.146   4.195  20.430  0.00  0.00    +0.000 A 
ATOM     26  C   UNL     1       1.931   4.971  19.546  0.00  0.00    +0.000 A 
ENDBRANCH  16  17
ENDBRANCH  15  16
ENDBRANCH   3  15
TORSDOF 4
ENDMDL
MODEL 6
REMARK VINA RESULT:      -8.2      2.930      8.968
REMARK  Name = 
REMARK  4 active torsions:
REMARK  status: ('A' for Active; 'I' for Inactive)
REMARK    1  A    between atoms: C_2  and  C_16
REMARK    2  A    between atoms: N_3  and  C_4
REMARK    3  A    between atoms: C_4  and  C_5
REMARK    4  A    between atoms: C_5  and  C_6
REMARK                            x       y       z     vdW  Elec       q    Type
REMARK                         _______ _______ _______ _____ _____    ______ ____
ROOT
ATOM      1  O   UNL     1       2.446   7.245  19.530  0.00  0.00    +0.000 OA
ATOM      2  C   UNL     1       2.834   7.433  18.384  0.00  0.00    +0.000 C 
ATOM      3  N   UNL     1       2.496   8.540  17.633  0.00  0.00    +0.000 N 
ATOM      4  H   UNL     1       2.693   8.545  16.641  0.00  0.00    +0.000 HD
ENDROOT
BRANCH   2   5
ATOM      5  C   UNL     1       3.691   6.423  17.721  0.00  0.00    +0.000 A 
ATOM      6  C   UNL     1       3.344   5.074  17.840  0.00  0.00    +0.000 A 
ATOM      7  N   UNL     1       4.022   4.022  17.299  0.00  0.00    +0.000 NA
ATOM      8  C   UNL     1       5.119   4.428  16.635  0.00  0.00    +0.000 A 
ATOM      9  N   UNL     1       6.027   3.635  15.998  0.00  0.00    +0.000 N 
ATOM     10  C   UNL     1       6.990   4.454  15.472  0.00  0.00    +0.000 A 
ATOM     11  N   UNL     1       6.748   5.724  15.725  0.00  0.00    +0.000 NA
ATOM     12  C   UNL     1       5.585   5.723  16.454  0.00  0.00    +0.000 A 
ATOM     13  C   UNL     1       4.850   6.772  17.015  0.00  0.00    +0.000 A 
ATOM     14  H   UNL     1       5.986   2.628  15.945  0.00  0.00    +0.000 HD
ENDBRANCH   2   5
BRANCH   3  15
ATOM     15  C   UNL     1       1.622   9.570  18.174  0.00  0.00    +0.000 C 
BRANCH  15  16
ATOM     16  C   UNL     1       0.171   9.358  17.746  0.00  0.00    +0.000 C 
BRANCH  16  17
ATOM     17  C   UNL     1      -0.790  10.345  18.376  0.00  0.00    +0.000 A 
ATOM     18  C   UNL     1      -0.415  10.925  19.602  0.00  0.00    +0.000 A 
ATOM     19  C   UNL     1      -1.263  11.807  20.264  0.00  0.00    +0.000 A 
ATOM     20  C   UNL     1      -2.503  12.120  19.712  0.00  0.00    +0.000 A 
ATOM     21  C   UNL     1      -2.904  11.570  18.488  0.00  0.00    +0.000 A 
ATOM     22  C   UNL     1      -4.164  11.894  17.956  0.00  0.00    +0.000 A 
ATOM     23  C   UNL     1      -4.587  11.365  16.738  0.00  0.00    +0.000 A 
ATOM     24  C   UNL     1      -3.748  10.518  16.029  0.00  0.00    +0.000 A 
ATOM     25  C   UNL     1      -2.492  10.185  16.545  0.00  0.00    +0.000 A 
ATOM     26  C   UNL     1      -2.043  10.683  17.790  0.00  0.00    +0.000 A 
ENDBRANCH  16  17
ENDBRANCH  15  16
ENDBRANCH   3  15
TORSDOF 4
ENDMDL
MODEL 7
REMARK VINA RESULT:      -8.2      1.375      1.702
REMARK  Name = 
REMARK  4 active torsions:
REMARK  status: ('A' for Active; 'I' for Inactive)
REMARK    1  A    between atoms: C_2  and  C_16
REMARK    2  A    between atoms: N_3  and  C_4
REMARK    3  A    between atoms: C_4  and  C_5
REMARK    4  A    between atoms: C_5  and  C_6
REMARK                            x       y       z     vdW  Elec       q    Type
REMARK                         _______ _______ _______ _____ _____    ______ ____
ROOT
ATOM      1  O   UNL     1       0.920  11.174  20.454  0.00  0.00    +0.000 OA
ATOM      2  C   UNL     1       0.208  10.314  19.953  0.00  0.00    +0.000 C 
ATOM      3  N   UNL     1       0.400   8.960  20.136  0.00  0.00    +0.000 N 
ATOM      4  H   UNL     1      -0.102   8.305  19.550  0.00  0.00    +0.000 HD
ENDROOT
BRANCH   2   5
ATOM      5  C   UNL     1      -0.913  10.708  19.069  0.00  0.00    +0.000 A 
ATOM      6  C   UNL     1      -1.838  11.644  19.542  0.00  0.00    +0.000 A 
ATOM      7  N   UNL     1      -2.924  12.109  18.863  0.00  0.00    +0.000 NA
ATOM      8  C   UNL     1      -3.037  11.534  17.652  0.00  0.00    +0.000 A 
ATOM      9  N   UNL     1      -4.018  11.756  16.732  0.00  0.00    +0.000 N 
ATOM     10  C   UNL     1      -3.759  10.952  15.654  0.00  0.00    +0.000 A 
ATOM     11  N   UNL     1      -2.665  10.237  15.825  0.00  0.00    +0.000 NA
ATOM     12  C   UNL     1      -2.206  10.587  17.069  0.00  0.00    +0.000 A 
ATOM     13  C   UNL     1      -1.095  10.148  17.798  0.00  0.00    +0.000 A 
ATOM     14  H   UNL     1      -4.792  12.392  16.847  0.00  0.00    +0.000 HD
ENDBRANCH   2   5
BRANCH   3  15
ATOM     15  C   UNL     1       1.500   8.466  20.949  0.00  0.00    +0.000 C 
BRANCH  15  16
ATOM     16  C   UNL     1       1.493   6.940  21.036  0.00  0.00    +0.000 C 
BRANCH  16  17
ATOM     17  C   UNL     1       2.144   6.269  19.844  0.00  0.00    +0.000 A 
ATOM     18  C   UNL     1       3.023   7.042  19.063  0.00  0.00    +0.000 A 
ATOM     19  C   UNL     1       3.626   6.509  17.928  0.00  0.00    +0.000 A 
ATOM     20  C   UNL     1       3.356   5.196  17.553  0.00  0.00    +0.000 A 
ATOM     21  C   UNL     1       2.496   4.393  18.313  0.00  0.00    +0.000 A 
ATOM     22  C   UNL     1       2.232   3.074  17.909  0.00  0.00    +0.000 A 
ATOM     23  C   UNL     1       1.384   2.252  18.649  0.00  0.00    +0.000 A 
ATOM     24  C   UNL     1       0.801   2.736  19.811  0.00  0.00    +0.000 A 
ATOM     25  C   UNL     1       1.053   4.047  20.226  0.00  0.00    +0.000 A 
ATOM     26  C   UNL     1       1.887   4.915  19.485  0.00  0.00    +0.000 A 
ENDBRANCH  16  17
ENDBRANCH  15  16
ENDBRANCH   3  15
TORSDOF 4
ENDMDL
MODEL 8
REMARK VINA RESULT:      -8.2      0.800      1.527
REMARK  Name = 
REMARK  4 active torsions:
REMARK  status: ('A' for Active; 'I' for Inactive)
REMARK    1  A    between atoms: C_2  and  C_16
REMARK    2  A    between atoms: N_3  and  C_4
REMARK    3  A    between atoms: C_4  and  C_5
REMARK    4  A    between atoms: C_5  and  C_6
REMARK                            x       y       z     vdW  Elec       q    Type
REMARK                         _______ _______ _______ _____ _____    ______ ____
ROOT
ATOM      1  O   UNL     1       1.501  10.893  19.129  0.00  0.00    +0.000 OA
ATOM      2  C   UNL     1       0.662  10.228  18.537  0.00  0.00    +0.000 C 
ATOM      3  N   UNL     1       0.951   9.066  17.851  0.00  0.00    +0.000 N 
ATOM      4  H   UNL     1       0.255   8.668  17.233  0.00  0.00    +0.000 HD
ENDROOT
BRANCH   2   5
ATOM      5  C   UNL     1      -0.749  10.680  18.503  0.00  0.00    +0.000 A 
ATOM      6  C   UNL     1      -1.546  10.294  17.420  0.00  0.00    +0.000 A 
ATOM      7  N   UNL     1      -2.854  10.626  17.233  0.00  0.00    +0.000 NA
ATOM      8  C   UNL     1      -3.313  11.415  18.221  0.00  0.00    +0.000 A 
ATOM      9  N   UNL     1      -4.566  11.942  18.329  0.00  0.00    +0.000 N 
ATOM     10  C   UNL     1      -4.598  12.695  19.472  0.00  0.00    +0.000 A 
ATOM     11  N   UNL     1      -3.444  12.673  20.108  0.00  0.00    +0.000 NA
ATOM     12  C   UNL     1      -2.631  11.881  19.337  0.00  0.00    +0.000 A 
ATOM     13  C   UNL     1      -1.293  11.505  19.495  0.00  0.00    +0.000 A 
ATOM     14  H   UNL     1      -5.317  11.801  17.670  0.00  0.00    +0.000 HD
ENDBRANCH   2   5
BRANCH   3  15
ATOM     15  C   UNL     1       2.313   8.559  17.784  0.00  0.00    +0.000 C 
BRANCH  15  16
ATOM     16  C   UNL     1       2.525   7.387  18.742  0.00  0.00    +0.000 C 
BRANCH  16  17
ATOM     17  C   UNL     1       3.145   6.175  18.078  0.00  0.00    +0.000 A 
ATOM     18  C   UNL     1       4.243   6.392  17.224  0.00  0.00    +0.000 A 
ATOM     19  C   UNL     1       4.839   5.335  16.545  0.00  0.00    +0.000 A 
ATOM     20  C   UNL     1       4.345   4.044  16.704  0.00  0.00    +0.000 A 
ATOM     21  C   UNL     1       3.261   3.788  17.554  0.00  0.00    +0.000 A 
ATOM     22  C   UNL     1       2.773   2.478  17.691  0.00  0.00    +0.000 A 
ATOM     23  C   UNL     1       1.700   2.195  18.533  0.00  0.00    +0.000 A 
ATOM     24  C   UNL     1       1.109   3.218  19.261  0.00  0.00    +0.000 A 
ATOM     25  C   UNL     1       1.582   4.528  19.134  0.00  0.00    +0.000 A 
ATOM     26  C   UNL     1       2.653   4.853  18.270  0.00  0.00    +0.000 A 
ENDBRANCH  16  17
ENDBRANCH  15  16
ENDBRANCH   3  15
TORSDOF 4
ENDMDL
MODEL 9
REMARK VINA RESULT:      -8.1      0.824      2.298
REMARK  Name = 
REMARK  4 active torsions:
REMARK  status: ('A' for Active; 'I' for Inactive)
REMARK    1  A    between atoms: C_2  and  C_16
REMARK    2  A    between atoms: N_3  and  C_4
REMARK    3  A    between atoms: C_4  and  C_5
REMARK    4  A    between atoms: C_5  and  C_6
REMARK                            x       y       z     vdW  Elec       q    Type
REMARK                         _______ _______ _______ _____ _____    ______ ____
ROOT
ATOM      1  O   UNL     1       1.658  10.965  18.935  0.00  0.00    +0.000 OA
ATOM      2  C   UNL     1       0.772  10.281  18.440  0.00  0.00    +0.000 C 
ATOM      3  N   UNL     1       0.993   9.058  17.841  0.00  0.00    +0.000 N 
ATOM      4  H   UNL     1       0.256   8.634  17.292  0.00  0.00    +0.000 HD
ENDROOT
BRANCH   2   5
ATOM      5  C   UNL     1      -0.625  10.774  18.436  0.00  0.00    +0.000 A 
ATOM      6  C   UNL     1      -1.019  11.668  19.437  0.00  0.00    +0.000 A 
ATOM      7  N   UNL     1      -2.261  12.210  19.580  0.00  0.00    +0.000 NA
ATOM      8  C   UNL     1      -3.111  11.762  18.640  0.00  0.00    +0.000 A 
ATOM      9  N   UNL     1      -4.429  12.087  18.509  0.00  0.00    +0.000 N 
ATOM     10  C   UNL     1      -4.918  11.395  17.434  0.00  0.00    +0.000 A 
ATOM     11  N   UNL     1      -3.990  10.654  16.862  0.00  0.00    +0.000 NA
ATOM     12  C   UNL     1      -2.858  10.870  17.606  0.00  0.00    +0.000 A 
ATOM     13  C   UNL     1      -1.565  10.348  17.489  0.00  0.00    +0.000 A 
ATOM     14  H   UNL     1      -4.937  12.716  19.113  0.00  0.00    +0.000 HD
ENDBRANCH   2   5
BRANCH   3  15
ATOM     15  C   UNL     1       2.335   8.503  17.752  0.00  0.00    +0.000 C 
BRANCH  15  16
ATOM     16  C   UNL     1       2.546   7.379  18.765  0.00  0.00    +0.000 C 
BRANCH  16  17
ATOM     17  C   UNL     1       2.821   6.035  18.120  0.00  0.00    +0.000 A 
ATOM     18  C   UNL     1       1.796   5.072  18.163  0.00  0.00    +0.000 A 
ATOM     19  C   UNL     1       1.988   3.801  17.631  0.00  0.00    +0.000 A 
ATOM     20  C   UNL     1       3.210   3.471  17.052  0.00  0.00    +0.000 A 
ATOM     21  C   UNL     1       4.249   4.408  16.982  0.00  0.00    +0.000 A 
ATOM     22  C   UNL     1       5.477   4.048  16.401  0.00  0.00    +0.000 A 
ATOM     23  C   UNL     1       6.525   4.961  16.314  0.00  0.00    +0.000 A 
ATOM     24  C   UNL     1       6.354   6.252  16.793  0.00  0.00    +0.000 A 
ATOM     25  C   UNL     1       5.139   6.625  17.375  0.00  0.00    +0.000 A 
ATOM     26  C   UNL     1       4.063   5.716  17.502  0.00  0.00    +0.000 A 
ENDBRANCH  16  17
ENDBRANCH  15  16
ENDBRANCH   3  15
TORSDOF 4
ENDMDL
