MODEL 1
REMARK VINA RESULT:      -8.6      0.000      0.000
REMARK  Name = 
REMARK  6 active torsions:
REMARK  status: ('A' for Active; 'I' for Inactive)
REMARK    1  A    between atoms: C_1  and  C_2
REMARK    2  A    between atoms: N_4  and  C_5
REMARK    3  A    between atoms: C_12  and  C_13
REMARK    4  A    between atoms: N_15  and  C_16
REMARK    5  A    between atoms: C_19  and  C_20
REMARK    6  A    between atoms: C_20  and  N_21
REMARK                            x       y       z     vdW  Elec       q    Type
REMARK                         _______ _______ _______ _____ _____    ______ ____
ROOT
ATOM      1  C   UNL     1       0.711  10.233  21.429  0.00  0.00    +0.000 C 
ATOM      2  O   UNL     1       1.550   9.894  22.261  0.00  0.00    +0.000 OA
ATOM      3  N   UNL     1       0.612   9.736  20.137  0.00  0.00    +0.000 N 
ATOM      4  H   UNL     1      -0.075  10.205  19.551  0.00  0.00    +0.000 HD
ENDROOT
BRANCH   1  10
ATOM      5  C   UNL     1       1.034  13.452  21.049  0.00  0.00    +0.000 C 
ATOM      6  C   UNL     1      -0.119  12.676  21.566  0.00  0.00    +0.000 A 
ATOM      7  N   UNL     1      -1.243  13.302  21.921  0.00  0.00    +0.000 NA
ATOM      8  N   UNL     1      -2.028  12.288  22.354  0.00  0.00    +0.000 N 
ATOM      9  N   UNL     1      -1.482  11.035  22.291  0.00  0.00    +0.000 NA
ATOM     10  C   UNL     1      -0.267  11.280  21.757  0.00  0.00    +0.000 A 
BRANCH   8  11
ATOM     11  C   UNL     1      -3.345  12.534  22.823  0.00  0.00    +0.000 A 
ATOM     12  C   UNL     1      -3.654  12.315  24.178  0.00  0.00    +0.000 A 
ATOM     13  C   UNL     1      -4.941  12.575  24.651  0.00  0.00    +0.000 A 
ATOM     14  C   UNL     1      -5.925  13.032  23.775  0.00  0.00    +0.000 A 
ATOM     15  C   UNL     1      -5.625  13.236  22.428  0.00  0.00    +0.000 A 
ATOM     16  C   UNL     1      -4.334  12.995  21.948  0.00  0.00    +0.000 A 
ENDBRANCH   8  11
ENDBRANCH   1  10
BRANCH   3  17
ATOM     17  C   UNL     1       1.439   8.749  19.547  0.00  0.00    +0.000 A 
ATOM     18  C   UNL     1       1.946   8.854  18.250  0.00  0.00    +0.000 A 
ATOM     19  C   UNL     1       2.716   7.832  17.686  0.00  0.00    +0.000 A 
ATOM     20  C   UNL     1       2.996   6.667  18.406  0.00  0.00    +0.000 A 
ATOM     21  C   UNL     1       2.532   6.576  19.725  0.00  0.00    +0.000 A 
ATOM     22  C   UNL     1       1.765   7.609  20.292  0.00  0.00    +0.000 A 
BRANCH  20  23
ATOM     23  C   UNL     1       3.776   5.546  17.761  0.00  0.00    +0.000 C 
BRANCH  23  24
ATOM     24  N   UNL     1       3.363   4.236  18.218  0.00  0.00    +0.000 N 
ATOM     25  C   UNL     1       4.157   3.405  18.951  0.00  0.00    +0.000 C 
ATOM     26  O   UNL     1       5.280   3.644  19.373  0.00  0.00    +0.000 OA
ATOM     27  C   UNL     1       3.457   2.090  19.121  0.00  0.00    +0.000 C 
ATOM     28  C   UNL     1       2.079   2.316  18.530  0.00  0.00    +0.000 C 
ATOM     29  C   UNL     1       2.166   3.673  17.897  0.00  0.00    +0.000 C 
ATOM     30  O   UNL     1       1.282   4.168  17.210  0.00  0.00    +0.000 OA
ENDBRANCH  23  24
ENDBRANCH  20  23
ENDBRANCH   3  17
TORSDOF 5
ENDMDL
MODEL 2
REMARK VINA RESULT:      -8.5      1.677      2.678
REMARK  Name = 
REMARK  6 active torsions:
REMARK  status: ('A' for Active; 'I' for Inactive)
REMARK    1  A    between atoms: C_1  and  C_2
REMARK    2  A    between atoms: N_4  and  C_5
REMARK    3  A    between atoms: C_12  and  C_13
REMARK    4  A    between atoms: N_15  and  C_16
REMARK    5  A    between atoms: C_19  and  C_20
REMARK    6  A    between atoms: C_20  and  N_21
REMARK                            x       y       z     vdW  Elec       q    Type
REMARK                         _______ _______ _______ _____ _____    ______ ____
ROOT
ATOM      1  C   UNL     1       0.671  10.422  21.137  0.00  0.00    +0.000 C 
ATOM      2  O   UNL     1       1.602  10.293  21.929  0.00  0.00    +0.000 OA
ATOM      3  N   UNL     1       0.532   9.734  19.939  0.00  0.00    +0.000 N 
ATOM      4  H   UNL     1      -0.244  10.042  19.358  0.00  0.00    +0.000 HD
ENDROOT
BRANCH   1  10
ATOM      5  C   UNL     1       0.452  13.473  20.016  0.00  0.00    +0.000 C 
ATOM      6  C   UNL     1      -0.482  12.722  20.890  0.00  0.00    +0.000 A 
ATOM      7  N   UNL     1      -1.618  13.289  21.301  0.00  0.00    +0.000 NA
ATOM      8  N   UNL     1      -2.169  12.328  22.079  0.00  0.00    +0.000 N 
ATOM      9  N   UNL     1      -1.460  11.163  22.190  0.00  0.00    +0.000 NA
ATOM     10  C   UNL     1      -0.390  11.404  21.403  0.00  0.00    +0.000 A 
BRANCH   8  11
ATOM     11  C   UNL     1      -3.420  12.533  22.716  0.00  0.00    +0.000 A 
ATOM     12  C   UNL     1      -4.526  12.959  21.959  0.00  0.00    +0.000 A 
ATOM     13  C   UNL     1      -5.765  13.143  22.574  0.00  0.00    +0.000 A 
ATOM     14  C   UNL     1      -5.900  12.922  23.945  0.00  0.00    +0.000 A 
ATOM     15  C   UNL     1      -4.801  12.513  24.701  0.00  0.00    +0.000 A 
ATOM     16  C   UNL     1      -3.561  12.310  24.090  0.00  0.00    +0.000 A 
ENDBRANCH   8  11
ENDBRANCH   1  10
BRANCH   3  17
ATOM     17  C   UNL     1       1.416   8.758  19.420  0.00  0.00    +0.000 A 
ATOM     18  C   UNL     1       2.017   8.864  18.164  0.00  0.00    +0.000 A 
ATOM     19  C   UNL     1       2.844   7.852  17.666  0.00  0.00    +0.000 A 
ATOM     20  C   UNL     1       3.088   6.696  18.413  0.00  0.00    +0.000 A 
ATOM     21  C   UNL     1       2.528   6.604  19.694  0.00  0.00    +0.000 A 
ATOM     22  C   UNL     1       1.704   7.627  20.195  0.00  0.00    +0.000 A 
BRANCH  20  23
ATOM     23  C   UNL     1       3.933   5.584  17.836  0.00  0.00    +0.000 C 
BRANCH  23  24
ATOM     24  N   UNL     1       5.348   5.890  17.841  0.00  0.00    +0.000 N 
ATOM     25  C   UNL     1       5.997   6.488  16.803  0.00  0.00    +0.000 C 
ATOM     26  O   UNL     1       5.500   6.898  15.764  0.00  0.00    +0.000 OA
ATOM     27  C   UNL     1       7.467   6.518  17.101  0.00  0.00    +0.000 C 
ATOM     28  C   UNL     1       7.574   6.006  18.525  0.00  0.00    +0.000 C 
ATOM     29  C   UNL     1       6.186   5.543  18.857  0.00  0.00    +0.000 C 
ATOM     30  O   UNL     1       5.888   4.952  19.886  0.00  0.00    +0.000 OA
ENDBRANCH  23  24
ENDBRANCH  20  23
ENDBRANCH   3  17
TORSDOF 5
ENDMDL
MODEL 3
REMARK VINA RESULT:      -8.5      1.698      2.681
REMARK  Name = 
REMARK  6 active torsions:
REMARK  status: ('A' for Active; 'I' for Inactive)
REMARK    1  A    between atoms: C_1  and  C_2
REMARK    2  A    between atoms: N_4  and  C_5
REMARK    3  A    between atoms: C_12  and  C_13
REMARK    4  A    between atoms: N_15  and  C_16
REMARK    5  A    between atoms: C_19  and  C_20
REMARK    6  A    between atoms: C_20  and  N_21
REMARK                            x       y       z     vdW  Elec       q    Type
REMARK                         _______ _______ _______ _____ _____    ______ ____
ROOT
ATOM      1  C   UNL     1       0.853  10.009  21.417  0.00  0.00    +0.000 C 
ATOM      2  O   UNL     1       1.664   9.651  22.269  0.00  0.00    +0.000 OA
ATOM      3  N   UNL     1       0.745   9.483  20.137  0.00  0.00    +0.000 N 
ATOM      4  H   UNL     1       0.090   9.969  19.530  0.00  0.00    +0.000 HD
ENDROOT
BRANCH   1  10
ATOM      5  C   UNL     1       1.276  13.180  20.806  0.00  0.00    +0.000 C 
ATOM      6  C   UNL     1       0.115  12.485  21.413  0.00  0.00    +0.000 A 
ATOM      7  N   UNL     1      -0.972  13.176  21.761  0.00  0.00    +0.000 NA
ATOM      8  N   UNL     1      -1.777  12.224  22.289  0.00  0.00    +0.000 N 
ATOM      9  N   UNL     1      -1.278  10.950  22.294  0.00  0.00    +0.000 NA
ATOM     10  C   UNL     1      -0.075  11.111  21.705  0.00  0.00    +0.000 A 
BRANCH   8  11
ATOM     11  C   UNL     1      -3.067  12.550  22.783  0.00  0.00    +0.000 A 
ATOM     12  C   UNL     1      -3.986  13.212  21.950  0.00  0.00    +0.000 A 
ATOM     13  C   UNL     1      -5.263  13.517  22.422  0.00  0.00    +0.000 A 
ATOM     14  C   UNL     1      -5.619  13.182  23.728  0.00  0.00    +0.000 A 
ATOM     15  C   UNL     1      -4.705  12.539  24.562  0.00  0.00    +0.000 A 
ATOM     16  C   UNL     1      -3.429  12.214  24.092  0.00  0.00    +0.000 A 
ENDBRANCH   8  11
ENDBRANCH   1  10
BRANCH   3  17
ATOM     17  C   UNL     1       1.528   8.440  19.585  0.00  0.00    +0.000 A 
ATOM     18  C   UNL     1       1.809   7.254  20.269  0.00  0.00    +0.000 A 
ATOM     19  C   UNL     1       2.630   6.270  19.709  0.00  0.00    +0.000 A 
ATOM     20  C   UNL     1       3.201   6.449  18.446  0.00  0.00    +0.000 A 
ATOM     21  C   UNL     1       2.883   7.614  17.734  0.00  0.00    +0.000 A 
ATOM     22  C   UNL     1       2.051   8.598  18.296  0.00  0.00    +0.000 A 
BRANCH  20  23
ATOM     23  C   UNL     1       4.135   5.405  17.881  0.00  0.00    +0.000 C 
BRANCH  23  24
ATOM     24  N   UNL     1       5.518   5.832  17.869  0.00  0.00    +0.000 N 
ATOM     25  C   UNL     1       6.384   5.622  18.900  0.00  0.00    +0.000 C 
ATOM     26  O   UNL     1       6.159   5.013  19.937  0.00  0.00    +0.000 OA
ATOM     27  C   UNL     1       7.677   6.319  18.598  0.00  0.00    +0.000 C 
ATOM     28  C   UNL     1       7.509   6.829  17.179  0.00  0.00    +0.000 C 
ATOM     29  C   UNL     1       6.071   6.554  16.856  0.00  0.00    +0.000 C 
ATOM     30  O   UNL     1       5.514   6.930  15.833  0.00  0.00    +0.000 OA
ENDBRANCH  23  24
ENDBRANCH  20  23
ENDBRANCH   3  17
TORSDOF 5
ENDMDL
MODEL 4
REMARK VINA RESULT:      -8.4      1.942      2.737
REMARK  Name = 
REMARK  6 active torsions:
REMARK  status: ('A' for Active; 'I' for Inactive)
REMARK    1  A    between atoms: C_1  and  C_2
REMARK    2  A    between atoms: N_4  and  C_5
REMARK    3  A    between atoms: C_12  and  C_13
REMARK    4  A    between atoms: N_15  and  C_16
REMARK    5  A    between atoms: C_19  and  C_20
REMARK    6  A    between atoms: C_20  and  N_21
REMARK                            x       y       z     vdW  Elec       q    Type
REMARK                         _______ _______ _______ _____ _____    ______ ____
ROOT
ATOM      1  C   UNL     1       1.082   9.352  21.571  0.00  0.00    +0.000 C 
ATOM      2  O   UNL     1       1.976   9.264  22.410  0.00  0.00    +0.000 OA
ATOM      3  N   UNL     1       0.902   8.495  20.493  0.00  0.00    +0.000 N 
ATOM      4  H   UNL     1       0.175   8.778  19.841  0.00  0.00    +0.000 HD
ENDROOT
BRANCH   1  10
ATOM      5  C   UNL     1      -0.410  10.844  19.089  0.00  0.00    +0.000 C 
ATOM      6  C   UNL     1      -0.537  11.086  20.548  0.00  0.00    +0.000 A 
ATOM      7  N   UNL     1      -1.388  12.009  21.002  0.00  0.00    +0.000 NA
ATOM      8  N   UNL     1      -1.202  11.953  22.342  0.00  0.00    +0.000 N 
ATOM      9  N   UNL     1      -0.287  11.039  22.786  0.00  0.00    +0.000 NA
ATOM     10  C   UNL     1       0.119  10.461  21.637  0.00  0.00    +0.000 A 
BRANCH   8  11
ATOM     11  C   UNL     1      -1.942  12.792  23.216  0.00  0.00    +0.000 A 
ATOM     12  C   UNL     1      -1.374  13.995  23.674  0.00  0.00    +0.000 A 
ATOM     13  C   UNL     1      -2.104  14.835  24.516  0.00  0.00    +0.000 A 
ATOM     14  C   UNL     1      -3.388  14.471  24.919  0.00  0.00    +0.000 A 
ATOM     15  C   UNL     1      -3.948  13.272  24.478  0.00  0.00    +0.000 A 
ATOM     16  C   UNL     1      -3.232  12.432  23.620  0.00  0.00    +0.000 A 
ENDBRANCH   8  11
ENDBRANCH   1  10
BRANCH   3  17
ATOM     17  C   UNL     1       1.696   7.368  20.172  0.00  0.00    +0.000 A 
ATOM     18  C   UNL     1       1.645   6.170  20.889  0.00  0.00    +0.000 A 
ATOM     19  C   UNL     1       2.483   5.096  20.571  0.00  0.00    +0.000 A 
ATOM     20  C   UNL     1       3.405   5.194  19.525  0.00  0.00    +0.000 A 
ATOM     21  C   UNL     1       3.427   6.375  18.770  0.00  0.00    +0.000 A 
ATOM     22  C   UNL     1       2.578   7.449  19.087  0.00  0.00    +0.000 A 
BRANCH  20  23
ATOM     23  C   UNL     1       4.346   4.049  19.234  0.00  0.00    +0.000 C 
BRANCH  23  24
ATOM     24  N   UNL     1       5.439   4.425  18.362  0.00  0.00    +0.000 N 
ATOM     25  C   UNL     1       6.572   5.047  18.795  0.00  0.00    +0.000 C 
ATOM     26  O   UNL     1       6.863   5.325  19.950  0.00  0.00    +0.000 OA
ATOM     27  C   UNL     1       7.413   5.406  17.605  0.00  0.00    +0.000 C 
ATOM     28  C   UNL     1       6.697   4.767  16.430  0.00  0.00    +0.000 C 
ATOM     29  C   UNL     1       5.411   4.262  17.011  0.00  0.00    +0.000 C 
ATOM     30  O   UNL     1       4.500   3.782  16.348  0.00  0.00    +0.000 OA
ENDBRANCH  23  24
ENDBRANCH  20  23
ENDBRANCH   3  17
TORSDOF 5
ENDMDL
MODEL 5
REMARK VINA RESULT:      -8.4      1.936      2.984
REMARK  Name = 
REMARK  6 active torsions:
REMARK  status: ('A' for Active; 'I' for Inactive)
REMARK    1  A    between atoms: C_1  and  C_2
REMARK    2  A    between atoms: N_4  and  C_5
REMARK    3  A    between atoms: C_12  and  C_13
REMARK    4  A    between atoms: N_15  and  C_16
REMARK    5  A    between atoms: C_19  and  C_20
REMARK    6  A    between atoms: C_20  and  N_21
REMARK                            x       y       z     vdW  Elec       q    Type
REMARK                         _______ _______ _______ _____ _____    ______ ____
ROOT
ATOM      1  C   UNL     1       1.049   9.346  21.639  0.00  0.00    +0.000 C 
ATOM      2  O   UNL     1       1.944   9.264  22.479  0.00  0.00    +0.000 OA
ATOM      3  N   UNL     1       0.869   8.483  20.567  0.00  0.00    +0.000 N 
ATOM      4  H   UNL     1       0.142   8.760  19.913  0.00  0.00    +0.000 HD
ENDROOT
BRANCH   1  10
ATOM      5  C   UNL     1      -0.505  10.768  19.154  0.00  0.00    +0.000 C 
ATOM      6  C   UNL     1      -0.597  11.050  20.607  0.00  0.00    +0.000 A 
ATOM      7  N   UNL     1      -1.438  11.984  21.057  0.00  0.00    +0.000 NA
ATOM      8  N   UNL     1      -1.220  11.966  22.392  0.00  0.00    +0.000 N 
ATOM      9  N   UNL     1      -0.293  11.065  22.839  0.00  0.00    +0.000 NA
ATOM     10  C   UNL     1       0.087  10.456  21.697  0.00  0.00    +0.000 A 
BRANCH   8  11
ATOM     11  C   UNL     1      -1.940  12.828  23.260  0.00  0.00    +0.000 A 
ATOM     12  C   UNL     1      -1.350  14.027  23.698  0.00  0.00    +0.000 A 
ATOM     13  C   UNL     1      -2.059  14.890  24.535  0.00  0.00    +0.000 A 
ATOM     14  C   UNL     1      -3.347  14.552  24.951  0.00  0.00    +0.000 A 
ATOM     15  C   UNL     1      -3.929  13.357  24.530  0.00  0.00    +0.000 A 
ATOM     16  C   UNL     1      -3.233  12.495  23.678  0.00  0.00    +0.000 A 
ENDBRANCH   8  11
ENDBRANCH   1  10
BRANCH   3  17
ATOM     17  C   UNL     1       1.662   7.352  20.253  0.00  0.00    +0.000 A 
ATOM     18  C   UNL     1       1.582   6.146  20.954  0.00  0.00    +0.000 A 
ATOM     19  C   UNL     1       2.421   5.070  20.645  0.00  0.00    +0.000 A 
ATOM     20  C   UNL     1       3.372   5.174  19.627  0.00  0.00    +0.000 A 
ATOM     21  C   UNL     1       3.424   6.363  18.887  0.00  0.00    +0.000 A 
ATOM     22  C   UNL     1       2.575   7.440  19.194  0.00  0.00    +0.000 A 
BRANCH  20  23
ATOM     23  C   UNL     1       4.312   4.025  19.347  0.00  0.00    +0.000 C 
BRANCH  23  24
ATOM     24  N   UNL     1       5.343   4.360  18.387  0.00  0.00    +0.000 N 
ATOM     25  C   UNL     1       5.242   4.110  17.051  0.00  0.00    +0.000 C 
ATOM     26  O   UNL     1       4.282   3.634  16.462  0.00  0.00    +0.000 OA
ATOM     27  C   UNL     1       6.544   4.459  16.393  0.00  0.00    +0.000 C 
ATOM     28  C   UNL     1       7.365   5.100  17.496  0.00  0.00    +0.000 C 
ATOM     29  C   UNL     1       6.547   4.891  18.735  0.00  0.00    +0.000 C 
ATOM     30  O   UNL     1       6.929   5.168  19.864  0.00  0.00    +0.000 OA
ENDBRANCH  23  24
ENDBRANCH  20  23
ENDBRANCH   3  17
TORSDOF 5
ENDMDL
MODEL 6
REMARK VINA RESULT:      -8.3      1.652      2.090
REMARK  Name = 
REMARK  6 active torsions:
REMARK  status: ('A' for Active; 'I' for Inactive)
REMARK    1  A    between atoms: C_1  and  C_2
REMARK    2  A    between atoms: N_4  and  C_5
REMARK    3  A    between atoms: C_12  and  C_13
REMARK    4  A    between atoms: N_15  and  C_16
REMARK    5  A    between atoms: C_19  and  C_20
REMARK    6  A    between atoms: C_20  and  N_21
REMARK                            x       y       z     vdW  Elec       q    Type
REMARK                         _______ _______ _______ _____ _____    ______ ____
ROOT
ATOM      1  C   UNL     1      -0.332  10.527  19.647  0.00  0.00    +0.000 C 
ATOM      2  O   UNL     1      -1.157   9.934  18.955  0.00  0.00    +0.000 OA
ATOM      3  N   UNL     1       0.968  10.105  19.890  0.00  0.00    +0.000 N 
ATOM      4  H   UNL     1       1.478  10.663  20.570  0.00  0.00    +0.000 HD
ENDROOT
BRANCH   1  10
ATOM      5  C   UNL     1      -0.349  13.553  18.439  0.00  0.00    +0.000 C 
ATOM      6  C   UNL     1      -0.732  13.076  19.791  0.00  0.00    +0.000 A 
ATOM      7  N   UNL     1      -1.192  13.938  20.700  0.00  0.00    +0.000 NA
ATOM      8  N   UNL     1      -1.399  13.152  21.781  0.00  0.00    +0.000 N 
ATOM      9  N   UNL     1      -1.111  11.824  21.624  0.00  0.00    +0.000 NA
ATOM     10  C   UNL     1      -0.710  11.769  20.337  0.00  0.00    +0.000 A 
BRANCH   8  11
ATOM     11  C   UNL     1      -1.907  13.694  22.991  0.00  0.00    +0.000 A 
ATOM     12  C   UNL     1      -1.128  14.602  23.729  0.00  0.00    +0.000 A 
ATOM     13  C   UNL     1      -1.629  15.156  24.908  0.00  0.00    +0.000 A 
ATOM     14  C   UNL     1      -2.896  14.791  25.363  0.00  0.00    +0.000 A 
ATOM     15  C   UNL     1      -3.665  13.879  24.641  0.00  0.00    +0.000 A 
ATOM     16  C   UNL     1      -3.179  13.333  23.450  0.00  0.00    +0.000 A 
ENDBRANCH   8  11
ENDBRANCH   1  10
BRANCH   3  17
ATOM     17  C   UNL     1       1.584   8.936  19.380  0.00  0.00    +0.000 A 
ATOM     18  C   UNL     1       1.808   7.794  20.153  0.00  0.00    +0.000 A 
ATOM     19  C   UNL     1       2.467   6.678  19.626  0.00  0.00    +0.000 A 
ATOM     20  C   UNL     1       2.928   6.677  18.307  0.00  0.00    +0.000 A 
ATOM     21  C   UNL     1       2.663   7.800  17.511  0.00  0.00    +0.000 A 
ATOM     22  C   UNL     1       1.993   8.917  18.041  0.00  0.00    +0.000 A 
BRANCH  20  23
ATOM     23  C   UNL     1       3.692   5.489  17.771  0.00  0.00    +0.000 C 
BRANCH  23  24
ATOM     24  N   UNL     1       3.189   4.225  18.265  0.00  0.00    +0.000 N 
ATOM     25  C   UNL     1       3.918   3.370  19.037  0.00  0.00    +0.000 C 
ATOM     26  O   UNL     1       5.048   3.550  19.467  0.00  0.00    +0.000 OA
ATOM     27  C   UNL     1       3.131   2.109  19.240  0.00  0.00    +0.000 C 
ATOM     28  C   UNL     1       1.778   2.404  18.621  0.00  0.00    +0.000 C 
ATOM     29  C   UNL     1       1.961   3.730  17.946  0.00  0.00    +0.000 C 
ATOM     30  O   UNL     1       1.121   4.258  17.230  0.00  0.00    +0.000 OA
ENDBRANCH  23  24
ENDBRANCH  20  23
ENDBRANCH   3  17
TORSDOF 5
ENDMDL
MODEL 7
REMARK VINA RESULT:      -8.3      1.810      2.450
REMARK  Name = 
REMARK  6 active torsions:
REMARK  status: ('A' for Active; 'I' for Inactive)
REMARK    1  A    between atoms: C_1  and  C_2
REMARK    2  A    between atoms: N_4  and  C_5
REMARK    3  A    between atoms: C_12  and  C_13
REMARK    4  A    between atoms: N_15  and  C_16
REMARK    5  A    between atoms: C_19  and  C_20
REMARK    6  A    between atoms: C_20  and  N_21
REMARK                            x       y       z     vdW  Elec       q    Type
REMARK                         _______ _______ _______ _____ _____    ______ ____
ROOT
ATOM      1  C   UNL     1       0.660  10.353  20.861  0.00  0.00    +0.000 C 
ATOM      2  O   UNL     1       1.613  10.352  21.638  0.00  0.00    +0.000 OA
ATOM      3  N   UNL     1       0.544   9.560  19.728  0.00  0.00    +0.000 N 
ATOM      4  H   UNL     1      -0.262   9.767  19.143  0.00  0.00    +0.000 HD
ENDROOT
BRANCH   1  10
ATOM      5  C   UNL     1      -0.020  13.063  19.185  0.00  0.00    +0.000 C 
ATOM      6  C   UNL     1      -0.753  12.448  20.319  0.00  0.00    +0.000 A 
ATOM      7  N   UNL     1      -1.883  13.000  20.764  0.00  0.00    +0.000 NA
ATOM      8  N   UNL     1      -2.227  12.190  21.793  0.00  0.00    +0.000 N 
ATOM      9  N   UNL     1      -1.390  11.136  22.036  0.00  0.00    +0.000 NA
ATOM     10  C   UNL     1      -0.458  11.284  21.071  0.00  0.00    +0.000 A 
BRANCH   8  11
ATOM     11  C   UNL     1      -3.405  12.431  22.548  0.00  0.00    +0.000 A 
ATOM     12  C   UNL     1      -3.369  12.319  23.950  0.00  0.00    +0.000 A 
ATOM     13  C   UNL     1      -4.517  12.575  24.701  0.00  0.00    +0.000 A 
ATOM     14  C   UNL     1      -5.705  12.922  24.057  0.00  0.00    +0.000 A 
ATOM     15  C   UNL     1      -5.748  13.018  22.666  0.00  0.00    +0.000 A 
ATOM     16  C   UNL     1      -4.598  12.781  21.907  0.00  0.00    +0.000 A 
ENDBRANCH   8  11
ENDBRANCH   1  10
BRANCH   3  17
ATOM     17  C   UNL     1       1.481   8.602  19.270  0.00  0.00    +0.000 A 
ATOM     18  C   UNL     1       2.130   8.699  18.036  0.00  0.00    +0.000 A 
ATOM     19  C   UNL     1       3.011   7.704  17.599  0.00  0.00    +0.000 A 
ATOM     20  C   UNL     1       3.261   6.575  18.383  0.00  0.00    +0.000 A 
ATOM     21  C   UNL     1       2.651   6.495  19.642  0.00  0.00    +0.000 A 
ATOM     22  C   UNL     1       1.773   7.500  20.083  0.00  0.00    +0.000 A 
BRANCH  20  23
ATOM     23  C   UNL     1       4.165   5.480  17.869  0.00  0.00    +0.000 C 
BRANCH  23  24
ATOM     24  N   UNL     1       5.566   5.845  17.896  0.00  0.00    +0.000 N 
ATOM     25  C   UNL     1       6.381   5.638  18.969  0.00  0.00    +0.000 C 
ATOM     26  O   UNL     1       6.088   5.081  20.018  0.00  0.00    +0.000 OA
ATOM     27  C   UNL     1       7.715   6.264  18.693  0.00  0.00    +0.000 C 
ATOM     28  C   UNL     1       7.626   6.723  17.250  0.00  0.00    +0.000 C 
ATOM     29  C   UNL     1       6.190   6.500  16.879  0.00  0.00    +0.000 C 
ATOM     30  O   UNL     1       5.691   6.859  15.821  0.00  0.00    +0.000 OA
ENDBRANCH  23  24
ENDBRANCH  20  23
ENDBRANCH   3  17
TORSDOF 5
ENDMDL
MODEL 8
REMARK VINA RESULT:      -8.3      0.281      1.681
REMARK  Name = 
REMARK  6 active torsions:
REMARK  status: ('A' for Active; 'I' for Inactive)
REMARK    1  A    between atoms: C_1  and  C_2
REMARK    2  A    between atoms: N_4  and  C_5
REMARK    3  A    between atoms: C_12  and  C_13
REMARK    4  A    between atoms: N_15  and  C_16
REMARK    5  A    between atoms: C_19  and  C_20
REMARK    6  A    between atoms: C_20  and  N_21
REMARK                            x       y       z     vdW  Elec       q    Type
REMARK                         _______ _______ _______ _____ _____    ______ ____
ROOT
ATOM      1  C   UNL     1       0.777  10.070  21.392  0.00  0.00    +0.000 C 
ATOM      2  O   UNL     1       1.579   9.695  22.246  0.00  0.00    +0.000 OA
ATOM      3  N   UNL     1       0.673   9.560  20.105  0.00  0.00    +0.000 N 
ATOM      4  H   UNL     1       0.026  10.058  19.500  0.00  0.00    +0.000 HD
ENDROOT
BRANCH   1  10
ATOM      5  C   UNL     1       1.231  13.245  20.820  0.00  0.00    +0.000 C 
ATOM      6  C   UNL     1       0.060  12.552  21.411  0.00  0.00    +0.000 A 
ATOM      7  N   UNL     1      -1.024  13.249  21.760  0.00  0.00    +0.000 NA
ATOM      8  N   UNL     1      -1.840  12.297  22.271  0.00  0.00    +0.000 N 
ATOM      9  N   UNL     1      -1.353  11.019  22.265  0.00  0.00    +0.000 NA
ATOM     10  C   UNL     1      -0.144  11.177  21.686  0.00  0.00    +0.000 A 
BRANCH   8  11
ATOM     11  C   UNL     1      -3.130  12.629  22.761  0.00  0.00    +0.000 A 
ATOM     12  C   UNL     1      -3.485  12.288  24.078  0.00  0.00    +0.000 A 
ATOM     13  C   UNL     1      -4.744  12.630  24.573  0.00  0.00    +0.000 A 
ATOM     14  C   UNL     1      -5.657  13.293  23.753  0.00  0.00    +0.000 A 
ATOM     15  C   UNL     1      -5.313  13.620  22.442  0.00  0.00    +0.000 A 
ATOM     16  C   UNL     1      -4.048  13.297  21.943  0.00  0.00    +0.000 A 
ENDBRANCH   8  11
ENDBRANCH   1  10
BRANCH   3  17
ATOM     17  C   UNL     1       1.451   8.517  19.547  0.00  0.00    +0.000 A 
ATOM     18  C   UNL     1       1.779   7.352  20.246  0.00  0.00    +0.000 A 
ATOM     19  C   UNL     1       2.593   6.368  19.676  0.00  0.00    +0.000 A 
ATOM     20  C   UNL     1       3.110   6.525  18.388  0.00  0.00    +0.000 A 
ATOM     21  C   UNL     1       2.746   7.668  17.662  0.00  0.00    +0.000 A 
ATOM     22  C   UNL     1       1.920   8.652  18.235  0.00  0.00    +0.000 A 
BRANCH  20  23
ATOM     23  C   UNL     1       4.039   5.483  17.810  0.00  0.00    +0.000 C 
BRANCH  23  24
ATOM     24  N   UNL     1       3.670   4.133  18.178  0.00  0.00    +0.000 N 
ATOM     25  C   UNL     1       2.500   3.540  17.805  0.00  0.00    +0.000 C 
ATOM     26  O   UNL     1       1.635   4.012  17.081  0.00  0.00    +0.000 OA
ATOM     27  C   UNL     1       2.397   2.204  18.480  0.00  0.00    +0.000 C 
ATOM     28  C   UNL     1       3.736   2.024  19.169  0.00  0.00    +0.000 C 
ATOM     29  C   UNL     1       4.421   3.346  18.996  0.00  0.00    +0.000 C 
ATOM     30  O   UNL     1       5.488   3.639  19.520  0.00  0.00    +0.000 OA
ENDBRANCH  23  24
ENDBRANCH  20  23
ENDBRANCH   3  17
TORSDOF 5
ENDMDL
MODEL 9
REMARK VINA RESULT:      -8.2      1.476      1.512
REMARK  Name = 
REMARK  6 active torsions:
REMARK  status: ('A' for Active; 'I' for Inactive)
REMARK    1  A    between atoms: C_1  and  C_2
REMARK    2  A    between atoms: N_4  and  C_5
REMARK    3  A    between atoms: C_12  and  C_13
REMARK    4  A    between atoms: N_15  and  C_16
REMARK    5  A    between atoms: C_19  and  C_20
REMARK    6  A    between atoms: C_20  and  N_21
REMARK                            x       y       z     vdW  Elec       q    Type
REMARK                         _______ _______ _______ _____ _____    ______ ____
ROOT
ATOM      1  C   UNL     1      -0.245  10.482  19.035  0.00  0.00    +0.000 C 
ATOM      2  O   UNL     1      -0.748  10.077  17.988  0.00  0.00    +0.000 OA
ATOM      3  N   UNL     1       0.875   9.942  19.651  0.00  0.00    +0.000 N 
ATOM      4  H   UNL     1       1.090  10.335  20.564  0.00  0.00    +0.000 HD
ENDROOT
BRANCH   1  10
ATOM      5  C   UNL     1       0.102  13.670  18.461  0.00  0.00    +0.000 C 
ATOM      6  C   UNL     1      -0.720  12.981  19.487  0.00  0.00    +0.000 A 
ATOM      7  N   UNL     1      -1.485  13.690  20.319  0.00  0.00    +0.000 NA
ATOM      8  N   UNL     1      -2.042  12.736  21.101  0.00  0.00    +0.000 N 
ATOM      9  N   UNL     1      -1.690  11.445  20.818  0.00  0.00    +0.000 NA
ATOM     10  C   UNL     1      -0.864  11.599  19.763  0.00  0.00    +0.000 A 
BRANCH   8  11
ATOM     11  C   UNL     1      -2.951  13.080  22.136  0.00  0.00    +0.000 A 
ATOM     12  C   UNL     1      -3.068  12.250  23.265  0.00  0.00    +0.000 A 
ATOM     13  C   UNL     1      -3.943  12.592  24.296  0.00  0.00    +0.000 A 
ATOM     14  C   UNL     1      -4.716  13.748  24.196  0.00  0.00    +0.000 A 
ATOM     15  C   UNL     1      -4.613  14.566  23.071  0.00  0.00    +0.000 A 
ATOM     16  C   UNL     1      -3.726  14.241  22.041  0.00  0.00    +0.000 A 
ENDBRANCH   8  11
ENDBRANCH   1  10
BRANCH   3  17
ATOM     17  C   UNL     1       1.648   8.849  19.189  0.00  0.00    +0.000 A 
ATOM     18  C   UNL     1       2.236   8.813  17.922  0.00  0.00    +0.000 A 
ATOM     19  C   UNL     1       2.948   7.691  17.484  0.00  0.00    +0.000 A 
ATOM     20  C   UNL     1       3.086   6.567  18.303  0.00  0.00    +0.000 A 
ATOM     21  C   UNL     1       2.540   6.616  19.593  0.00  0.00    +0.000 A 
ATOM     22  C   UNL     1       1.832   7.747  20.034  0.00  0.00    +0.000 A 
BRANCH  20  23
ATOM     23  C   UNL     1       3.804   5.340  17.792  0.00  0.00    +0.000 C 
BRANCH  23  24
ATOM     24  N   UNL     1       3.234   4.106  18.287  0.00  0.00    +0.000 N 
ATOM     25  C   UNL     1       3.910   3.221  19.073  0.00  0.00    +0.000 C 
ATOM     26  O   UNL     1       5.043   3.349  19.517  0.00  0.00    +0.000 OA
ATOM     27  C   UNL     1       3.061   2.002  19.274  0.00  0.00    +0.000 C 
ATOM     28  C   UNL     1       1.731   2.358  18.636  0.00  0.00    +0.000 C 
ATOM     29  C   UNL     1       1.988   3.669  17.955  0.00  0.00    +0.000 C 
ATOM     30  O   UNL     1       1.183   4.232  17.225  0.00  0.00    +0.000 OA
ENDBRANCH  23  24
ENDBRANCH  20  23
ENDBRANCH   3  17
TORSDOF 5
ENDMDL
