MODEL 1
REMARK VINA RESULT:      -9.6      0.000      0.000
REMARK  Name = 
REMARK  4 active torsions:
REMARK  status: ('A' for Active; 'I' for Inactive)
REMARK    1  A    between atoms: C_2  and  C_16
REMARK    2  A    between atoms: N_3  and  C_4
REMARK    3  A    between atoms: C_6  and  C_7
REMARK    4  A    between atoms: C_19  and  C_20
REMARK                            x       y       z     vdW  Elec       q    Type
REMARK                         _______ _______ _______ _____ _____    ______ ____
ROOT
ATOM      1  O   UNL     1       2.821   5.449  18.367  0.00  0.00    +0.000 OA
ATOM      2  C   UNL     1       3.172   6.619  18.244  0.00  0.00    +0.000 C 
ATOM      3  N   UNL     1       4.403   7.023  17.753  0.00  0.00    +0.000 N 
ATOM      4  H   UNL     1       4.635   8.009  17.845  0.00  0.00    +0.000 HD
ENDROOT
BRANCH   2   5
ATOM      5  C   UNL     1       2.308   7.696  18.670  0.00  0.00    +0.000 A 
ATOM      6  C   UNL     1       1.750   7.915  19.922  0.00  0.00    +0.000 A 
ATOM      7  C   UNL     1       1.035   9.115  19.829  0.00  0.00    +0.000 A 
ATOM      8  C   UNL     1       0.275   9.929  20.715  0.00  0.00    +0.000 A 
ATOM      9  C   UNL     1      -0.295  11.056  20.237  0.00  0.00    +0.000 A 
ATOM     10  C   UNL     1      -0.145  11.457  18.798  0.00  0.00    +0.000 A 
ATOM     11  O   UNL     1      -0.680  12.482  18.389  0.00  0.00    +0.000 OA
ATOM     12  N   UNL     1       0.611  10.645  17.984  0.00  0.00    +0.000 N 
ATOM     13  C   UNL     1       1.163   9.528  18.529  0.00  0.00    +0.000 A 
ATOM     14  O   UNL     1       1.935   8.694  17.799  0.00  0.00    +0.000 OA
ATOM     15  H   UNL     1       0.743  10.883  17.013  0.00  0.00    +0.000 HD
BRANCH   8  16
ATOM     16  C   UNL     1       0.162   9.531  22.155  0.00  0.00    +0.000 C 
ATOM     17  F   UNL     1       1.340   9.214  22.752  0.00  0.00    +0.000 F 
ATOM     18  F   UNL     1      -0.384  10.530  22.896  0.00  0.00    +0.000 F 
ATOM     19  F   UNL     1      -0.646   8.450  22.305  0.00  0.00    +0.000 F 
ENDBRANCH   8  16
ENDBRANCH   2   5
BRANCH   3  20
ATOM     20  C   UNL     1       5.432   6.161  17.312  0.00  0.00    +0.000 A 
ATOM     21  C   UNL     1       5.637   5.863  15.962  0.00  0.00    +0.000 A 
ATOM     22  C   UNL     1       6.616   4.951  15.546  0.00  0.00    +0.000 A 
ATOM     23  C   UNL     1       7.422   4.350  16.522  0.00  0.00    +0.000 A 
ATOM     24  C   UNL     1       7.258   4.667  17.876  0.00  0.00    +0.000 A 
ATOM     25  C   UNL     1       6.273   5.574  18.259  0.00  0.00    +0.000 A 
ATOM     26  F   UNL     1       6.111   5.856  19.561  0.00  0.00    +0.000 F 
BRANCH  22  27
ATOM     27  C   UNL     1       6.792   4.625  14.131  0.00  0.00    +0.000 A 
ATOM     28  N   UNL     1       7.511   5.278  13.237  0.00  0.00    +0.000 NA
ATOM     29  N   UNL     1       7.376   4.599  12.050  0.00  0.00    +0.000 NA
ATOM     30  N   UNL     1       6.589   3.546  12.194  0.00  0.00    +0.000 NA
ATOM     31  N   UNL     1       6.229   3.555  13.482  0.00  0.00    +0.000 N 
ATOM     32  H   UNL     1       5.620   2.827  13.831  0.00  0.00    +0.000 HD
ENDBRANCH  22  27
ENDBRANCH   3  20
TORSDOF 4
ENDMDL
MODEL 2
REMARK VINA RESULT:      -9.2      1.914      2.470
REMARK  Name = 
REMARK  4 active torsions:
REMARK  status: ('A' for Active; 'I' for Inactive)
REMARK    1  A    between atoms: C_2  and  C_16
REMARK    2  A    between atoms: N_3  and  C_4
REMARK    3  A    between atoms: C_6  and  C_7
REMARK    4  A    between atoms: C_19  and  C_20
REMARK                            x       y       z     vdW  Elec       q    Type
REMARK                         _______ _______ _______ _____ _____    ______ ____
ROOT
ATOM      1  O   UNL     1       2.600   8.550  17.027  0.00  0.00    +0.000 OA
ATOM      2  C   UNL     1       2.288   8.266  18.180  0.00  0.00    +0.000 C 
ATOM      3  N   UNL     1       2.495   7.028  18.768  0.00  0.00    +0.000 N 
ATOM      4  H   UNL     1       2.056   6.868  19.670  0.00  0.00    +0.000 HD
ENDROOT
BRANCH   2   5
ATOM      5  C   UNL     1       1.610   9.227  19.018  0.00  0.00    +0.000 A 
ATOM      6  C   UNL     1       0.961   9.017  20.228  0.00  0.00    +0.000 A 
ATOM      7  C   UNL     1       0.513  10.273  20.656  0.00  0.00    +0.000 A 
ATOM      8  C   UNL     1      -0.170  10.786  21.793  0.00  0.00    +0.000 A 
ATOM      9  C   UNL     1      -0.445  12.107  21.847  0.00  0.00    +0.000 A 
ATOM     10  C   UNL     1      -0.049  13.033  20.733  0.00  0.00    +0.000 A 
ATOM     11  O   UNL     1      -0.319  14.227  20.805  0.00  0.00    +0.000 OA
ATOM     12  N   UNL     1       0.622  12.492  19.662  0.00  0.00    +0.000 N 
ATOM     13  C   UNL     1       0.874  11.156  19.672  0.00  0.00    +0.000 A 
ATOM     14  O   UNL     1       1.548  10.556  18.667  0.00  0.00    +0.000 OA
ATOM     15  H   UNL     1       0.913  13.082  18.896  0.00  0.00    +0.000 HD
BRANCH   8  16
ATOM     16  C   UNL     1      -0.530   9.854  22.910  0.00  0.00    +0.000 C 
ATOM     17  F   UNL     1       0.484   9.578  23.769  0.00  0.00    +0.000 F 
ATOM     18  F   UNL     1      -1.540  10.361  23.663  0.00  0.00    +0.000 F 
ATOM     19  F   UNL     1      -0.964   8.659  22.433  0.00  0.00    +0.000 F 
ENDBRANCH   8  16
ENDBRANCH   2   5
BRANCH   3  20
ATOM     20  C   UNL     1       3.099   5.915  18.142  0.00  0.00    +0.000 A 
ATOM     21  C   UNL     1       4.200   6.037  17.290  0.00  0.00    +0.000 A 
ATOM     22  C   UNL     1       4.745   4.932  16.621  0.00  0.00    +0.000 A 
ATOM     23  C   UNL     1       4.173   3.672  16.844  0.00  0.00    +0.000 A 
ATOM     24  C   UNL     1       3.095   3.525  17.725  0.00  0.00    +0.000 A 
ATOM     25  C   UNL     1       2.573   4.642  18.372  0.00  0.00    +0.000 A 
ATOM     26  F   UNL     1       1.527   4.493  19.199  0.00  0.00    +0.000 F 
BRANCH  22  27
ATOM     27  C   UNL     1       5.876   5.085  15.706  0.00  0.00    +0.000 A 
ATOM     28  N   UNL     1       7.056   5.616  15.965  0.00  0.00    +0.000 NA
ATOM     29  N   UNL     1       7.787   5.538  14.805  0.00  0.00    +0.000 NA
ATOM     30  N   UNL     1       7.083   4.973  13.839  0.00  0.00    +0.000 NA
ATOM     31  N   UNL     1       5.901   4.687  14.393  0.00  0.00    +0.000 N 
ATOM     32  H   UNL     1       5.187   4.237  13.834  0.00  0.00    +0.000 HD
ENDBRANCH  22  27
ENDBRANCH   3  20
TORSDOF 4
ENDMDL
MODEL 3
REMARK VINA RESULT:      -9.0      3.592      4.474
REMARK  Name = 
REMARK  4 active torsions:
REMARK  status: ('A' for Active; 'I' for Inactive)
REMARK    1  A    between atoms: C_2  and  C_16
REMARK    2  A    between atoms: N_3  and  C_4
REMARK    3  A    between atoms: C_6  and  C_7
REMARK    4  A    between atoms: C_19  and  C_20
REMARK                            x       y       z     vdW  Elec       q    Type
REMARK                         _______ _______ _______ _____ _____    ______ ____
ROOT
ATOM      1  O   UNL     1       2.899   8.609  17.250  0.00  0.00    +0.000 OA
ATOM      2  C   UNL     1       2.015   8.296  18.043  0.00  0.00    +0.000 C 
ATOM      3  N   UNL     1       1.859   7.032  18.587  0.00  0.00    +0.000 N 
ATOM      4  H   UNL     1       1.002   6.856  19.106  0.00  0.00    +0.000 HD
ENDROOT
BRANCH   2   5
ATOM      5  C   UNL     1       1.006   9.253  18.435  0.00  0.00    +0.000 A 
ATOM      6  C   UNL     1      -0.142   9.630  17.752  0.00  0.00    +0.000 A 
ATOM      7  C   UNL     1      -0.806  10.547  18.576  0.00  0.00    +0.000 A 
ATOM      8  C   UNL     1      -2.023  11.283  18.522  0.00  0.00    +0.000 A 
ATOM      9  C   UNL     1      -2.330  12.109  19.545  0.00  0.00    +0.000 A 
ATOM     10  C   UNL     1      -1.414  12.266  20.725  0.00  0.00    +0.000 A 
ATOM     11  O   UNL     1      -1.716  13.029  21.636  0.00  0.00    +0.000 OA
ATOM     12  N   UNL     1      -0.257  11.523  20.737  0.00  0.00    +0.000 N 
ATOM     13  C   UNL     1      -0.009  10.705  19.680  0.00  0.00    +0.000 A 
ATOM     14  O   UNL     1       1.095   9.929  19.631  0.00  0.00    +0.000 OA
ATOM     15  H   UNL     1       0.382  11.594  21.515  0.00  0.00    +0.000 HD
BRANCH   8  16
ATOM     16  C   UNL     1      -2.940  11.090  17.354  0.00  0.00    +0.000 C 
ATOM     17  F   UNL     1      -4.064  11.852  17.380  0.00  0.00    +0.000 F 
ATOM     18  F   UNL     1      -2.310  11.381  16.185  0.00  0.00    +0.000 F 
ATOM     19  F   UNL     1      -3.354   9.800  17.260  0.00  0.00    +0.000 F 
ENDBRANCH   8  16
ENDBRANCH   2   5
BRANCH   3  20
ATOM     20  C   UNL     1       2.689   5.919  18.326  0.00  0.00    +0.000 A 
ATOM     21  C   UNL     1       4.049   5.903  18.650  0.00  0.00    +0.000 A 
ATOM     22  C   UNL     1       4.876   4.820  18.322  0.00  0.00    +0.000 A 
ATOM     23  C   UNL     1       4.301   3.719  17.672  0.00  0.00    +0.000 A 
ATOM     24  C   UNL     1       2.934   3.700  17.376  0.00  0.00    +0.000 A 
ATOM     25  C   UNL     1       2.138   4.793  17.711  0.00  0.00    +0.000 A 
ATOM     26  F   UNL     1       0.832   4.774  17.405  0.00  0.00    +0.000 F 
BRANCH  22  27
ATOM     27  C   UNL     1       6.303   4.837  18.638  0.00  0.00    +0.000 A 
ATOM     28  N   UNL     1       6.885   5.335  19.714  0.00  0.00    +0.000 NA
ATOM     29  N   UNL     1       8.234   5.116  19.569  0.00  0.00    +0.000 NA
ATOM     30  N   UNL     1       8.494   4.498  18.430  0.00  0.00    +0.000 NA
ATOM     31  N   UNL     1       7.302   4.319  17.852  0.00  0.00    +0.000 N 
ATOM     32  H   UNL     1       7.251   3.853  16.955  0.00  0.00    +0.000 HD
ENDBRANCH  22  27
ENDBRANCH   3  20
TORSDOF 4
ENDMDL
MODEL 4
REMARK VINA RESULT:      -9.0      3.182      4.149
REMARK  Name = 
REMARK  4 active torsions:
REMARK  status: ('A' for Active; 'I' for Inactive)
REMARK    1  A    between atoms: C_2  and  C_16
REMARK    2  A    between atoms: N_3  and  C_4
REMARK    3  A    between atoms: C_6  and  C_7
REMARK    4  A    between atoms: C_19  and  C_20
REMARK                            x       y       z     vdW  Elec       q    Type
REMARK                         _______ _______ _______ _____ _____    ______ ____
ROOT
ATOM      1  O   UNL     1       1.958   7.977  17.757  0.00  0.00    +0.000 OA
ATOM      2  C   UNL     1       1.901   8.124  18.975  0.00  0.00    +0.000 C 
ATOM      3  N   UNL     1       2.351   7.195  19.900  0.00  0.00    +0.000 N 
ATOM      4  H   UNL     1       2.109   7.360  20.873  0.00  0.00    +0.000 HD
ENDROOT
BRANCH   2   5
ATOM      5  C   UNL     1       1.287   9.300  19.548  0.00  0.00    +0.000 A 
ATOM      6  C   UNL     1       1.015  10.517  18.940  0.00  0.00    +0.000 A 
ATOM      7  C   UNL     1       0.374  11.304  19.905  0.00  0.00    +0.000 A 
ATOM      8  C   UNL     1      -0.199  12.605  19.955  0.00  0.00    +0.000 A 
ATOM      9  C   UNL     1      -0.738  13.035  21.115  0.00  0.00    +0.000 A 
ATOM     10  C   UNL     1      -0.739  12.172  22.344  0.00  0.00    +0.000 A 
ATOM     11  O   UNL     1      -1.229  12.592  23.387  0.00  0.00    +0.000 OA
ATOM     12  N   UNL     1      -0.186  10.917  22.242  0.00  0.00    +0.000 N 
ATOM     13  C   UNL     1       0.335  10.541  21.044  0.00  0.00    +0.000 A 
ATOM     14  O   UNL     1       0.874   9.317  20.860  0.00  0.00    +0.000 OA
ATOM     15  H   UNL     1      -0.174  10.303  23.043  0.00  0.00    +0.000 HD
BRANCH   8  16
ATOM     16  C   UNL     1      -0.219  13.440  18.712  0.00  0.00    +0.000 C 
ATOM     17  F   UNL     1      -0.951  12.925  17.691  0.00  0.00    +0.000 F 
ATOM     18  F   UNL     1      -0.729  14.675  18.961  0.00  0.00    +0.000 F 
ATOM     19  F   UNL     1       1.035  13.630  18.226  0.00  0.00    +0.000 F 
ENDBRANCH   8  16
ENDBRANCH   2   5
BRANCH   3  20
ATOM     20  C   UNL     1       2.949   5.953  19.590  0.00  0.00    +0.000 A 
ATOM     21  C   UNL     1       4.151   5.852  18.885  0.00  0.00    +0.000 A 
ATOM     22  C   UNL     1       4.696   4.612  18.523  0.00  0.00    +0.000 A 
ATOM     23  C   UNL     1       4.015   3.450  18.910  0.00  0.00    +0.000 A 
ATOM     24  C   UNL     1       2.831   3.531  19.652  0.00  0.00    +0.000 A 
ATOM     25  C   UNL     1       2.312   4.778  19.993  0.00  0.00    +0.000 A 
ATOM     26  F   UNL     1       1.166   4.845  20.686  0.00  0.00    +0.000 F 
BRANCH  22  27
ATOM     27  C   UNL     1       5.937   4.528  17.755  0.00  0.00    +0.000 A 
ATOM     28  N   UNL     1       6.088   4.657  16.450  0.00  0.00    +0.000 NA
ATOM     29  N   UNL     1       7.429   4.504  16.191  0.00  0.00    +0.000 NA
ATOM     30  N   UNL     1       8.104   4.282  17.306  0.00  0.00    +0.000 NA
ATOM     31  N   UNL     1       7.186   4.301  18.278  0.00  0.00    +0.000 N 
ATOM     32  H   UNL     1       7.475   4.155  19.236  0.00  0.00    +0.000 HD
ENDBRANCH  22  27
ENDBRANCH   3  20
TORSDOF 4
ENDMDL
MODEL 5
REMARK VINA RESULT:      -8.9      3.423      9.317
REMARK  Name = 
REMARK  4 active torsions:
REMARK  status: ('A' for Active; 'I' for Inactive)
REMARK    1  A    between atoms: C_2  and  C_16
REMARK    2  A    between atoms: N_3  and  C_4
REMARK    3  A    between atoms: C_6  and  C_7
REMARK    4  A    between atoms: C_19  and  C_20
REMARK                            x       y       z     vdW  Elec       q    Type
REMARK                         _______ _______ _______ _____ _____    ______ ____
ROOT
ATOM      1  O   UNL     1       2.102   9.806  17.420  0.00  0.00    +0.000 OA
ATOM      2  C   UNL     1       1.914   8.915  18.244  0.00  0.00    +0.000 C 
ATOM      3  N   UNL     1       0.956   8.959  19.244  0.00  0.00    +0.000 N 
ATOM      4  H   UNL     1       1.000   8.235  19.956  0.00  0.00    +0.000 HD
ENDROOT
BRANCH   2   5
ATOM      5  C   UNL     1       2.749   7.736  18.258  0.00  0.00    +0.000 A 
ATOM      6  C   UNL     1       3.833   7.434  17.446  0.00  0.00    +0.000 A 
ATOM      7  C   UNL     1       4.326   6.201  17.891  0.00  0.00    +0.000 A 
ATOM      8  C   UNL     1       5.410   5.345  17.551  0.00  0.00    +0.000 A 
ATOM      9  C   UNL     1       5.563   4.187  18.229  0.00  0.00    +0.000 A 
ATOM     10  C   UNL     1       4.613   3.791  19.324  0.00  0.00    +0.000 A 
ATOM     11  O   UNL     1       4.773   2.730  19.917  0.00  0.00    +0.000 OA
ATOM     12  N   UNL     1       3.590   4.659  19.625  0.00  0.00    +0.000 N 
ATOM     13  C   UNL     1       3.495   5.812  18.910  0.00  0.00    +0.000 A 
ATOM     14  O   UNL     1       2.532   6.723  19.163  0.00  0.00    +0.000 OA
ATOM     15  H   UNL     1       2.936   4.434  20.359  0.00  0.00    +0.000 HD
BRANCH   8  16
ATOM     16  C   UNL     1       6.366   5.770  16.479  0.00  0.00    +0.000 C 
ATOM     17  F   UNL     1       7.044   6.916  16.743  0.00  0.00    +0.000 F 
ATOM     18  F   UNL     1       7.306   4.814  16.256  0.00  0.00    +0.000 F 
ATOM     19  F   UNL     1       5.726   5.966  15.298  0.00  0.00    +0.000 F 
ENDBRANCH   8  16
ENDBRANCH   2   5
BRANCH   3  20
ATOM     20  C   UNL     1       0.049  10.020  19.463  0.00  0.00    +0.000 A 
ATOM     21  C   UNL     1      -1.103  10.196  18.692  0.00  0.00    +0.000 A 
ATOM     22  C   UNL     1      -1.957  11.293  18.875  0.00  0.00    +0.000 A 
ATOM     23  C   UNL     1      -1.645  12.216  19.883  0.00  0.00    +0.000 A 
ATOM     24  C   UNL     1      -0.517  12.034  20.692  0.00  0.00    +0.000 A 
ATOM     25  C   UNL     1       0.314  10.936  20.483  0.00  0.00    +0.000 A 
ATOM     26  F   UNL     1       1.403  10.782  21.251  0.00  0.00    +0.000 F 
BRANCH  22  27
ATOM     27  C   UNL     1      -3.139  11.479  18.034  0.00  0.00    +0.000 A 
ATOM     28  N   UNL     1      -3.332  11.036  16.806  0.00  0.00    +0.000 NA
ATOM     29  N   UNL     1      -4.586  11.453  16.430  0.00  0.00    +0.000 NA
ATOM     30  N   UNL     1      -5.166  12.142  17.397  0.00  0.00    +0.000 NA
ATOM     31  N   UNL     1      -4.276  12.157  18.395  0.00  0.00    +0.000 N 
ATOM     32  H   UNL     1      -4.507  12.632  19.258  0.00  0.00    +0.000 HD
ENDBRANCH  22  27
ENDBRANCH   3  20
TORSDOF 4
ENDMDL
MODEL 6
REMARK VINA RESULT:      -8.9      4.708      8.628
REMARK  Name = 
REMARK  4 active torsions:
REMARK  status: ('A' for Active; 'I' for Inactive)
REMARK    1  A    between atoms: C_2  and  C_16
REMARK    2  A    between atoms: N_3  and  C_4
REMARK    3  A    between atoms: C_6  and  C_7
REMARK    4  A    between atoms: C_19  and  C_20
REMARK                            x       y       z     vdW  Elec       q    Type
REMARK                         _______ _______ _______ _____ _____    ______ ____
ROOT
ATOM      1  O   UNL     1       2.387   9.046  17.090  0.00  0.00    +0.000 OA
ATOM      2  C   UNL     1       1.937   8.699  18.179  0.00  0.00    +0.000 C 
ATOM      3  N   UNL     1       1.263   9.535  19.054  0.00  0.00    +0.000 N 
ATOM      4  H   UNL     1       1.078   9.173  19.986  0.00  0.00    +0.000 HD
ENDROOT
BRANCH   2   5
ATOM      5  C   UNL     1       2.137   7.351  18.661  0.00  0.00    +0.000 A 
ATOM      6  C   UNL     1       2.540   6.228  17.952  0.00  0.00    +0.000 A 
ATOM      7  C   UNL     1       2.627   5.186  18.883  0.00  0.00    +0.000 A 
ATOM      8  C   UNL     1       3.006   3.815  18.858  0.00  0.00    +0.000 A 
ATOM      9  C   UNL     1       2.948   3.102  20.003  0.00  0.00    +0.000 A 
ATOM     10  C   UNL     1       2.490   3.726  21.290  0.00  0.00    +0.000 A 
ATOM     11  O   UNL     1       2.440   3.052  22.313  0.00  0.00    +0.000 OA
ATOM     12  N   UNL     1       2.148   5.058  21.266  0.00  0.00    +0.000 N 
ATOM     13  C   UNL     1       2.234   5.721  20.083  0.00  0.00    +0.000 A 
ATOM     14  O   UNL     1       1.937   7.035  19.985  0.00  0.00    +0.000 OA
ATOM     15  H   UNL     1       1.843   5.517  22.111  0.00  0.00    +0.000 HD
BRANCH   8  16
ATOM     16  C   UNL     1       3.491   3.217  17.573  0.00  0.00    +0.000 C 
ATOM     17  F   UNL     1       2.611   3.293  16.541  0.00  0.00    +0.000 F 
ATOM     18  F   UNL     1       4.629   3.827  17.149  0.00  0.00    +0.000 F 
ATOM     19  F   UNL     1       3.790   1.901  17.725  0.00  0.00    +0.000 F 
ENDBRANCH   8  16
ENDBRANCH   2   5
BRANCH   3  20
ATOM     20  C   UNL     1       0.982  10.901  18.829  0.00  0.00    +0.000 A 
ATOM     21  C   UNL     1       1.985  11.851  18.618  0.00  0.00    +0.000 A 
ATOM     22  C   UNL     1       1.694  13.214  18.466  0.00  0.00    +0.000 A 
ATOM     23  C   UNL     1       0.351  13.614  18.503  0.00  0.00    +0.000 A 
ATOM     24  C   UNL     1      -0.669  12.671  18.672  0.00  0.00    +0.000 A 
ATOM     25  C   UNL     1      -0.349  11.324  18.824  0.00  0.00    +0.000 A 
ATOM     26  F   UNL     1      -1.333  10.432  19.006  0.00  0.00    +0.000 F 
BRANCH  22  27
ATOM     27  C   UNL     1       2.760  14.197  18.282  0.00  0.00    +0.000 A 
ATOM     28  N   UNL     1       2.718  15.490  18.545  0.00  0.00    +0.000 NA
ATOM     29  N   UNL     1       3.951  16.000  18.215  0.00  0.00    +0.000 NA
ATOM     30  N   UNL     1       4.748  15.051  17.755  0.00  0.00    +0.000 NA
ATOM     31  N   UNL     1       4.017  13.932  17.799  0.00  0.00    +0.000 N 
ATOM     32  H   UNL     1       4.428  13.059  17.493  0.00  0.00    +0.000 HD
ENDBRANCH  22  27
ENDBRANCH   3  20
TORSDOF 4
ENDMDL
MODEL 7
REMARK VINA RESULT:      -8.9      3.197      4.065
REMARK  Name = 
REMARK  4 active torsions:
REMARK  status: ('A' for Active; 'I' for Inactive)
REMARK    1  A    between atoms: C_2  and  C_16
REMARK    2  A    between atoms: N_3  and  C_4
REMARK    3  A    between atoms: C_6  and  C_7
REMARK    4  A    between atoms: C_19  and  C_20
REMARK                            x       y       z     vdW  Elec       q    Type
REMARK                         _______ _______ _______ _____ _____    ______ ____
ROOT
ATOM      1  O   UNL     1       2.694   7.905  18.246  0.00  0.00    +0.000 OA
ATOM      2  C   UNL     1       2.125   7.803  19.330  0.00  0.00    +0.000 C 
ATOM      3  N   UNL     1       2.205   6.695  20.157  0.00  0.00    +0.000 N 
ATOM      4  H   UNL     1       1.569   6.665  20.950  0.00  0.00    +0.000 HD
ENDROOT
BRANCH   2   5
ATOM      5  C   UNL     1       1.256   8.854  19.807  0.00  0.00    +0.000 A 
ATOM      6  C   UNL     1       0.356   9.627  19.087  0.00  0.00    +0.000 A 
ATOM      7  C   UNL     1      -0.272  10.466  20.017  0.00  0.00    +0.000 A 
ATOM      8  C   UNL     1      -1.295  11.454  19.981  0.00  0.00    +0.000 A 
ATOM      9  C   UNL     1      -1.636  12.079  21.129  0.00  0.00    +0.000 A 
ATOM     10  C   UNL     1      -0.956  11.754  22.428  0.00  0.00    +0.000 A 
ATOM     11  O   UNL     1      -1.282  12.344  23.453  0.00  0.00    +0.000 OA
ATOM     12  N   UNL     1       0.016  10.782  22.413  0.00  0.00    +0.000 N 
ATOM     13  C   UNL     1       0.309  10.186  21.227  0.00  0.00    +0.000 A 
ATOM     14  O   UNL     1       1.235   9.207  21.137  0.00  0.00    +0.000 OA
ATOM     15  H   UNL     1       0.491  10.528  23.266  0.00  0.00    +0.000 HD
BRANCH   8  16
ATOM     16  C   UNL     1      -1.984  11.743  18.683  0.00  0.00    +0.000 C 
ATOM     17  F   UNL     1      -1.280  12.526  17.826  0.00  0.00    +0.000 F 
ATOM     18  F   UNL     1      -2.261  10.595  18.011  0.00  0.00    +0.000 F 
ATOM     19  F   UNL     1      -3.172  12.368  18.886  0.00  0.00    +0.000 F 
ENDBRANCH   8  16
ENDBRANCH   2   5
BRANCH   3  20
ATOM     20  C   UNL     1       2.954   5.527  19.892  0.00  0.00    +0.000 A 
ATOM     21  C   UNL     1       4.108   5.536  19.104  0.00  0.00    +0.000 A 
ATOM     22  C   UNL     1       4.801   4.358  18.791  0.00  0.00    +0.000 A 
ATOM     23  C   UNL     1       4.323   3.148  19.314  0.00  0.00    +0.000 A 
ATOM     24  C   UNL     1       3.193   3.125  20.139  0.00  0.00    +0.000 A 
ATOM     25  C   UNL     1       2.523   4.311  20.428  0.00  0.00    +0.000 A 
ATOM     26  F   UNL     1       1.429   4.276  21.203  0.00  0.00    +0.000 F 
BRANCH  22  27
ATOM     27  C   UNL     1       5.986   4.383  17.936  0.00  0.00    +0.000 A 
ATOM     28  N   UNL     1       6.031   4.519  16.624  0.00  0.00    +0.000 NA
ATOM     29  N   UNL     1       7.358   4.487  16.269  0.00  0.00    +0.000 NA
ATOM     30  N   UNL     1       8.129   4.334  17.332  0.00  0.00    +0.000 NA
ATOM     31  N   UNL     1       7.285   4.274  18.367  0.00  0.00    +0.000 N 
ATOM     32  H   UNL     1       7.654   4.160  19.302  0.00  0.00    +0.000 HD
ENDBRANCH  22  27
ENDBRANCH   3  20
TORSDOF 4
ENDMDL
MODEL 8
REMARK VINA RESULT:      -8.8      3.198      9.176
REMARK  Name = 
REMARK  4 active torsions:
REMARK  status: ('A' for Active; 'I' for Inactive)
REMARK    1  A    between atoms: C_2  and  C_16
REMARK    2  A    between atoms: N_3  and  C_4
REMARK    3  A    between atoms: C_6  and  C_7
REMARK    4  A    between atoms: C_19  and  C_20
REMARK                            x       y       z     vdW  Elec       q    Type
REMARK                         _______ _______ _______ _____ _____    ______ ____
ROOT
ATOM      1  O   UNL     1       1.480   8.483  19.983  0.00  0.00    +0.000 OA
ATOM      2  C   UNL     1       1.836   8.575  18.810  0.00  0.00    +0.000 C 
ATOM      3  N   UNL     1       1.437   9.581  17.945  0.00  0.00    +0.000 N 
ATOM      4  H   UNL     1       1.672   9.463  16.963  0.00  0.00    +0.000 HD
ENDROOT
BRANCH   2   5
ATOM      5  C   UNL     1       2.687   7.569  18.218  0.00  0.00    +0.000 A 
ATOM      6  C   UNL     1       2.630   6.190  18.368  0.00  0.00    +0.000 A 
ATOM      7  C   UNL     1       3.639   5.665  17.552  0.00  0.00    +0.000 A 
ATOM      8  C   UNL     1       4.107   4.367  17.203  0.00  0.00    +0.000 A 
ATOM      9  C   UNL     1       5.154   4.258  16.357  0.00  0.00    +0.000 A 
ATOM     10  C   UNL     1       5.829   5.472  15.787  0.00  0.00    +0.000 A 
ATOM     11  O   UNL     1       6.782   5.343  15.027  0.00  0.00    +0.000 OA
ATOM     12  N   UNL     1       5.331   6.704  16.144  0.00  0.00    +0.000 N 
ATOM     13  C   UNL     1       4.271   6.746  16.994  0.00  0.00    +0.000 A 
ATOM     14  O   UNL     1       3.714   7.916  17.372  0.00  0.00    +0.000 OA
ATOM     15  H   UNL     1       5.751   7.545  15.777  0.00  0.00    +0.000 HD
BRANCH   8  16
ATOM     16  C   UNL     1       3.402   3.166  17.754  0.00  0.00    +0.000 C 
ATOM     17  F   UNL     1       3.284   3.145  19.107  0.00  0.00    +0.000 F 
ATOM     18  F   UNL     1       2.139   3.071  17.261  0.00  0.00    +0.000 F 
ATOM     19  F   UNL     1       4.040   2.019  17.408  0.00  0.00    +0.000 F 
ENDBRANCH   8  16
ENDBRANCH   2   5
BRANCH   3  20
ATOM     20  C   UNL     1       0.577  10.652  18.274  0.00  0.00    +0.000 A 
ATOM     21  C   UNL     1      -0.815  10.539  18.233  0.00  0.00    +0.000 A 
ATOM     22  C   UNL     1      -1.655  11.630  18.494  0.00  0.00    +0.000 A 
ATOM     23  C   UNL     1      -1.065  12.856  18.830  0.00  0.00    +0.000 A 
ATOM     24  C   UNL     1       0.326  12.978  18.916  0.00  0.00    +0.000 A 
ATOM     25  C   UNL     1       1.135  11.877  18.647  0.00  0.00    +0.000 A 
ATOM     26  F   UNL     1       2.468  12.009  18.712  0.00  0.00    +0.000 F 
BRANCH  22  27
ATOM     27  C   UNL     1      -3.109  11.500  18.412  0.00  0.00    +0.000 A 
ATOM     28  N   UNL     1      -3.801  10.559  17.798  0.00  0.00    +0.000 NA
ATOM     29  N   UNL     1      -5.129  10.853  17.996  0.00  0.00    +0.000 NA
ATOM     30  N   UNL     1      -5.268  11.953  18.717  0.00  0.00    +0.000 NA
ATOM     31  N   UNL     1      -4.021  12.355  18.981  0.00  0.00    +0.000 N 
ATOM     32  H   UNL     1      -3.876  13.190  19.534  0.00  0.00    +0.000 HD
ENDBRANCH  22  27
ENDBRANCH   3  20
TORSDOF 4
ENDMDL
MODEL 9
REMARK VINA RESULT:      -8.8      2.749      3.520
REMARK  Name = 
REMARK  4 active torsions:
REMARK  status: ('A' for Active; 'I' for Inactive)
REMARK    1  A    between atoms: C_2  and  C_16
REMARK    2  A    between atoms: N_3  and  C_4
REMARK    3  A    between atoms: C_6  and  C_7
REMARK    4  A    between atoms: C_19  and  C_20
REMARK                            x       y       z     vdW  Elec       q    Type
REMARK                         _______ _______ _______ _____ _____    ______ ____
ROOT
ATOM      1  O   UNL     1       2.693   8.463  17.059  0.00  0.00    +0.000 OA
ATOM      2  C   UNL     1       2.321   8.195  18.199  0.00  0.00    +0.000 C 
ATOM      3  N   UNL     1       2.496   6.966  18.814  0.00  0.00    +0.000 N 
ATOM      4  H   UNL     1       2.009   6.819  19.694  0.00  0.00    +0.000 HD
ENDROOT
BRANCH   2   5
ATOM      5  C   UNL     1       1.599   9.169  18.986  0.00  0.00    +0.000 A 
ATOM      6  C   UNL     1       1.160  10.431  18.612  0.00  0.00    +0.000 A 
ATOM      7  C   UNL     1       0.474  10.952  19.716  0.00  0.00    +0.000 A 
ATOM      8  C   UNL     1      -0.244  12.144  20.011  0.00  0.00    +0.000 A 
ATOM      9  C   UNL     1      -0.779  12.295  21.241  0.00  0.00    +0.000 A 
ATOM     10  C   UNL     1      -0.625  11.237  22.296  0.00  0.00    +0.000 A 
ATOM     11  O   UNL     1      -1.115  11.405  23.407  0.00  0.00    +0.000 OA
ATOM     12  N   UNL     1       0.066  10.096  21.959  0.00  0.00    +0.000 N 
ATOM     13  C   UNL     1       0.574  10.003  20.701  0.00  0.00    +0.000 A 
ATOM     14  O   UNL     1       1.244   8.905  20.289  0.00  0.00    +0.000 OA
ATOM     15  H   UNL     1       0.185   9.358  22.636  0.00  0.00    +0.000 HD
BRANCH   8  16
ATOM     16  C   UNL     1      -0.415  13.175  18.938  0.00  0.00    +0.000 C 
ATOM     17  F   UNL     1      -1.095  12.749  17.842  0.00  0.00    +0.000 F 
ATOM     18  F   UNL     1      -1.088  14.259  19.405  0.00  0.00    +0.000 F 
ATOM     19  F   UNL     1       0.785  13.626  18.492  0.00  0.00    +0.000 F 
ENDBRANCH   8  16
ENDBRANCH   2   5
BRANCH   3  20
ATOM     20  C   UNL     1       3.131   5.845  18.236  0.00  0.00    +0.000 A 
ATOM     21  C   UNL     1       4.165   5.963  17.304  0.00  0.00    +0.000 A 
ATOM     22  C   UNL     1       4.738   4.843  16.687  0.00  0.00    +0.000 A 
ATOM     23  C   UNL     1       4.267   3.573  17.047  0.00  0.00    +0.000 A 
ATOM     24  C   UNL     1       3.261   3.432  18.009  0.00  0.00    +0.000 A 
ATOM     25  C   UNL     1       2.707   4.565  18.602  0.00  0.00    +0.000 A 
ATOM     26  F   UNL     1       1.730   4.421  19.508  0.00  0.00    +0.000 F 
BRANCH  22  27
ATOM     27  C   UNL     1       5.795   4.989  15.686  0.00  0.00    +0.000 A 
ATOM     28  N   UNL     1       5.782   4.576  14.433  0.00  0.00    +0.000 NA
ATOM     29  N   UNL     1       6.988   4.940  13.885  0.00  0.00    +0.000 NA
ATOM     30  N   UNL     1       7.742   5.565  14.773  0.00  0.00    +0.000 NA
ATOM     31  N   UNL     1       7.006   5.603  15.888  0.00  0.00    +0.000 N 
ATOM     32  H   UNL     1       7.383   6.046  16.717  0.00  0.00    +0.000 HD
ENDBRANCH  22  27
ENDBRANCH   3  20
TORSDOF 4
ENDMDL
