MODEL 1
REMARK VINA RESULT:      -8.3      0.000      0.000
REMARK  Name = 
REMARK  4 active torsions:
REMARK  status: ('A' for Active; 'I' for Inactive)
REMARK    1  A    between atoms: C_5  and  C_7
REMARK    2  A    between atoms: C_15  and  C_16
REMARK    3  A    between atoms: C_16  and  O_17
REMARK    4  A    between atoms: O_17  and  C_18
REMARK                            x       y       z     vdW  Elec       q    Type
REMARK                         _______ _______ _______ _____ _____    ______ ____
ROOT
ATOM      1  C   UNL     1       3.287   6.327  18.650  0.00  0.00    +0.000 A 
ATOM      2  O   UNL     1       4.604   6.671  18.495  0.00  0.00    +0.000 OA
ATOM      3  C   UNL     1       5.115   5.903  17.497  0.00  0.00    +0.000 A 
ATOM      4  C   UNL     1       6.442   5.916  17.076  0.00  0.00    +0.000 A 
ATOM      5  C   UNL     1       6.763   5.080  16.003  0.00  0.00    +0.000 A 
ATOM      6  C   UNL     1       5.791   4.277  15.399  0.00  0.00    +0.000 A 
ATOM      7  C   UNL     1       4.467   4.272  15.864  0.00  0.00    +0.000 A 
ATOM      8  C   UNL     1       4.124   5.101  16.948  0.00  0.00    +0.000 A 
ATOM      9  C   UNL     1       2.940   5.371  17.700  0.00  0.00    +0.000 A 
ENDROOT
BRANCH   1  14
ATOM     10  O   UNL     1       2.661  11.029  17.313  0.00  0.00    +0.000 OA
ATOM     11  C   UNL     1       2.116  10.354  18.185  0.00  0.00    +0.000 C 
ATOM     12  C   UNL     1       1.899   8.857  18.047  0.00  0.00    +0.000 C 
ATOM     13  N   UNL     1       1.753   8.147  19.328  0.00  0.00    +0.000 N 
ATOM     14  C   UNL     1       2.466   6.980  19.665  0.00  0.00    +0.000 C 
ATOM     15  O   UNL     1       2.478   6.541  20.820  0.00  0.00    +0.000 OA
ATOM     16  C   UNL     1       0.927   8.825  20.288  0.00  0.00    +0.000 A 
ATOM     17  C   UNL     1       0.226   8.151  21.294  0.00  0.00    +0.000 A 
ATOM     18  C   UNL     1      -0.563   8.858  22.208  0.00  0.00    +0.000 A 
ATOM     19  C   UNL     1      -0.639  10.248  22.146  0.00  0.00    +0.000 A 
ATOM     20  C   UNL     1       0.063  10.938  21.163  0.00  0.00    +0.000 A 
ATOM     21  C   UNL     1       0.820  10.228  20.227  0.00  0.00    +0.000 A 
ATOM     22  N   UNL     1       1.507  10.953  19.247  0.00  0.00    +0.000 N 
ATOM     23  H   UNL     1       1.543  11.962  19.276  0.00  0.00    +0.000 HD
ENDBRANCH   1  14
BRANCH   9  24
ATOM     24  C   UNL     1       1.591   4.758  17.514  0.00  0.00    +0.000 C 
BRANCH  24  25
ATOM     25  O   UNL     1       1.641   3.376  17.861  0.00  0.00    +0.000 OA
BRANCH  25  26
ATOM     26  C   UNL     1       2.008   3.058  19.139  0.00  0.00    +0.000 A 
ATOM     27  C   UNL     1       3.244   2.565  19.548  0.00  0.00    +0.000 A 
ATOM     28  C   UNL     1       3.472   2.273  20.894  0.00  0.00    +0.000 A 
ATOM     29  C   UNL     1       2.463   2.470  21.838  0.00  0.00    +0.000 A 
ATOM     30  C   UNL     1       1.223   2.962  21.433  0.00  0.00    +0.000 A 
ATOM     31  C   UNL     1       1.002   3.253  20.087  0.00  0.00    +0.000 A 
ENDBRANCH  25  26
ENDBRANCH  24  25
ENDBRANCH   9  24
TORSDOF 4
ENDMDL
MODEL 2
REMARK VINA RESULT:      -7.9      1.658      4.672
REMARK  Name = 
REMARK  4 active torsions:
REMARK  status: ('A' for Active; 'I' for Inactive)
REMARK    1  A    between atoms: C_5  and  C_7
REMARK    2  A    between atoms: C_15  and  C_16
REMARK    3  A    between atoms: C_16  and  O_17
REMARK    4  A    between atoms: O_17  and  C_18
REMARK                            x       y       z     vdW  Elec       q    Type
REMARK                         _______ _______ _______ _____ _____    ______ ____
ROOT
ATOM      1  C   UNL     1       2.508   6.634  18.304  0.00  0.00    +0.000 A 
ATOM      2  O   UNL     1       1.485   5.725  18.246  0.00  0.00    +0.000 OA
ATOM      3  C   UNL     1       2.024   4.489  18.410  0.00  0.00    +0.000 A 
ATOM      4  C   UNL     1       1.313   3.292  18.359  0.00  0.00    +0.000 A 
ATOM      5  C   UNL     1       2.044   2.123  18.594  0.00  0.00    +0.000 A 
ATOM      6  C   UNL     1       3.415   2.172  18.861  0.00  0.00    +0.000 A 
ATOM      7  C   UNL     1       4.104   3.394  18.883  0.00  0.00    +0.000 A 
ATOM      8  C   UNL     1       3.389   4.582  18.642  0.00  0.00    +0.000 A 
ATOM      9  C   UNL     1       3.705   5.973  18.566  0.00  0.00    +0.000 A 
ENDROOT
BRANCH   1  14
ATOM     10  O   UNL     1      -0.641   7.990  21.844  0.00  0.00    +0.000 OA
ATOM     11  C   UNL     1       0.030   8.655  21.057  0.00  0.00    +0.000 C 
ATOM     12  C   UNL     1       1.381   8.193  20.537  0.00  0.00    +0.000 C 
ATOM     13  N   UNL     1       1.773   8.798  19.254  0.00  0.00    +0.000 N 
ATOM     14  C   UNL     1       2.240   8.060  18.148  0.00  0.00    +0.000 C 
ATOM     15  O   UNL     1       2.353   8.573  17.030  0.00  0.00    +0.000 OA
ATOM     16  C   UNL     1       1.500  10.205  19.156  0.00  0.00    +0.000 A 
ATOM     17  C   UNL     1       2.230  11.062  18.326  0.00  0.00    +0.000 A 
ATOM     18  C   UNL     1       1.922  12.425  18.262  0.00  0.00    +0.000 A 
ATOM     19  C   UNL     1       0.862  12.943  19.004  0.00  0.00    +0.000 A 
ATOM     20  C   UNL     1       0.113  12.104  19.823  0.00  0.00    +0.000 A 
ATOM     21  C   UNL     1       0.446  10.750  19.916  0.00  0.00    +0.000 A 
ATOM     22  N   UNL     1      -0.323   9.936  20.754  0.00  0.00    +0.000 N 
ATOM     23  H   UNL     1      -1.159  10.289  21.198  0.00  0.00    +0.000 HD
ENDBRANCH   1  14
BRANCH   9  24
ATOM     24  C   UNL     1       5.047   6.607  18.735  0.00  0.00    +0.000 C 
BRANCH  24  25
ATOM     25  O   UNL     1       5.526   7.057  17.471  0.00  0.00    +0.000 OA
BRANCH  25  26
ATOM     26  C   UNL     1       5.815   6.108  16.530  0.00  0.00    +0.000 A 
ATOM     27  C   UNL     1       5.192   5.947  15.295  0.00  0.00    +0.000 A 
ATOM     28  C   UNL     1       5.589   4.918  14.439  0.00  0.00    +0.000 A 
ATOM     29  C   UNL     1       6.610   4.043  14.814  0.00  0.00    +0.000 A 
ATOM     30  C   UNL     1       7.234   4.199  16.050  0.00  0.00    +0.000 A 
ATOM     31  C   UNL     1       6.835   5.229  16.901  0.00  0.00    +0.000 A 
ENDBRANCH  25  26
ENDBRANCH  24  25
ENDBRANCH   9  24
TORSDOF 4
ENDMDL
MODEL 3
REMARK VINA RESULT:      -7.9      2.451      7.389
REMARK  Name = 
REMARK  4 active torsions:
REMARK  status: ('A' for Active; 'I' for Inactive)
REMARK    1  A    between atoms: C_5  and  C_7
REMARK    2  A    between atoms: C_15  and  C_16
REMARK    3  A    between atoms: C_16  and  O_17
REMARK    4  A    between atoms: O_17  and  C_18
REMARK                            x       y       z     vdW  Elec       q    Type
REMARK                         _______ _______ _______ _____ _____    ______ ____
ROOT
ATOM      1  C   UNL     1       3.688   3.783  17.687  0.00  0.00    +0.000 A 
ATOM      2  O   UNL     1       3.896   2.673  18.462  0.00  0.00    +0.000 OA
ATOM      3  C   UNL     1       3.267   2.877  19.649  0.00  0.00    +0.000 A 
ATOM      4  C   UNL     1       3.291   1.998  20.729  0.00  0.00    +0.000 A 
ATOM      5  C   UNL     1       2.545   2.370  21.852  0.00  0.00    +0.000 A 
ATOM      6  C   UNL     1       1.823   3.566  21.873  0.00  0.00    +0.000 A 
ATOM      7  C   UNL     1       1.840   4.440  20.776  0.00  0.00    +0.000 A 
ATOM      8  C   UNL     1       2.590   4.088  19.638  0.00  0.00    +0.000 A 
ATOM      9  C   UNL     1       2.869   4.680  18.368  0.00  0.00    +0.000 A 
ENDROOT
BRANCH   1  14
ATOM     10  O   UNL     1       7.685   6.658  17.898  0.00  0.00    +0.000 OA
ATOM     11  C   UNL     1       7.261   5.923  17.008  0.00  0.00    +0.000 C 
ATOM     12  C   UNL     1       6.477   4.654  17.298  0.00  0.00    +0.000 C 
ATOM     13  N   UNL     1       5.613   4.212  16.192  0.00  0.00    +0.000 N 
ATOM     14  C   UNL     1       4.256   3.866  16.345  0.00  0.00    +0.000 C 
ATOM     15  O   UNL     1       3.514   3.711  15.370  0.00  0.00    +0.000 OA
ATOM     16  C   UNL     1       6.222   4.302  14.894  0.00  0.00    +0.000 A 
ATOM     17  C   UNL     1       5.847   3.483  13.823  0.00  0.00    +0.000 A 
ATOM     18  C   UNL     1       6.469   3.613  12.576  0.00  0.00    +0.000 A 
ATOM     19  C   UNL     1       7.450   4.582  12.376  0.00  0.00    +0.000 A 
ATOM     20  C   UNL     1       7.825   5.417  13.424  0.00  0.00    +0.000 A 
ATOM     21  C   UNL     1       7.232   5.261  14.679  0.00  0.00    +0.000 A 
ATOM     22  N   UNL     1       7.638   6.113  15.712  0.00  0.00    +0.000 N 
ATOM     23  H   UNL     1       8.262   6.886  15.534  0.00  0.00    +0.000 HD
ENDBRANCH   1  14
BRANCH   9  24
ATOM     24  C   UNL     1       2.382   5.997  17.857  0.00  0.00    +0.000 C 
BRANCH  24  25
ATOM     25  O   UNL     1       2.938   7.049  18.641  0.00  0.00    +0.000 OA
BRANCH  25  26
ATOM     26  C   UNL     1       2.084   8.010  19.105  0.00  0.00    +0.000 A 
ATOM     27  C   UNL     1       1.596   8.128  20.404  0.00  0.00    +0.000 A 
ATOM     28  C   UNL     1       0.715   9.161  20.730  0.00  0.00    +0.000 A 
ATOM     29  C   UNL     1       0.315  10.080  19.758  0.00  0.00    +0.000 A 
ATOM     30  C   UNL     1       0.799   9.964  18.457  0.00  0.00    +0.000 A 
ATOM     31  C   UNL     1       1.680   8.931  18.136  0.00  0.00    +0.000 A 
ENDBRANCH  25  26
ENDBRANCH  24  25
ENDBRANCH   9  24
TORSDOF 4
ENDMDL
MODEL 4
REMARK VINA RESULT:      -7.9      1.823      4.699
REMARK  Name = 
REMARK  4 active torsions:
REMARK  status: ('A' for Active; 'I' for Inactive)
REMARK    1  A    between atoms: C_5  and  C_7
REMARK    2  A    between atoms: C_15  and  C_16
REMARK    3  A    between atoms: C_16  and  O_17
REMARK    4  A    between atoms: O_17  and  C_18
REMARK                            x       y       z     vdW  Elec       q    Type
REMARK                         _______ _______ _______ _____ _____    ______ ____
ROOT
ATOM      1  C   UNL     1       2.349   6.770  19.115  0.00  0.00    +0.000 A 
ATOM      2  O   UNL     1       1.902   6.220  20.287  0.00  0.00    +0.000 OA
ATOM      3  C   UNL     1       2.351   4.939  20.338  0.00  0.00    +0.000 A 
ATOM      4  C   UNL     1       2.061   4.028  21.351  0.00  0.00    +0.000 A 
ATOM      5  C   UNL     1       2.653   2.766  21.242  0.00  0.00    +0.000 A 
ATOM      6  C   UNL     1       3.486   2.452  20.165  0.00  0.00    +0.000 A 
ATOM      7  C   UNL     1       3.739   3.386  19.150  0.00  0.00    +0.000 A 
ATOM      8  C   UNL     1       3.148   4.660  19.236  0.00  0.00    +0.000 A 
ATOM      9  C   UNL     1       3.141   5.846  18.439  0.00  0.00    +0.000 A 
ENDROOT
BRANCH   1  14
ATOM     10  O   UNL     1      -0.801   8.472  22.502  0.00  0.00    +0.000 OA
ATOM     11  C   UNL     1      -0.173   9.049  21.615  0.00  0.00    +0.000 C 
ATOM     12  C   UNL     1       1.189   8.576  21.135  0.00  0.00    +0.000 C 
ATOM     13  N   UNL     1       1.533   9.012  19.773  0.00  0.00    +0.000 N 
ATOM     14  C   UNL     1       2.015   8.148  18.769  0.00  0.00    +0.000 C 
ATOM     15  O   UNL     1       2.087   8.504  17.589  0.00  0.00    +0.000 OA
ATOM     16  C   UNL     1       1.195  10.379  19.486  0.00  0.00    +0.000 A 
ATOM     17  C   UNL     1       1.874  11.142  18.530  0.00  0.00    +0.000 A 
ATOM     18  C   UNL     1       1.504  12.469  18.285  0.00  0.00    +0.000 A 
ATOM     19  C   UNL     1       0.434  13.040  18.971  0.00  0.00    +0.000 A 
ATOM     20  C   UNL     1      -0.264  12.292  19.915  0.00  0.00    +0.000 A 
ATOM     21  C   UNL     1       0.131  10.980  20.186  0.00  0.00    +0.000 A 
ATOM     22  N   UNL     1      -0.588  10.259  21.146  0.00  0.00    +0.000 N 
ATOM     23  H   UNL     1      -1.431  10.635  21.555  0.00  0.00    +0.000 HD
ENDBRANCH   1  14
BRANCH   9  24
ATOM     24  C   UNL     1       3.841   6.065  17.138  0.00  0.00    +0.000 C 
BRANCH  24  25
ATOM     25  O   UNL     1       5.057   5.322  17.118  0.00  0.00    +0.000 OA
BRANCH  25  26
ATOM     26  C   UNL     1       6.161   5.901  17.680  0.00  0.00    +0.000 A 
ATOM     27  C   UNL     1       6.925   5.388  18.725  0.00  0.00    +0.000 A 
ATOM     28  C   UNL     1       8.025   6.102  19.204  0.00  0.00    +0.000 A 
ATOM     29  C   UNL     1       8.365   7.334  18.642  0.00  0.00    +0.000 A 
ATOM     30  C   UNL     1       7.602   7.852  17.598  0.00  0.00    +0.000 A 
ATOM     31  C   UNL     1       6.504   7.134  17.122  0.00  0.00    +0.000 A 
ENDBRANCH  25  26
ENDBRANCH  24  25
ENDBRANCH   9  24
TORSDOF 4
ENDMDL
MODEL 5
REMARK VINA RESULT:      -7.6      6.110      9.333
REMARK  Name = 
REMARK  4 active torsions:
REMARK  status: ('A' for Active; 'I' for Inactive)
REMARK    1  A    between atoms: C_5  and  C_7
REMARK    2  A    between atoms: C_15  and  C_16
REMARK    3  A    between atoms: C_16  and  O_17
REMARK    4  A    between atoms: O_17  and  C_18
REMARK                            x       y       z     vdW  Elec       q    Type
REMARK                         _______ _______ _______ _____ _____    ______ ____
ROOT
ATOM      1  C   UNL     1      -2.271  12.066  22.279  0.00  0.00    +0.000 A 
ATOM      2  O   UNL     1      -1.639  11.305  23.225  0.00  0.00    +0.000 OA
ATOM      3  C   UNL     1      -0.704  10.550  22.590  0.00  0.00    +0.000 A 
ATOM      4  C   UNL     1       0.112   9.603  23.202  0.00  0.00    +0.000 A 
ATOM      5  C   UNL     1       1.042   8.958  22.381  0.00  0.00    +0.000 A 
ATOM      6  C   UNL     1       1.131   9.259  21.020  0.00  0.00    +0.000 A 
ATOM      7  C   UNL     1       0.277  10.203  20.430  0.00  0.00    +0.000 A 
ATOM      8  C   UNL     1      -0.671  10.859  21.237  0.00  0.00    +0.000 A 
ATOM      9  C   UNL     1      -1.693  11.837  21.034  0.00  0.00    +0.000 A 
ENDROOT
BRANCH   1  14
ATOM     10  O   UNL     1      -0.377  15.463  25.305  0.00  0.00    +0.000 OA
ATOM     11  C   UNL     1      -1.464  15.402  24.732  0.00  0.00    +0.000 C 
ATOM     12  C   UNL     1      -1.643  14.725  23.384  0.00  0.00    +0.000 C 
ATOM     13  N   UNL     1      -3.017  14.273  23.113  0.00  0.00    +0.000 N 
ATOM     14  C   UNL     1      -3.344  12.980  22.659  0.00  0.00    +0.000 C 
ATOM     15  O   UNL     1      -4.509  12.573  22.651  0.00  0.00    +0.000 OA
ATOM     16  C   UNL     1      -4.034  15.213  23.495  0.00  0.00    +0.000 A 
ATOM     17  C   UNL     1      -5.290  15.261  22.879  0.00  0.00    +0.000 A 
ATOM     18  C   UNL     1      -6.248  16.194  23.290  0.00  0.00    +0.000 A 
ATOM     19  C   UNL     1      -5.976  17.069  24.339  0.00  0.00    +0.000 A 
ATOM     20  C   UNL     1      -4.739  17.026  24.975  0.00  0.00    +0.000 A 
ATOM     21  C   UNL     1      -3.768  16.121  24.539  0.00  0.00    +0.000 A 
ATOM     22  N   UNL     1      -2.533  16.109  25.196  0.00  0.00    +0.000 N 
ATOM     23  H   UNL     1      -2.381  16.661  26.027  0.00  0.00    +0.000 HD
ENDBRANCH   1  14
BRANCH   9  24
ATOM     24  C   UNL     1      -2.073  12.493  19.747  0.00  0.00    +0.000 C 
BRANCH  24  25
ATOM     25  O   UNL     1      -3.282  11.920  19.256  0.00  0.00    +0.000 OA
BRANCH  25  26
ATOM     26  C   UNL     1      -3.251  11.349  18.014  0.00  0.00    +0.000 A 
ATOM     27  C   UNL     1      -4.137  11.592  16.968  0.00  0.00    +0.000 A 
ATOM     28  C   UNL     1      -3.988  10.921  15.753  0.00  0.00    +0.000 A 
ATOM     29  C   UNL     1      -2.952  10.001  15.579  0.00  0.00    +0.000 A 
ATOM     30  C   UNL     1      -2.064   9.753  16.624  0.00  0.00    +0.000 A 
ATOM     31  C   UNL     1      -2.218  10.427  17.835  0.00  0.00    +0.000 A 
ENDBRANCH  25  26
ENDBRANCH  24  25
ENDBRANCH   9  24
TORSDOF 4
ENDMDL
MODEL 6
REMARK VINA RESULT:      -7.6      1.859      4.791
REMARK  Name = 
REMARK  4 active torsions:
REMARK  status: ('A' for Active; 'I' for Inactive)
REMARK    1  A    between atoms: C_5  and  C_7
REMARK    2  A    between atoms: C_15  and  C_16
REMARK    3  A    between atoms: C_16  and  O_17
REMARK    4  A    between atoms: O_17  and  C_18
REMARK                            x       y       z     vdW  Elec       q    Type
REMARK                         _______ _______ _______ _____ _____    ______ ____
ROOT
ATOM      1  C   UNL     1       1.913   7.624  19.303  0.00  0.00    +0.000 A 
ATOM      2  O   UNL     1       1.450   6.881  20.356  0.00  0.00    +0.000 OA
ATOM      3  C   UNL     1       2.047   5.662  20.293  0.00  0.00    +0.000 A 
ATOM      4  C   UNL     1       1.796   4.601  21.159  0.00  0.00    +0.000 A 
ATOM      5  C   UNL     1       2.545   3.438  20.953  0.00  0.00    +0.000 A 
ATOM      6  C   UNL     1       3.489   3.361  19.925  0.00  0.00    +0.000 A 
ATOM      7  C   UNL     1       3.700   4.442  19.056  0.00  0.00    +0.000 A 
ATOM      8  C   UNL     1       2.952   5.620  19.241  0.00  0.00    +0.000 A 
ATOM      9  C   UNL     1       2.860   6.891  18.594  0.00  0.00    +0.000 A 
ENDROOT
BRANCH   1  14
ATOM     10  O   UNL     1      -0.089   9.199  23.522  0.00  0.00    +0.000 OA
ATOM     11  C   UNL     1       0.212   9.801  22.493  0.00  0.00    +0.000 C 
ATOM     12  C   UNL     1       1.373   9.381  21.608  0.00  0.00    +0.000 C 
ATOM     13  N   UNL     1       1.262   9.833  20.212  0.00  0.00    +0.000 N 
ATOM     14  C   UNL     1       1.440   8.989  19.097  0.00  0.00    +0.000 C 
ATOM     15  O   UNL     1       1.129   9.350  17.957  0.00  0.00    +0.000 OA
ATOM     16  C   UNL     1       0.804  11.186  20.063  0.00  0.00    +0.000 A 
ATOM     17  C   UNL     1       1.125  11.976  18.954  0.00  0.00    +0.000 A 
ATOM     18  C   UNL     1       0.650  13.289  18.854  0.00  0.00    +0.000 A 
ATOM     19  C   UNL     1      -0.174  13.818  19.845  0.00  0.00    +0.000 A 
ATOM     20  C   UNL     1      -0.517  13.042  20.949  0.00  0.00    +0.000 A 
ATOM     21  C   UNL     1      -0.011  11.745  21.067  0.00  0.00    +0.000 A 
ATOM     22  N   UNL     1      -0.371  10.995  22.192  0.00  0.00    +0.000 N 
ATOM     23  H   UNL     1      -1.058  11.339  22.848  0.00  0.00    +0.000 HD
ENDBRANCH   1  14
BRANCH   9  24
ATOM     24  C   UNL     1       3.623   7.354  17.397  0.00  0.00    +0.000 C 
BRANCH  24  25
ATOM     25  O   UNL     1       5.021   7.250  17.652  0.00  0.00    +0.000 OA
BRANCH  25  26
ATOM     26  C   UNL     1       5.716   6.284  16.979  0.00  0.00    +0.000 A 
ATOM     27  C   UNL     1       6.830   5.589  17.442  0.00  0.00    +0.000 A 
ATOM     28  C   UNL     1       7.446   4.632  16.633  0.00  0.00    +0.000 A 
ATOM     29  C   UNL     1       6.952   4.367  15.354  0.00  0.00    +0.000 A 
ATOM     30  C   UNL     1       5.838   5.061  14.886  0.00  0.00    +0.000 A 
ATOM     31  C   UNL     1       5.226   6.015  15.699  0.00  0.00    +0.000 A 
ENDBRANCH  25  26
ENDBRANCH  24  25
ENDBRANCH   9  24
TORSDOF 4
ENDMDL
MODEL 7
REMARK VINA RESULT:      -7.6      5.683      9.109
REMARK  Name = 
REMARK  4 active torsions:
REMARK  status: ('A' for Active; 'I' for Inactive)
REMARK    1  A    between atoms: C_5  and  C_7
REMARK    2  A    between atoms: C_15  and  C_16
REMARK    3  A    between atoms: C_16  and  O_17
REMARK    4  A    between atoms: O_17  and  C_18
REMARK                            x       y       z     vdW  Elec       q    Type
REMARK                         _______ _______ _______ _____ _____    ______ ____
ROOT
ATOM      1  C   UNL     1      -1.015  12.429  22.348  0.00  0.00    +0.000 A 
ATOM      2  O   UNL     1      -0.456  11.472  23.152  0.00  0.00    +0.000 OA
ATOM      3  C   UNL     1       0.024  10.487  22.348  0.00  0.00    +0.000 A 
ATOM      4  C   UNL     1       0.617   9.309  22.791  0.00  0.00    +0.000 A 
ATOM      5  C   UNL     1       1.084   8.436  21.803  0.00  0.00    +0.000 A 
ATOM      6  C   UNL     1       0.951   8.746  20.447  0.00  0.00    +0.000 A 
ATOM      7  C   UNL     1       0.326   9.933  20.035  0.00  0.00    +0.000 A 
ATOM      8  C   UNL     1      -0.157  10.822  21.013  0.00  0.00    +0.000 A 
ATOM      9  C   UNL     1      -0.837  12.078  21.013  0.00  0.00    +0.000 A 
ENDROOT
BRANCH   1  14
ATOM     10  O   UNL     1      -5.873  12.177  21.561  0.00  0.00    +0.000 OA
ATOM     11  C   UNL     1      -5.204  12.924  22.274  0.00  0.00    +0.000 C 
ATOM     12  C   UNL     1      -3.904  12.485  22.927  0.00  0.00    +0.000 C 
ATOM     13  N   UNL     1      -2.997  13.592  23.268  0.00  0.00    +0.000 N 
ATOM     14  C   UNL     1      -1.629  13.619  22.930  0.00  0.00    +0.000 C 
ATOM     15  O   UNL     1      -0.955  14.648  23.040  0.00  0.00    +0.000 OA
ATOM     16  C   UNL     1      -3.648  14.734  23.847  0.00  0.00    +0.000 A 
ATOM     17  C   UNL     1      -2.994  15.622  24.708  0.00  0.00    +0.000 A 
ATOM     18  C   UNL     1      -3.672  16.723  25.245  0.00  0.00    +0.000 A 
ATOM     19  C   UNL     1      -5.002  16.965  24.905  0.00  0.00    +0.000 A 
ATOM     20  C   UNL     1      -5.665  16.102  24.038  0.00  0.00    +0.000 A 
ATOM     21  C   UNL     1      -4.998  14.982  23.533  0.00  0.00    +0.000 A 
ATOM     22  N   UNL     1      -5.697  14.131  22.669  0.00  0.00    +0.000 N 
ATOM     23  H   UNL     1      -6.619  14.372  22.335  0.00  0.00    +0.000 HD
ENDBRANCH   1  14
BRANCH   9  24
ATOM     24  C   UNL     1      -1.274  12.870  19.824  0.00  0.00    +0.000 C 
BRANCH  24  25
ATOM     25  O   UNL     1      -2.642  12.591  19.540  0.00  0.00    +0.000 OA
BRANCH  25  26
ATOM     26  C   UNL     1      -2.920  11.882  18.404  0.00  0.00    +0.000 A 
ATOM     27  C   UNL     1      -1.993  11.341  17.517  0.00  0.00    +0.000 A 
ATOM     28  C   UNL     1      -2.427  10.647  16.386  0.00  0.00    +0.000 A 
ATOM     29  C   UNL     1      -3.792  10.494  16.134  0.00  0.00    +0.000 A 
ATOM     30  C   UNL     1      -4.723  11.036  17.017  0.00  0.00    +0.000 A 
ATOM     31  C   UNL     1      -4.284  11.726  18.147  0.00  0.00    +0.000 A 
ENDBRANCH  25  26
ENDBRANCH  24  25
ENDBRANCH   9  24
TORSDOF 4
ENDMDL
MODEL 8
REMARK VINA RESULT:      -7.6      4.892      8.287
REMARK  Name = 
REMARK  4 active torsions:
REMARK  status: ('A' for Active; 'I' for Inactive)
REMARK    1  A    between atoms: C_5  and  C_7
REMARK    2  A    between atoms: C_15  and  C_16
REMARK    3  A    between atoms: C_16  and  O_17
REMARK    4  A    between atoms: O_17  and  C_18
REMARK                            x       y       z     vdW  Elec       q    Type
REMARK                         _______ _______ _______ _____ _____    ______ ____
ROOT
ATOM      1  C   UNL     1      -2.068  12.766  20.089  0.00  0.00    +0.000 A 
ATOM      2  O   UNL     1      -3.326  12.691  19.552  0.00  0.00    +0.000 OA
ATOM      3  C   UNL     1      -3.292  11.774  18.551  0.00  0.00    +0.000 A 
ATOM      4  C   UNL     1      -4.364  11.451  17.724  0.00  0.00    +0.000 A 
ATOM      5  C   UNL     1      -4.140  10.448  16.775  0.00  0.00    +0.000 A 
ATOM      6  C   UNL     1      -2.898   9.816  16.676  0.00  0.00    +0.000 A 
ATOM      7  C   UNL     1      -1.831  10.182  17.510  0.00  0.00    +0.000 A 
ATOM      8  C   UNL     1      -2.034  11.194  18.467  0.00  0.00    +0.000 A 
ATOM      9  C   UNL     1      -1.237  11.843  19.460  0.00  0.00    +0.000 A 
ENDROOT
BRANCH   1  14
ATOM     10  O   UNL     1      -5.665  12.301  23.426  0.00  0.00    +0.000 OA
ATOM     11  C   UNL     1      -4.579  12.875  23.478  0.00  0.00    +0.000 C 
ATOM     12  C   UNL     1      -3.359  12.393  22.713  0.00  0.00    +0.000 C 
ATOM     13  N   UNL     1      -2.356  13.439  22.453  0.00  0.00    +0.000 N 
ATOM     14  C   UNL     1      -1.786  13.684  21.188  0.00  0.00    +0.000 C 
ATOM     15  O   UNL     1      -1.118  14.699  20.965  0.00  0.00    +0.000 OA
ATOM     16  C   UNL     1      -2.106  14.308  23.570  0.00  0.00    +0.000 A 
ATOM     17  C   UNL     1      -0.891  14.976  23.751  0.00  0.00    +0.000 A 
ATOM     18  C   UNL     1      -0.697  15.815  24.854  0.00  0.00    +0.000 A 
ATOM     19  C   UNL     1      -1.726  16.020  25.772  0.00  0.00    +0.000 A 
ATOM     20  C   UNL     1      -2.948  15.377  25.600  0.00  0.00    +0.000 A 
ATOM     21  C   UNL     1      -3.126  14.509  24.520  0.00  0.00    +0.000 A 
ATOM     22  N   UNL     1      -4.366  13.874  24.381  0.00  0.00    +0.000 N 
ATOM     23  H   UNL     1      -5.143  14.113  24.979  0.00  0.00    +0.000 HD
ENDBRANCH   1  14
BRANCH   9  24
ATOM     24  C   UNL     1       0.201  11.590  19.774  0.00  0.00    +0.000 C 
BRANCH  24  25
ATOM     25  O   UNL     1       0.345  10.290  20.340  0.00  0.00    +0.000 OA
BRANCH  25  26
ATOM     26  C   UNL     1       1.105   9.384  19.654  0.00  0.00    +0.000 A 
ATOM     27  C   UNL     1       1.544   9.496  18.337  0.00  0.00    +0.000 A 
ATOM     28  C   UNL     1       2.308   8.478  17.763  0.00  0.00    +0.000 A 
ATOM     29  C   UNL     1       2.636   7.340  18.503  0.00  0.00    +0.000 A 
ATOM     30  C   UNL     1       2.197   7.222  19.820  0.00  0.00    +0.000 A 
ATOM     31  C   UNL     1       1.435   8.243  20.389  0.00  0.00    +0.000 A 
ENDBRANCH  25  26
ENDBRANCH  24  25
ENDBRANCH   9  24
TORSDOF 4
ENDMDL
MODEL 9
REMARK VINA RESULT:      -7.5      0.774      1.202
REMARK  Name = 
REMARK  4 active torsions:
REMARK  status: ('A' for Active; 'I' for Inactive)
REMARK    1  A    between atoms: C_5  and  C_7
REMARK    2  A    between atoms: C_15  and  C_16
REMARK    3  A    between atoms: C_16  and  O_17
REMARK    4  A    between atoms: O_17  and  C_18
REMARK                            x       y       z     vdW  Elec       q    Type
REMARK                         _______ _______ _______ _____ _____    ______ ____
ROOT
ATOM      1  C   UNL     1       3.146   6.557  18.699  0.00  0.00    +0.000 A 
ATOM      2  O   UNL     1       4.403   7.012  18.402  0.00  0.00    +0.000 OA
ATOM      3  C   UNL     1       4.913   6.209  17.431  0.00  0.00    +0.000 A 
ATOM      4  C   UNL     1       6.194   6.312  16.898  0.00  0.00    +0.000 A 
ATOM      5  C   UNL     1       6.517   5.416  15.874  0.00  0.00    +0.000 A 
ATOM      6  C   UNL     1       5.590   4.471  15.426  0.00  0.00    +0.000 A 
ATOM      7  C   UNL     1       4.315   4.379  16.002  0.00  0.00    +0.000 A 
ATOM      8  C   UNL     1       3.972   5.268  17.038  0.00  0.00    +0.000 A 
ATOM      9  C   UNL     1       2.828   5.489  17.866  0.00  0.00    +0.000 A 
ENDROOT
BRANCH   1  14
ATOM     10  O   UNL     1       2.593  11.278  17.395  0.00  0.00    +0.000 OA
ATOM     11  C   UNL     1       2.042  10.607  18.266  0.00  0.00    +0.000 C 
ATOM     12  C   UNL     1       1.799   9.114  18.120  0.00  0.00    +0.000 C 
ATOM     13  N   UNL     1       1.647   8.399  19.397  0.00  0.00    +0.000 N 
ATOM     14  C   UNL     1       2.343   7.218  19.723  0.00  0.00    +0.000 C 
ATOM     15  O   UNL     1       2.354   6.771  20.874  0.00  0.00    +0.000 OA
ATOM     16  C   UNL     1       0.839   9.085  20.367  0.00  0.00    +0.000 A 
ATOM     17  C   UNL     1       0.133   8.417  21.373  0.00  0.00    +0.000 A 
ATOM     18  C   UNL     1      -0.638   9.131  22.296  0.00  0.00    +0.000 A 
ATOM     19  C   UNL     1      -0.690  10.523  22.244  0.00  0.00    +0.000 A 
ATOM     20  C   UNL     1       0.018  11.207  21.260  0.00  0.00    +0.000 A 
ATOM     21  C   UNL     1       0.756  10.490  20.315  0.00  0.00    +0.000 A 
ATOM     22  N   UNL     1       1.450  11.210  19.336  0.00  0.00    +0.000 N 
ATOM     23  H   UNL     1       1.504  12.218  19.371  0.00  0.00    +0.000 HD
ENDBRANCH   1  14
BRANCH   9  24
ATOM     24  C   UNL     1       1.540   4.733  17.849  0.00  0.00    +0.000 C 
BRANCH  24  25
ATOM     25  O   UNL     1       1.449   3.915  19.012  0.00  0.00    +0.000 OA
BRANCH  25  26
ATOM     26  C   UNL     1       2.492   3.071  19.274  0.00  0.00    +0.000 A 
ATOM     27  C   UNL     1       3.350   3.126  20.369  0.00  0.00    +0.000 A 
ATOM     28  C   UNL     1       4.384   2.197  20.497  0.00  0.00    +0.000 A 
ATOM     29  C   UNL     1       4.567   1.208  19.528  0.00  0.00    +0.000 A 
ATOM     30  C   UNL     1       3.713   1.150  18.430  0.00  0.00    +0.000 A 
ATOM     31  C   UNL     1       2.680   2.080  18.307  0.00  0.00    +0.000 A 
ENDBRANCH  25  26
ENDBRANCH  24  25
ENDBRANCH   9  24
TORSDOF 4
ENDMDL
