MODEL 1
REMARK VINA RESULT:      -8.4      0.000      0.000
REMARK  Name = 
REMARK  6 active torsions:
REMARK  status: ('A' for Active; 'I' for Inactive)
REMARK    1  A    between atoms: C_2  and  C_7
REMARK    2  A    between atoms: N_3  and  C_4
REMARK    3  A    between atoms: C_10  and  N_11
REMARK    4  A    between atoms: C_12  and  C_14
REMARK    5  A    between atoms: N_18  and  S_19
REMARK    6  A    between atoms: S_19  and  C_22
REMARK                            x       y       z     vdW  Elec       q    Type
REMARK                         _______ _______ _______ _____ _____    ______ ____
ROOT
ATOM      1  N   UNL     1       7.543   8.327  17.379  0.00  0.00    +0.000 N 
ATOM      2  C   UNL     1       7.647   7.012  17.791  0.00  0.00    +0.000 C 
ATOM      3  O   UNL     1       8.183   6.658  18.844  0.00  0.00    +0.000 OA
ATOM      4  H   UNL     1       7.215   8.477  16.425  0.00  0.00    +0.000 HD
ENDROOT
BRANCH   1   8
ATOM      5  C   UNL     1       9.625  11.679  18.919  0.00  0.00    +0.000 A 
ATOM      6  C   UNL     1       9.752  10.441  19.549  0.00  0.00    +0.000 A 
ATOM      7  C   UNL     1       9.019   9.340  19.100  0.00  0.00    +0.000 A 
ATOM      8  C   UNL     1       8.178   9.442  17.989  0.00  0.00    +0.000 A 
ATOM      9  C   UNL     1       8.001  10.704  17.402  0.00  0.00    +0.000 A 
ATOM     10  C   UNL     1       8.721  11.820  17.861  0.00  0.00    +0.000 A 
BRANCH   5  12
ATOM     11  O   UNL     1      10.922  12.796  20.527  0.00  0.00    +0.000 OA
ATOM     12  C   UNL     1      10.532  12.769  19.363  0.00  0.00    +0.000 C 
ATOM     13  N   UNL     1      10.861  13.726  18.423  0.00  0.00    +0.000 N 
ATOM     14  H   UNL     1      10.368  13.738  17.540  0.00  0.00    +0.000 HD
BRANCH  13  15
ATOM     15  C   UNL     1      11.672  14.854  18.768  0.00  0.00    +0.000 C 
ATOM     16  C   UNL     1      11.048  16.158  19.175  0.00  0.00    +0.000 C 
ATOM     17  C   UNL     1      11.751  16.045  17.854  0.00  0.00    +0.000 C 
ENDBRANCH  13  15
ENDBRANCH   5  12
ENDBRANCH   1   8
BRANCH   2  18
ATOM     18  C   UNL     1       6.915   5.969  16.958  0.00  0.00    +0.000 C 
ATOM     19  C   UNL     1       5.999   6.685  15.956  0.00  0.00    +0.000 C 
ATOM     20  C   UNL     1       5.265   5.562  15.262  0.00  0.00    +0.000 C 
ATOM     21  C   UNL     1       5.264   4.406  16.252  0.00  0.00    +0.000 C 
ATOM     22  N   UNL     1       6.053   4.838  17.456  0.00  0.00    +0.000 NA
BRANCH  22  23
ATOM     23  S   UNL     1       5.131   5.147  18.858  0.00  0.00    +0.000 S 
ATOM     24  O   UNL     1       5.894   4.637  19.977  0.00  0.00    +0.000 OA
ATOM     25  O   UNL     1       4.690   6.522  18.796  0.00  0.00    +0.000 OA
BRANCH  23  26
ATOM     26  C   UNL     1       3.689   4.105  18.711  0.00  0.00    +0.000 A 
ATOM     27  C   UNL     1       3.761   2.757  19.079  0.00  0.00    +0.000 A 
ATOM     28  C   UNL     1       2.619   1.956  18.978  0.00  0.00    +0.000 A 
ATOM     29  C   UNL     1       1.425   2.507  18.519  0.00  0.00    +0.000 A 
ATOM     30  F   UNL     1       0.334   1.734  18.426  0.00  0.00    +0.000 F 
ATOM     31  C   UNL     1       1.346   3.849  18.156  0.00  0.00    +0.000 A 
ATOM     32  C   UNL     1       2.484   4.657  18.250  0.00  0.00    +0.000 A 
ENDBRANCH  23  26
ENDBRANCH  22  23
ENDBRANCH   2  18
TORSDOF 6
ENDMDL
MODEL 2
REMARK VINA RESULT:      -8.2      1.038      1.142
REMARK  Name = 
REMARK  6 active torsions:
REMARK  status: ('A' for Active; 'I' for Inactive)
REMARK    1  A    between atoms: C_2  and  C_7
REMARK    2  A    between atoms: N_3  and  C_4
REMARK    3  A    between atoms: C_10  and  N_11
REMARK    4  A    between atoms: C_12  and  C_14
REMARK    5  A    between atoms: N_18  and  S_19
REMARK    6  A    between atoms: S_19  and  C_22
REMARK                            x       y       z     vdW  Elec       q    Type
REMARK                         _______ _______ _______ _____ _____    ______ ____
ROOT
ATOM      1  N   UNL     1       7.580   8.127  17.374  0.00  0.00    +0.000 N 
ATOM      2  C   UNL     1       7.713   6.837  17.851  0.00  0.00    +0.000 C 
ATOM      3  O   UNL     1       8.217   6.552  18.940  0.00  0.00    +0.000 OA
ATOM      4  H   UNL     1       7.286   8.222  16.402  0.00  0.00    +0.000 HD
ENDROOT
BRANCH   1   8
ATOM      5  C   UNL     1       9.464  11.630  18.832  0.00  0.00    +0.000 A 
ATOM      6  C   UNL     1       9.657  10.418  19.495  0.00  0.00    +0.000 A 
ATOM      7  C   UNL     1       8.988   9.267  19.072  0.00  0.00    +0.000 A 
ATOM      8  C   UNL     1       8.149   9.292  17.956  0.00  0.00    +0.000 A 
ATOM      9  C   UNL     1       7.905  10.526  17.335  0.00  0.00    +0.000 A 
ATOM     10  C   UNL     1       8.559  11.692  17.766  0.00  0.00    +0.000 A 
BRANCH   5  12
ATOM     11  O   UNL     1      11.316  13.056  18.607  0.00  0.00    +0.000 OA
ATOM     12  C   UNL     1      10.308  12.781  19.250  0.00  0.00    +0.000 C 
ATOM     13  N   UNL     1       9.911  13.463  20.384  0.00  0.00    +0.000 N 
ATOM     14  H   UNL     1       9.174  13.075  20.958  0.00  0.00    +0.000 HD
BRANCH  13  15
ATOM     15  C   UNL     1      10.692  14.540  20.909  0.00  0.00    +0.000 C 
ATOM     16  C   UNL     1      10.234  15.310  22.115  0.00  0.00    +0.000 C 
ATOM     17  C   UNL     1      10.225  15.962  20.763  0.00  0.00    +0.000 C 
ENDBRANCH  13  15
ENDBRANCH   5  12
ENDBRANCH   1   8
BRANCH   2  18
ATOM     18  C   UNL     1       7.054   5.731  17.039  0.00  0.00    +0.000 C 
ATOM     19  C   UNL     1       6.494   6.331  15.742  0.00  0.00    +0.000 C 
ATOM     20  C   UNL     1       5.790   5.173  15.076  0.00  0.00    +0.000 C 
ATOM     21  C   UNL     1       5.409   4.226  16.205  0.00  0.00    +0.000 C 
ATOM     22  N   UNL     1       5.957   4.798  17.482  0.00  0.00    +0.000 NA
BRANCH  22  23
ATOM     23  S   UNL     1       4.792   5.448  18.547  0.00  0.00    +0.000 S 
ATOM     24  O   UNL     1       5.367   5.394  19.873  0.00  0.00    +0.000 OA
ATOM     25  O   UNL     1       4.315   6.684  17.969  0.00  0.00    +0.000 OA
BRANCH  23  26
ATOM     26  C   UNL     1       3.440   4.282  18.531  0.00  0.00    +0.000 A 
ATOM     27  C   UNL     1       3.607   3.012  19.097  0.00  0.00    +0.000 A 
ATOM     28  C   UNL     1       2.533   2.116  19.097  0.00  0.00    +0.000 A 
ATOM     29  C   UNL     1       1.314   2.494  18.541  0.00  0.00    +0.000 A 
ATOM     30  F   UNL     1       0.290   1.630  18.546  0.00  0.00    +0.000 F 
ATOM     31  C   UNL     1       1.141   3.758  17.982  0.00  0.00    +0.000 A 
ATOM     32  C   UNL     1       2.210   4.661  17.974  0.00  0.00    +0.000 A 
ENDBRANCH  23  26
ENDBRANCH  22  23
ENDBRANCH   2  18
TORSDOF 6
ENDMDL
MODEL 3
REMARK VINA RESULT:      -8.1      8.075     10.590
REMARK  Name = 
REMARK  6 active torsions:
REMARK  status: ('A' for Active; 'I' for Inactive)
REMARK    1  A    between atoms: C_2  and  C_7
REMARK    2  A    between atoms: N_3  and  C_4
REMARK    3  A    between atoms: C_10  and  N_11
REMARK    4  A    between atoms: C_12  and  C_14
REMARK    5  A    between atoms: N_18  and  S_19
REMARK    6  A    between atoms: S_19  and  C_22
REMARK                            x       y       z     vdW  Elec       q    Type
REMARK                         _______ _______ _______ _____ _____    ______ ____
ROOT
ATOM      1  N   UNL     1       0.883  10.447  19.113  0.00  0.00    +0.000 N 
ATOM      2  C   UNL     1      -0.300  10.832  18.512  0.00  0.00    +0.000 C 
ATOM      3  O   UNL     1      -1.043  10.067  17.894  0.00  0.00    +0.000 OA
ATOM      4  H   UNL     1       1.478  11.198  19.462  0.00  0.00    +0.000 HD
ENDROOT
BRANCH   1   8
ATOM      5  C   UNL     1       2.992   6.779  18.915  0.00  0.00    +0.000 A 
ATOM      6  C   UNL     1       2.955   7.612  17.797  0.00  0.00    +0.000 A 
ATOM      7  C   UNL     1       2.206   8.792  17.819  0.00  0.00    +0.000 A 
ATOM      8  C   UNL     1       1.516   9.183  18.968  0.00  0.00    +0.000 A 
ATOM      9  C   UNL     1       1.501   8.309  20.066  0.00  0.00    +0.000 A 
ATOM     10  C   UNL     1       2.235   7.111  20.044  0.00  0.00    +0.000 A 
BRANCH   5  12
ATOM     11  O   UNL     1       3.595   4.569  19.429  0.00  0.00    +0.000 OA
ATOM     12  C   UNL     1       3.913   5.613  18.868  0.00  0.00    +0.000 C 
ATOM     13  N   UNL     1       5.113   5.795  18.209  0.00  0.00    +0.000 N 
ATOM     14  H   UNL     1       5.381   6.728  17.924  0.00  0.00    +0.000 HD
BRANCH  13  15
ATOM     15  C   UNL     1       6.098   4.758  18.167  0.00  0.00    +0.000 C 
ATOM     16  C   UNL     1       7.563   5.081  18.228  0.00  0.00    +0.000 C 
ATOM     17  C   UNL     1       6.961   4.574  16.950  0.00  0.00    +0.000 C 
ENDBRANCH  13  15
ENDBRANCH   5  12
ENDBRANCH   1   8
BRANCH   2  18
ATOM     18  C   UNL     1      -0.772  12.257  18.772  0.00  0.00    +0.000 C 
ATOM     19  C   UNL     1       0.365  13.229  18.433  0.00  0.00    +0.000 C 
ATOM     20  C   UNL     1      -0.182  14.583  18.817  0.00  0.00    +0.000 C 
ATOM     21  C   UNL     1      -1.227  14.308  19.889  0.00  0.00    +0.000 C 
ATOM     22  N   UNL     1      -1.328  12.818  20.055  0.00  0.00    +0.000 NA
BRANCH  22  23
ATOM     23  S   UNL     1      -0.668  12.201  21.502  0.00  0.00    +0.000 S 
ATOM     24  O   UNL     1      -1.117  10.830  21.612  0.00  0.00    +0.000 OA
ATOM     25  O   UNL     1       0.735  12.550  21.525  0.00  0.00    +0.000 OA
BRANCH  23  26
ATOM     26  C   UNL     1      -1.476  13.107  22.811  0.00  0.00    +0.000 A 
ATOM     27  C   UNL     1      -0.839  14.208  23.395  0.00  0.00    +0.000 A 
ATOM     28  C   UNL     1      -1.492  14.922  24.404  0.00  0.00    +0.000 A 
ATOM     29  C   UNL     1      -2.766  14.534  24.815  0.00  0.00    +0.000 A 
ATOM     30  F   UNL     1      -3.385  15.224  25.783  0.00  0.00    +0.000 F 
ATOM     31  C   UNL     1      -3.405  13.442  24.235  0.00  0.00    +0.000 A 
ATOM     32  C   UNL     1      -2.759  12.720  23.225  0.00  0.00    +0.000 A 
ENDBRANCH  23  26
ENDBRANCH  22  23
ENDBRANCH   2  18
TORSDOF 6
ENDMDL
MODEL 4
REMARK VINA RESULT:      -8.1      6.059      8.089
REMARK  Name = 
REMARK  6 active torsions:
REMARK  status: ('A' for Active; 'I' for Inactive)
REMARK    1  A    between atoms: C_2  and  C_7
REMARK    2  A    between atoms: N_3  and  C_4
REMARK    3  A    between atoms: C_10  and  N_11
REMARK    4  A    between atoms: C_12  and  C_14
REMARK    5  A    between atoms: N_18  and  S_19
REMARK    6  A    between atoms: S_19  and  C_22
REMARK                            x       y       z     vdW  Elec       q    Type
REMARK                         _______ _______ _______ _____ _____    ______ ____
ROOT
ATOM      1  N   UNL     1       2.332   6.488  19.920  0.00  0.00    +0.000 N 
ATOM      2  C   UNL     1       2.189   5.540  18.925  0.00  0.00    +0.000 C 
ATOM      3  O   UNL     1       1.763   5.785  17.794  0.00  0.00    +0.000 OA
ATOM      4  H   UNL     1       2.550   6.136  20.852  0.00  0.00    +0.000 HD
ENDROOT
BRANCH   1   8
ATOM      5  C   UNL     1       0.599  10.352  19.799  0.00  0.00    +0.000 A 
ATOM      6  C   UNL     1       1.277   9.866  18.680  0.00  0.00    +0.000 A 
ATOM      7  C   UNL     1       1.916   8.624  18.725  0.00  0.00    +0.000 A 
ATOM      8  C   UNL     1       1.855   7.826  19.869  0.00  0.00    +0.000 A 
ATOM      9  C   UNL     1       1.231   8.347  21.012  0.00  0.00    +0.000 A 
ATOM     10  C   UNL     1       0.603   9.604  20.981  0.00  0.00    +0.000 A 
BRANCH   5  12
ATOM     11  O   UNL     1       0.424  12.651  19.359  0.00  0.00    +0.000 OA
ATOM     12  C   UNL     1      -0.169  11.614  19.638  0.00  0.00    +0.000 C 
ATOM     13  N   UNL     1      -1.532  11.544  19.852  0.00  0.00    +0.000 N 
ATOM     14  H   UNL     1      -1.925  10.699  20.248  0.00  0.00    +0.000 HD
BRANCH  13  15
ATOM     15  C   UNL     1      -2.351  12.715  19.791  0.00  0.00    +0.000 C 
ATOM     16  C   UNL     1      -2.644  13.519  21.025  0.00  0.00    +0.000 C 
ATOM     17  C   UNL     1      -3.733  12.712  20.381  0.00  0.00    +0.000 C 
ENDBRANCH  13  15
ENDBRANCH   5  12
ENDBRANCH   1   8
BRANCH   2  18
ATOM     18  C   UNL     1       2.739   4.150  19.213  0.00  0.00    +0.000 C 
ATOM     19  C   UNL     1       2.800   3.943  20.733  0.00  0.00    +0.000 C 
ATOM     20  C   UNL     1       3.443   2.586  20.893  0.00  0.00    +0.000 C 
ATOM     21  C   UNL     1       4.273   2.380  19.635  0.00  0.00    +0.000 C 
ATOM     22  N   UNL     1       4.044   3.565  18.739  0.00  0.00    +0.000 NA
BRANCH  22  23
ATOM     23  S   UNL     1       5.359   4.645  18.611  0.00  0.00    +0.000 S 
ATOM     24  O   UNL     1       4.829   5.972  18.838  0.00  0.00    +0.000 OA
ATOM     25  O   UNL     1       6.443   4.108  19.401  0.00  0.00    +0.000 OA
BRANCH  23  26
ATOM     26  C   UNL     1       5.851   4.583  16.896  0.00  0.00    +0.000 A 
ATOM     27  C   UNL     1       4.945   4.142  15.925  0.00  0.00    +0.000 A 
ATOM     28  C   UNL     1       5.336   4.118  14.582  0.00  0.00    +0.000 A 
ATOM     29  C   UNL     1       6.617   4.534  14.226  0.00  0.00    +0.000 A 
ATOM     30  F   UNL     1       6.984   4.509  12.938  0.00  0.00    +0.000 F 
ATOM     31  C   UNL     1       7.521   4.978  15.188  0.00  0.00    +0.000 A 
ATOM     32  C   UNL     1       7.140   5.003  16.534  0.00  0.00    +0.000 A 
ENDBRANCH  23  26
ENDBRANCH  22  23
ENDBRANCH   2  18
TORSDOF 6
ENDMDL
MODEL 5
REMARK VINA RESULT:      -8.1      5.866      7.353
REMARK  Name = 
REMARK  6 active torsions:
REMARK  status: ('A' for Active; 'I' for Inactive)
REMARK    1  A    between atoms: C_2  and  C_7
REMARK    2  A    between atoms: N_3  and  C_4
REMARK    3  A    between atoms: C_10  and  N_11
REMARK    4  A    between atoms: C_12  and  C_14
REMARK    5  A    between atoms: N_18  and  S_19
REMARK    6  A    between atoms: S_19  and  C_22
REMARK                            x       y       z     vdW  Elec       q    Type
REMARK                         _______ _______ _______ _____ _____    ______ ____
ROOT
ATOM      1  N   UNL     1       1.536   6.605  20.204  0.00  0.00    +0.000 N 
ATOM      2  C   UNL     1       1.894   5.964  19.033  0.00  0.00    +0.000 C 
ATOM      3  O   UNL     1       2.347   6.539  18.040  0.00  0.00    +0.000 OA
ATOM      4  H   UNL     1       1.037   6.043  20.892  0.00  0.00    +0.000 HD
ENDROOT
BRANCH   1   8
ATOM      5  C   UNL     1       0.988  10.752  20.869  0.00  0.00    +0.000 A 
ATOM      6  C   UNL     1       1.201  10.286  19.572  0.00  0.00    +0.000 A 
ATOM      7  C   UNL     1       1.455   8.932  19.340  0.00  0.00    +0.000 A 
ATOM      8  C   UNL     1       1.458   8.011  20.391  0.00  0.00    +0.000 A 
ATOM      9  C   UNL     1       1.312   8.495  21.699  0.00  0.00    +0.000 A 
ATOM     10  C   UNL     1       1.076   9.859  21.942  0.00  0.00    +0.000 A 
BRANCH   5  12
ATOM     11  O   UNL     1      -0.030  12.523  22.027  0.00  0.00    +0.000 OA
ATOM     12  C   UNL     1       0.592  12.176  21.028  0.00  0.00    +0.000 C 
ATOM     13  N   UNL     1       0.928  13.033  19.997  0.00  0.00    +0.000 N 
ATOM     14  H   UNL     1       1.283  12.647  19.132  0.00  0.00    +0.000 HD
BRANCH  13  15
ATOM     15  C   UNL     1       0.532  14.408  20.021  0.00  0.00    +0.000 C 
ATOM     16  C   UNL     1      -0.299  14.992  18.914  0.00  0.00    +0.000 C 
ATOM     17  C   UNL     1       1.140  15.394  19.062  0.00  0.00    +0.000 C 
ENDBRANCH  13  15
ENDBRANCH   5  12
ENDBRANCH   1   8
BRANCH   2  18
ATOM     18  C   UNL     1       1.865   4.442  19.045  0.00  0.00    +0.000 C 
ATOM     19  C   UNL     1       1.405   3.963  20.428  0.00  0.00    +0.000 C 
ATOM     20  C   UNL     1       1.508   2.458  20.349  0.00  0.00    +0.000 C 
ATOM     21  C   UNL     1       2.563   2.179  19.289  0.00  0.00    +0.000 C 
ATOM     22  N   UNL     1       2.997   3.501  18.720  0.00  0.00    +0.000 NA
BRANCH  22  23
ATOM     23  S   UNL     1       4.561   4.010  19.171  0.00  0.00    +0.000 S 
ATOM     24  O   UNL     1       4.409   5.297  19.815  0.00  0.00    +0.000 OA
ATOM     25  O   UNL     1       5.209   2.897  19.828  0.00  0.00    +0.000 OA
BRANCH  23  26
ATOM     26  C   UNL     1       5.419   4.310  17.635  0.00  0.00    +0.000 A 
ATOM     27  C   UNL     1       6.763   4.699  17.650  0.00  0.00    +0.000 A 
ATOM     28  C   UNL     1       7.430   4.911  16.439  0.00  0.00    +0.000 A 
ATOM     29  C   UNL     1       6.754   4.730  15.235  0.00  0.00    +0.000 A 
ATOM     30  F   UNL     1       7.400   4.935  14.079  0.00  0.00    +0.000 F 
ATOM     31  C   UNL     1       5.418   4.340  15.214  0.00  0.00    +0.000 A 
ATOM     32  C   UNL     1       4.741   4.127  16.420  0.00  0.00    +0.000 A 
ENDBRANCH  23  26
ENDBRANCH  22  23
ENDBRANCH   2  18
TORSDOF 6
ENDMDL
MODEL 6
REMARK VINA RESULT:      -8.0      5.234      6.776
REMARK  Name = 
REMARK  6 active torsions:
REMARK  status: ('A' for Active; 'I' for Inactive)
REMARK    1  A    between atoms: C_2  and  C_7
REMARK    2  A    between atoms: N_3  and  C_4
REMARK    3  A    between atoms: C_10  and  N_11
REMARK    4  A    between atoms: C_12  and  C_14
REMARK    5  A    between atoms: N_18  and  S_19
REMARK    6  A    between atoms: S_19  and  C_22
REMARK                            x       y       z     vdW  Elec       q    Type
REMARK                         _______ _______ _______ _____ _____    ______ ____
ROOT
ATOM      1  N   UNL     1       2.267   6.572  19.626  0.00  0.00    +0.000 N 
ATOM      2  C   UNL     1       2.128   5.508  18.755  0.00  0.00    +0.000 C 
ATOM      3  O   UNL     1       1.747   5.615  17.587  0.00  0.00    +0.000 OA
ATOM      4  H   UNL     1       2.444   6.337  20.602  0.00  0.00    +0.000 HD
ENDROOT
BRANCH   1   8
ATOM      5  C   UNL     1       1.297  10.635  18.919  0.00  0.00    +0.000 A 
ATOM      6  C   UNL     1       0.874  10.021  20.098  0.00  0.00    +0.000 A 
ATOM      7  C   UNL     1       1.122   8.664  20.318  0.00  0.00    +0.000 A 
ATOM      8  C   UNL     1       1.833   7.904  19.386  0.00  0.00    +0.000 A 
ATOM      9  C   UNL     1       2.197   8.508  18.173  0.00  0.00    +0.000 A 
ATOM     10  C   UNL     1       1.933   9.867  17.937  0.00  0.00    +0.000 A 
BRANCH   5  12
ATOM     11  O   UNL     1      -0.010  12.573  18.701  0.00  0.00    +0.000 OA
ATOM     12  C   UNL     1       1.119  12.107  18.812  0.00  0.00    +0.000 C 
ATOM     13  N   UNL     1       2.269  12.873  18.809  0.00  0.00    +0.000 N 
ATOM     14  H   UNL     1       3.166  12.413  18.728  0.00  0.00    +0.000 HD
BRANCH  13  15
ATOM     15  C   UNL     1       2.210  14.293  18.640  0.00  0.00    +0.000 C 
ATOM     16  C   UNL     1       3.251  15.019  17.837  0.00  0.00    +0.000 C 
ATOM     17  C   UNL     1       3.206  15.185  19.328  0.00  0.00    +0.000 C 
ENDBRANCH  13  15
ENDBRANCH   5  12
ENDBRANCH   1   8
BRANCH   2  18
ATOM     18  C   UNL     1       2.626   4.153  19.239  0.00  0.00    +0.000 C 
ATOM     19  C   UNL     1       2.544   4.109  20.771  0.00  0.00    +0.000 C 
ATOM     20  C   UNL     1       3.146   2.773  21.133  0.00  0.00    +0.000 C 
ATOM     21  C   UNL     1       4.085   2.428  19.986  0.00  0.00    +0.000 C 
ATOM     22  N   UNL     1       3.959   3.511  18.953  0.00  0.00    +0.000 NA
BRANCH  22  23
ATOM     23  S   UNL     1       5.298   4.562  18.833  0.00  0.00    +0.000 S 
ATOM     24  O   UNL     1       4.801   5.897  19.088  0.00  0.00    +0.000 OA
ATOM     25  O   UNL     1       6.375   3.986  19.606  0.00  0.00    +0.000 OA
BRANCH  23  26
ATOM     26  C   UNL     1       5.777   4.519  17.114  0.00  0.00    +0.000 A 
ATOM     27  C   UNL     1       4.833   4.188  16.135  0.00  0.00    +0.000 A 
ATOM     28  C   UNL     1       5.216   4.179  14.790  0.00  0.00    +0.000 A 
ATOM     29  C   UNL     1       6.525   4.500  14.439  0.00  0.00    +0.000 A 
ATOM     30  F   UNL     1       6.884   4.489  13.148  0.00  0.00    +0.000 F 
ATOM     31  C   UNL     1       7.466   4.834  15.409  0.00  0.00    +0.000 A 
ATOM     32  C   UNL     1       7.094   4.845  16.758  0.00  0.00    +0.000 A 
ENDBRANCH  23  26
ENDBRANCH  22  23
ENDBRANCH   2  18
TORSDOF 6
ENDMDL
MODEL 7
REMARK VINA RESULT:      -8.0      6.174      7.917
REMARK  Name = 
REMARK  6 active torsions:
REMARK  status: ('A' for Active; 'I' for Inactive)
REMARK    1  A    between atoms: C_2  and  C_7
REMARK    2  A    between atoms: N_3  and  C_4
REMARK    3  A    between atoms: C_10  and  N_11
REMARK    4  A    between atoms: C_12  and  C_14
REMARK    5  A    between atoms: N_18  and  S_19
REMARK    6  A    between atoms: S_19  and  C_22
REMARK                            x       y       z     vdW  Elec       q    Type
REMARK                         _______ _______ _______ _____ _____    ______ ____
ROOT
ATOM      1  N   UNL     1       1.562   6.546  20.273  0.00  0.00    +0.000 N 
ATOM      2  C   UNL     1       1.880   5.951  19.066  0.00  0.00    +0.000 C 
ATOM      3  O   UNL     1       2.254   6.569  18.067  0.00  0.00    +0.000 OA
ATOM      4  H   UNL     1       1.125   5.946  20.971  0.00  0.00    +0.000 HD
ENDROOT
BRANCH   1   8
ATOM      5  C   UNL     1       0.894  10.648  21.092  0.00  0.00    +0.000 A 
ATOM      6  C   UNL     1       1.014  10.221  19.770  0.00  0.00    +0.000 A 
ATOM      7  C   UNL     1       1.306   8.886  19.481  0.00  0.00    +0.000 A 
ATOM      8  C   UNL     1       1.440   7.943  20.503  0.00  0.00    +0.000 A 
ATOM      9  C   UNL     1       1.386   8.389  21.832  0.00  0.00    +0.000 A 
ATOM     10  C   UNL     1       1.113   9.735  22.130  0.00  0.00    +0.000 A 
BRANCH   5  12
ATOM     11  O   UNL     1       1.271  12.959  21.260  0.00  0.00    +0.000 OA
ATOM     12  C   UNL     1       0.451  12.048  21.321  0.00  0.00    +0.000 C 
ATOM     13  N   UNL     1      -0.882  12.236  21.630  0.00  0.00    +0.000 N 
ATOM     14  H   UNL     1      -1.458  11.429  21.835  0.00  0.00    +0.000 HD
BRANCH  13  15
ATOM     15  C   UNL     1      -1.394  13.536  21.937  0.00  0.00    +0.000 C 
ATOM     16  C   UNL     1      -1.251  14.118  23.315  0.00  0.00    +0.000 C 
ATOM     17  C   UNL     1      -2.602  13.693  22.818  0.00  0.00    +0.000 C 
ENDBRANCH  13  15
ENDBRANCH   5  12
ENDBRANCH   1   8
BRANCH   2  18
ATOM     18  C   UNL     1       1.912   4.428  19.038  0.00  0.00    +0.000 C 
ATOM     19  C   UNL     1       1.498   3.895  20.416  0.00  0.00    +0.000 C 
ATOM     20  C   UNL     1       1.659   2.398  20.293  0.00  0.00    +0.000 C 
ATOM     21  C   UNL     1       2.703   2.190  19.207  0.00  0.00    +0.000 C 
ATOM     22  N   UNL     1       3.072   3.543  18.666  0.00  0.00    +0.000 NA
BRANCH  22  23
ATOM     23  S   UNL     1       4.624   4.102  19.102  0.00  0.00    +0.000 S 
ATOM     24  O   UNL     1       4.441   5.400  19.714  0.00  0.00    +0.000 OA
ATOM     25  O   UNL     1       5.301   3.022  19.785  0.00  0.00    +0.000 OA
BRANCH  23  26
ATOM     26  C   UNL     1       5.472   4.386  17.557  0.00  0.00    +0.000 A 
ATOM     27  C   UNL     1       6.839   4.689  17.556  0.00  0.00    +0.000 A 
ATOM     28  C   UNL     1       7.497   4.888  16.338  0.00  0.00    +0.000 A 
ATOM     29  C   UNL     1       6.790   4.779  15.143  0.00  0.00    +0.000 A 
ATOM     30  F   UNL     1       7.427   4.971  13.980  0.00  0.00    +0.000 F 
ATOM     31  C   UNL     1       5.431   4.473  15.138  0.00  0.00    +0.000 A 
ATOM     32  C   UNL     1       4.764   4.275  16.351  0.00  0.00    +0.000 A 
ENDBRANCH  23  26
ENDBRANCH  22  23
ENDBRANCH   2  18
TORSDOF 6
ENDMDL
MODEL 8
REMARK VINA RESULT:      -8.0      8.138     11.212
REMARK  Name = 
REMARK  6 active torsions:
REMARK  status: ('A' for Active; 'I' for Inactive)
REMARK    1  A    between atoms: C_2  and  C_7
REMARK    2  A    between atoms: N_3  and  C_4
REMARK    3  A    between atoms: C_10  and  N_11
REMARK    4  A    between atoms: C_12  and  C_14
REMARK    5  A    between atoms: N_18  and  S_19
REMARK    6  A    between atoms: S_19  and  C_22
REMARK                            x       y       z     vdW  Elec       q    Type
REMARK                         _______ _______ _______ _____ _____    ______ ____
ROOT
ATOM      1  N   UNL     1       0.739  10.650  19.325  0.00  0.00    +0.000 N 
ATOM      2  C   UNL     1      -0.494  11.062  18.856  0.00  0.00    +0.000 C 
ATOM      3  O   UNL     1      -1.371  10.296  18.450  0.00  0.00    +0.000 OA
ATOM      4  H   UNL     1       1.427  11.383  19.490  0.00  0.00    +0.000 HD
ENDROOT
BRANCH   1   8
ATOM      5  C   UNL     1       2.531   6.811  19.307  0.00  0.00    +0.000 A 
ATOM      6  C   UNL     1       2.489   7.557  18.129  0.00  0.00    +0.000 A 
ATOM      7  C   UNL     1       1.840   8.794  18.097  0.00  0.00    +0.000 A 
ATOM      8  C   UNL     1       1.258   9.329  19.248  0.00  0.00    +0.000 A 
ATOM      9  C   UNL     1       1.243   8.546  20.412  0.00  0.00    +0.000 A 
ATOM     10  C   UNL     1       1.876   7.293  20.447  0.00  0.00    +0.000 A 
BRANCH   5  12
ATOM     11  O   UNL     1       4.571   5.653  19.411  0.00  0.00    +0.000 OA
ATOM     12  C   UNL     1       3.351   5.572  19.304  0.00  0.00    +0.000 C 
ATOM     13  N   UNL     1       2.673   4.378  19.143  0.00  0.00    +0.000 N 
ATOM     14  H   UNL     1       1.695   4.399  18.887  0.00  0.00    +0.000 HD
BRANCH  13  15
ATOM     15  C   UNL     1       3.377   3.135  19.057  0.00  0.00    +0.000 C 
ATOM     16  C   UNL     1       3.530   2.425  17.742  0.00  0.00    +0.000 C 
ATOM     17  C   UNL     1       2.633   1.854  18.801  0.00  0.00    +0.000 C 
ENDBRANCH  13  15
ENDBRANCH   5  12
ENDBRANCH   1   8
BRANCH   2  18
ATOM     18  C   UNL     1      -0.828  12.540  19.004  0.00  0.00    +0.000 C 
ATOM     19  C   UNL     1       0.473  13.353  18.945  0.00  0.00    +0.000 C 
ATOM     20  C   UNL     1       0.029  14.775  19.195  0.00  0.00    +0.000 C 
ATOM     21  C   UNL     1      -1.263  14.662  19.991  0.00  0.00    +0.000 C 
ATOM     22  N   UNL     1      -1.590  13.201  20.123  0.00  0.00    +0.000 NA
BRANCH  22  23
ATOM     23  S   UNL     1      -1.371  12.544  21.682  0.00  0.00    +0.000 S 
ATOM     24  O   UNL     1      -1.117  11.131  21.505  0.00  0.00    +0.000 OA
ATOM     25  O   UNL     1      -0.450  13.404  22.392  0.00  0.00    +0.000 OA
BRANCH  23  26
ATOM     26  C   UNL     1      -2.964  12.678  22.476  0.00  0.00    +0.000 A 
ATOM     27  C   UNL     1      -4.105  12.942  21.711  0.00  0.00    +0.000 A 
ATOM     28  C   UNL     1      -5.351  13.023  22.343  0.00  0.00    +0.000 A 
ATOM     29  C   UNL     1      -5.443  12.838  23.720  0.00  0.00    +0.000 A 
ATOM     30  F   UNL     1      -6.639  12.916  24.318  0.00  0.00    +0.000 F 
ATOM     31  C   UNL     1      -4.311  12.570  24.485  0.00  0.00    +0.000 A 
ATOM     32  C   UNL     1      -3.060  12.489  23.863  0.00  0.00    +0.000 A 
ENDBRANCH  23  26
ENDBRANCH  22  23
ENDBRANCH   2  18
TORSDOF 6
ENDMDL
MODEL 9
REMARK VINA RESULT:      -8.0      5.950      7.501
REMARK  Name = 
REMARK  6 active torsions:
REMARK  status: ('A' for Active; 'I' for Inactive)
REMARK    1  A    between atoms: C_2  and  C_7
REMARK    2  A    between atoms: N_3  and  C_4
REMARK    3  A    between atoms: C_10  and  N_11
REMARK    4  A    between atoms: C_12  and  C_14
REMARK    5  A    between atoms: N_18  and  S_19
REMARK    6  A    between atoms: S_19  and  C_22
REMARK                            x       y       z     vdW  Elec       q    Type
REMARK                         _______ _______ _______ _____ _____    ______ ____
ROOT
ATOM      1  N   UNL     1       2.298   6.530  19.843  0.00  0.00    +0.000 N 
ATOM      2  C   UNL     1       2.172   5.535  18.892  0.00  0.00    +0.000 C 
ATOM      3  O   UNL     1       1.770   5.725  17.742  0.00  0.00    +0.000 OA
ATOM      4  H   UNL     1       2.496   6.223  20.795  0.00  0.00    +0.000 HD
ENDROOT
BRANCH   1   8
ATOM      5  C   UNL     1       0.583  10.386  19.468  0.00  0.00    +0.000 A 
ATOM      6  C   UNL     1       1.369   9.879  18.433  0.00  0.00    +0.000 A 
ATOM      7  C   UNL     1       2.001   8.640  18.567  0.00  0.00    +0.000 A 
ATOM      8  C   UNL     1       1.828   7.865  19.716  0.00  0.00    +0.000 A 
ATOM      9  C   UNL     1       1.093   8.409  20.781  0.00  0.00    +0.000 A 
ATOM     10  C   UNL     1       0.471   9.663  20.661  0.00  0.00    +0.000 A 
BRANCH   5  12
ATOM     11  O   UNL     1      -1.072  11.645  18.379  0.00  0.00    +0.000 OA
ATOM     12  C   UNL     1      -0.166  11.642  19.206  0.00  0.00    +0.000 C 
ATOM     13  N   UNL     1       0.239  12.765  19.903  0.00  0.00    +0.000 N 
ATOM     14  H   UNL     1       1.099  12.730  20.434  0.00  0.00    +0.000 HD
BRANCH  13  15
ATOM     15  C   UNL     1      -0.371  14.038  19.671  0.00  0.00    +0.000 C 
ATOM     16  C   UNL     1       0.340  15.105  18.889  0.00  0.00    +0.000 C 
ATOM     17  C   UNL     1       0.142  15.267  20.368  0.00  0.00    +0.000 C 
ENDBRANCH  13  15
ENDBRANCH   5  12
ENDBRANCH   1   8
BRANCH   2  18
ATOM     18  C   UNL     1       2.711   4.160  19.260  0.00  0.00    +0.000 C 
ATOM     19  C   UNL     1       2.714   4.017  20.788  0.00  0.00    +0.000 C 
ATOM     20  C   UNL     1       3.350   2.669  21.029  0.00  0.00    +0.000 C 
ATOM     21  C   UNL     1       4.227   2.411  19.813  0.00  0.00    +0.000 C 
ATOM     22  N   UNL     1       4.032   3.556  18.860  0.00  0.00    +0.000 NA
BRANCH  22  23
ATOM     23  S   UNL     1       5.351   4.632  18.735  0.00  0.00    +0.000 S 
ATOM     24  O   UNL     1       4.832   5.957  18.996  0.00  0.00    +0.000 OA
ATOM     25  O   UNL     1       6.443   4.073  19.501  0.00  0.00    +0.000 OA
BRANCH  23  26
ATOM     26  C   UNL     1       5.820   4.601  17.013  0.00  0.00    +0.000 A 
ATOM     27  C   UNL     1       7.132   4.917  16.642  0.00  0.00    +0.000 A 
ATOM     28  C   UNL     1       7.493   4.869  15.292  0.00  0.00    +0.000 A 
ATOM     29  C   UNL     1       6.549   4.505  14.334  0.00  0.00    +0.000 A 
ATOM     30  F   UNL     1       6.903   4.460  13.043  0.00  0.00    +0.000 F 
ATOM     31  C   UNL     1       5.244   4.185  14.699  0.00  0.00    +0.000 A 
ATOM     32  C   UNL     1       4.873   4.233  16.047  0.00  0.00    +0.000 A 
ENDBRANCH  23  26
ENDBRANCH  22  23
ENDBRANCH   2  18
TORSDOF 6
ENDMDL
