MODEL 1
REMARK VINA RESULT:      -8.1      0.000      0.000
REMARK  Name = 
REMARK  7 active torsions:
REMARK  status: ('A' for Active; 'I' for Inactive)
REMARK    1  A    between atoms: N_4  and  C_5
REMARK    2  A    between atoms: C_5  and  C_6
REMARK    3  A    between atoms: C_5  and  C_18
REMARK    4  A    between atoms: C_6  and  C_7
REMARK    5  A    between atoms: N_9  and  C_10
REMARK    6  A    between atoms: C_22  and  O_23
REMARK    7  A    between atoms: O_23  and  C_24
REMARK                            x       y       z     vdW  Elec       q    Type
REMARK                         _______ _______ _______ _____ _____    ______ ____
ROOT
ATOM      1  C   UNL     1       0.365  10.240  19.912  0.00  0.00    +0.000 C 
ENDROOT
BRANCH   1   5
ATOM      2  N   UNL     1      -1.032  12.737  17.657  0.00  0.00    +0.000 N 
ATOM      3  C   UNL     1      -0.393  12.304  18.773  0.00  0.00    +0.000 C 
ATOM      4  O   UNL     1       0.051  13.082  19.600  0.00  0.00    +0.000 OA
ATOM      5  N   UNL     1      -0.368  10.947  18.867  0.00  0.00    +0.000 N 
ATOM      6  H   UNL     1      -0.970  13.734  17.508  0.00  0.00    +0.000 HD
ATOM      7  H   UNL     1      -1.019  12.164  16.830  0.00  0.00    +0.000 HD
ATOM      8  H   UNL     1      -0.550  10.412  18.027  0.00  0.00    +0.000 HD
ENDBRANCH   1   5
BRANCH   1   9
ATOM      9  C   UNL     1       1.270   9.130  19.382  0.00  0.00    +0.000 A 
ATOM     10  C   UNL     1       1.833   9.248  18.098  0.00  0.00    +0.000 A 
ATOM     11  C   UNL     1       2.648   8.242  17.575  0.00  0.00    +0.000 A 
ATOM     12  C   UNL     1       2.922   7.104  18.329  0.00  0.00    +0.000 A 
ATOM     13  C   UNL     1       2.436   6.997  19.632  0.00  0.00    +0.000 A 
ATOM     14  C   UNL     1       1.590   7.988  20.140  0.00  0.00    +0.000 A 
BRANCH  13  15
ATOM     15  O   UNL     1       2.688   5.938  20.470  0.00  0.00    +0.000 OA
BRANCH  15  16
ATOM     16  C   UNL     1       2.453   4.650  20.044  0.00  0.00    +0.000 A 
ATOM     17  C   UNL     1       3.444   3.780  19.580  0.00  0.00    +0.000 A 
ATOM     18  C   UNL     1       3.097   2.511  19.114  0.00  0.00    +0.000 A 
ATOM     19  C   UNL     1       1.772   2.085  19.169  0.00  0.00    +0.000 A 
ATOM     20  C   UNL     1       0.794   2.922  19.704  0.00  0.00    +0.000 A 
ATOM     21  C   UNL     1       1.133   4.203  20.143  0.00  0.00    +0.000 A 
ENDBRANCH  15  16
ENDBRANCH  13  15
ENDBRANCH   1   9
BRANCH   1  22
ATOM     22  C   UNL     1      -0.615   9.733  20.980  0.00  0.00    +0.000 C 
BRANCH  22  23
ATOM     23  C   UNL     1      -0.743  10.696  22.143  0.00  0.00    +0.000 C 
ATOM     24  O   UNL     1      -0.174  10.513  23.219  0.00  0.00    +0.000 OA
ATOM     25  N   UNL     1      -1.652  11.715  21.906  0.00  0.00    +0.000 N 
ATOM     26  H   UNL     1      -2.374  11.517  21.223  0.00  0.00    +0.000 HD
BRANCH  25  27
ATOM     27  C   UNL     1      -1.930  12.698  22.875  0.00  0.00    +0.000 A 
ATOM     28  C   UNL     1      -3.125  12.693  23.606  0.00  0.00    +0.000 A 
ATOM     29  C   UNL     1      -3.397  13.717  24.516  0.00  0.00    +0.000 A 
ATOM     30  C   UNL     1      -2.484  14.750  24.672  0.00  0.00    +0.000 A 
ATOM     31  F   UNL     1      -2.765  15.758  25.510  0.00  0.00    +0.000 F 
ATOM     32  C   UNL     1      -1.290  14.744  23.958  0.00  0.00    +0.000 A 
ATOM     33  F   UNL     1      -0.422  15.759  24.091  0.00  0.00    +0.000 F 
ATOM     34  C   UNL     1      -0.988  13.706  23.083  0.00  0.00    +0.000 A 
ENDBRANCH  25  27
ENDBRANCH  22  23
ENDBRANCH   1  22
TORSDOF 7
ENDMDL
MODEL 2
REMARK VINA RESULT:      -8.0      6.141      9.524
REMARK  Name = 
REMARK  7 active torsions:
REMARK  status: ('A' for Active; 'I' for Inactive)
REMARK    1  A    between atoms: N_4  and  C_5
REMARK    2  A    between atoms: C_5  and  C_6
REMARK    3  A    between atoms: C_5  and  C_18
REMARK    4  A    between atoms: C_6  and  C_7
REMARK    5  A    between atoms: N_9  and  C_10
REMARK    6  A    between atoms: C_22  and  O_23
REMARK    7  A    between atoms: O_23  and  C_24
REMARK                            x       y       z     vdW  Elec       q    Type
REMARK                         _______ _______ _______ _____ _____    ______ ____
ROOT
ATOM      1  C   UNL     1       7.030   5.476  17.659  0.00  0.00    +0.000 C 
ENDROOT
BRANCH   1   5
ATOM      2  N   UNL     1       7.513   5.488  14.048  0.00  0.00    +0.000 N 
ATOM      3  C   UNL     1       7.159   4.950  15.243  0.00  0.00    +0.000 C 
ATOM      4  O   UNL     1       6.698   3.824  15.328  0.00  0.00    +0.000 OA
ATOM      5  N   UNL     1       7.430   5.778  16.288  0.00  0.00    +0.000 N 
ATOM      6  H   UNL     1       7.224   4.941  13.249  0.00  0.00    +0.000 HD
ATOM      7  H   UNL     1       7.490   6.487  13.933  0.00  0.00    +0.000 HD
ATOM      8  H   UNL     1       7.584   6.757  16.087  0.00  0.00    +0.000 HD
ENDBRANCH   1   5
BRANCH   1   9
ATOM      9  C   UNL     1       5.523   5.568  17.892  0.00  0.00    +0.000 A 
ATOM     10  C   UNL     1       4.833   4.458  18.410  0.00  0.00    +0.000 A 
ATOM     11  C   UNL     1       3.452   4.502  18.616  0.00  0.00    +0.000 A 
ATOM     12  C   UNL     1       2.738   5.658  18.314  0.00  0.00    +0.000 A 
ATOM     13  C   UNL     1       3.411   6.796  17.868  0.00  0.00    +0.000 A 
ATOM     14  C   UNL     1       4.786   6.739  17.629  0.00  0.00    +0.000 A 
BRANCH  13  15
ATOM     15  O   UNL     1       2.804   7.997  17.588  0.00  0.00    +0.000 OA
BRANCH  15  16
ATOM     16  C   UNL     1       1.936   8.559  18.497  0.00  0.00    +0.000 A 
ATOM     17  C   UNL     1       1.884   8.221  19.852  0.00  0.00    +0.000 A 
ATOM     18  C   UNL     1       0.928   8.807  20.683  0.00  0.00    +0.000 A 
ATOM     19  C   UNL     1       0.065   9.776  20.178  0.00  0.00    +0.000 A 
ATOM     20  C   UNL     1       0.167  10.173  18.845  0.00  0.00    +0.000 A 
ATOM     21  C   UNL     1       1.102   9.567  18.005  0.00  0.00    +0.000 A 
ENDBRANCH  15  16
ENDBRANCH  13  15
ENDBRANCH   1   9
BRANCH   1  22
ATOM     22  C   UNL     1       7.825   6.354  18.635  0.00  0.00    +0.000 C 
BRANCH  22  23
ATOM     23  C   UNL     1       8.047   7.753  18.097  0.00  0.00    +0.000 C 
ATOM     24  O   UNL     1       7.784   8.065  16.935  0.00  0.00    +0.000 OA
ATOM     25  N   UNL     1       8.682   8.589  19.002  0.00  0.00    +0.000 N 
ATOM     26  H   UNL     1       9.249   8.132  19.707  0.00  0.00    +0.000 HD
BRANCH  25  27
ATOM     27  C   UNL     1       8.998   9.922  18.681  0.00  0.00    +0.000 A 
ATOM     28  C   UNL     1      10.105  10.572  19.242  0.00  0.00    +0.000 A 
ATOM     29  C   UNL     1      10.356  11.914  18.950  0.00  0.00    +0.000 A 
ATOM     30  C   UNL     1       9.486  12.605  18.120  0.00  0.00    +0.000 A 
ATOM     31  F   UNL     1       9.698  13.906  17.877  0.00  0.00    +0.000 F 
ATOM     32  C   UNL     1       8.396  11.954  17.549  0.00  0.00    +0.000 A 
ATOM     33  F   UNL     1       7.541  12.632  16.768  0.00  0.00    +0.000 F 
ATOM     34  C   UNL     1       8.163  10.605  17.797  0.00  0.00    +0.000 A 
ENDBRANCH  25  27
ENDBRANCH  22  23
ENDBRANCH   1  22
TORSDOF 7
ENDMDL
MODEL 3
REMARK VINA RESULT:      -7.9      8.000     10.724
REMARK  Name = 
REMARK  7 active torsions:
REMARK  status: ('A' for Active; 'I' for Inactive)
REMARK    1  A    between atoms: N_4  and  C_5
REMARK    2  A    between atoms: C_5  and  C_6
REMARK    3  A    between atoms: C_5  and  C_18
REMARK    4  A    between atoms: C_6  and  C_7
REMARK    5  A    between atoms: N_9  and  C_10
REMARK    6  A    between atoms: C_22  and  O_23
REMARK    7  A    between atoms: O_23  and  C_24
REMARK                            x       y       z     vdW  Elec       q    Type
REMARK                         _______ _______ _______ _____ _____    ______ ____
ROOT
ATOM      1  C   UNL     1       6.661   5.472  15.842  0.00  0.00    +0.000 C 
ENDROOT
BRANCH   1   5
ATOM      2  N   UNL     1       7.875   5.132  12.424  0.00  0.00    +0.000 N 
ATOM      3  C   UNL     1       7.063   4.859  13.477  0.00  0.00    +0.000 C 
ATOM      4  O   UNL     1       6.135   4.074  13.384  0.00  0.00    +0.000 OA
ATOM      5  N   UNL     1       7.444   5.508  14.611  0.00  0.00    +0.000 N 
ATOM      6  H   UNL     1       7.551   4.751  11.546  0.00  0.00    +0.000 HD
ATOM      7  H   UNL     1       8.333   6.026  12.377  0.00  0.00    +0.000 HD
ATOM      8  H   UNL     1       8.066   6.300  14.515  0.00  0.00    +0.000 HD
ENDBRANCH   1   5
BRANCH   1   9
ATOM      9  C   UNL     1       7.287   6.264  16.989  0.00  0.00    +0.000 A 
ATOM     10  C   UNL     1       7.725   5.586  18.141  0.00  0.00    +0.000 A 
ATOM     11  C   UNL     1       8.282   6.282  19.216  0.00  0.00    +0.000 A 
ATOM     12  C   UNL     1       8.420   7.666  19.155  0.00  0.00    +0.000 A 
ATOM     13  C   UNL     1       8.061   8.352  17.994  0.00  0.00    +0.000 A 
ATOM     14  C   UNL     1       7.469   7.658  16.935  0.00  0.00    +0.000 A 
BRANCH  13  15
ATOM     15  O   UNL     1       8.200   9.708  17.819  0.00  0.00    +0.000 OA
BRANCH  15  16
ATOM     16  C   UNL     1       9.167  10.397  18.514  0.00  0.00    +0.000 A 
ATOM     17  C   UNL     1       9.189  10.541  19.905  0.00  0.00    +0.000 A 
ATOM     18  C   UNL     1      10.182  11.309  20.513  0.00  0.00    +0.000 A 
ATOM     19  C   UNL     1      11.191  11.882  19.742  0.00  0.00    +0.000 A 
ATOM     20  C   UNL     1      11.217  11.675  18.364  0.00  0.00    +0.000 A 
ATOM     21  C   UNL     1      10.207  10.932  17.750  0.00  0.00    +0.000 A 
ENDBRANCH  15  16
ENDBRANCH  13  15
ENDBRANCH   1   9
BRANCH   1  22
ATOM     22  C   UNL     1       6.372   4.015  16.230  0.00  0.00    +0.000 C 
BRANCH  22  23
ATOM     23  C   UNL     1       5.019   3.857  16.894  0.00  0.00    +0.000 C 
ATOM     24  O   UNL     1       3.971   4.210  16.353  0.00  0.00    +0.000 OA
ATOM     25  N   UNL     1       5.105   3.396  18.199  0.00  0.00    +0.000 N 
ATOM     26  H   UNL     1       5.978   3.581  18.678  0.00  0.00    +0.000 HD
BRANCH  25  27
ATOM     27  C   UNL     1       3.958   3.206  18.992  0.00  0.00    +0.000 A 
ATOM     28  C   UNL     1       3.178   2.047  18.891  0.00  0.00    +0.000 A 
ATOM     29  C   UNL     1       2.011   1.916  19.648  0.00  0.00    +0.000 A 
ATOM     30  C   UNL     1       1.621   2.953  20.482  0.00  0.00    +0.000 A 
ATOM     31  F   UNL     1       0.477   2.849  21.173  0.00  0.00    +0.000 F 
ATOM     32  C   UNL     1       2.406   4.097  20.594  0.00  0.00    +0.000 A 
ATOM     33  F   UNL     1       2.010   5.110  21.380  0.00  0.00    +0.000 F 
ATOM     34  C   UNL     1       3.593   4.218  19.879  0.00  0.00    +0.000 A 
ENDBRANCH  25  27
ENDBRANCH  22  23
ENDBRANCH   1  22
TORSDOF 7
ENDMDL
MODEL 4
REMARK VINA RESULT:      -7.9      4.802      6.887
REMARK  Name = 
REMARK  7 active torsions:
REMARK  status: ('A' for Active; 'I' for Inactive)
REMARK    1  A    between atoms: N_4  and  C_5
REMARK    2  A    between atoms: C_5  and  C_6
REMARK    3  A    between atoms: C_5  and  C_18
REMARK    4  A    between atoms: C_6  and  C_7
REMARK    5  A    between atoms: N_9  and  C_10
REMARK    6  A    between atoms: C_22  and  O_23
REMARK    7  A    between atoms: O_23  and  C_24
REMARK                            x       y       z     vdW  Elec       q    Type
REMARK                         _______ _______ _______ _____ _____    ______ ____
ROOT
ATOM      1  C   UNL     1       3.306   4.885  18.697  0.00  0.00    +0.000 C 
ENDROOT
BRANCH   1   5
ATOM      2  N   UNL     1       1.742   1.597  18.552  0.00  0.00    +0.000 N 
ATOM      3  C   UNL     1       1.842   2.927  18.300  0.00  0.00    +0.000 C 
ATOM      4  O   UNL     1       1.010   3.518  17.632  0.00  0.00    +0.000 OA
ATOM      5  N   UNL     1       2.916   3.495  18.913  0.00  0.00    +0.000 N 
ATOM      6  H   UNL     1       1.018   1.132  18.022  0.00  0.00    +0.000 HD
ATOM      7  H   UNL     1       2.579   1.066  18.721  0.00  0.00    +0.000 HD
ATOM      8  H   UNL     1       3.654   2.882  19.235  0.00  0.00    +0.000 HD
ENDBRANCH   1   5
BRANCH   1   9
ATOM      9  C   UNL     1       4.699   5.042  18.089  0.00  0.00    +0.000 A 
ATOM     10  C   UNL     1       5.832   4.726  18.860  0.00  0.00    +0.000 A 
ATOM     11  C   UNL     1       7.119   4.879  18.342  0.00  0.00    +0.000 A 
ATOM     12  C   UNL     1       7.297   5.342  17.041  0.00  0.00    +0.000 A 
ATOM     13  C   UNL     1       6.188   5.593  16.232  0.00  0.00    +0.000 A 
ATOM     14  C   UNL     1       4.902   5.474  16.765  0.00  0.00    +0.000 A 
BRANCH  13  15
ATOM     15  O   UNL     1       6.259   6.008  14.924  0.00  0.00    +0.000 OA
BRANCH  15  16
ATOM     16  C   UNL     1       6.395   5.083  13.914  0.00  0.00    +0.000 A 
ATOM     17  C   UNL     1       7.477   5.033  13.030  0.00  0.00    +0.000 A 
ATOM     18  C   UNL     1       7.495   4.092  12.000  0.00  0.00    +0.000 A 
ATOM     19  C   UNL     1       6.466   3.160  11.888  0.00  0.00    +0.000 A 
ATOM     20  C   UNL     1       5.425   3.158  12.815  0.00  0.00    +0.000 A 
ATOM     21  C   UNL     1       5.389   4.117  13.829  0.00  0.00    +0.000 A 
ENDBRANCH  15  16
ENDBRANCH  13  15
ENDBRANCH   1   9
BRANCH   1  22
ATOM     22  C   UNL     1       3.147   5.676  20.003  0.00  0.00    +0.000 C 
BRANCH  22  23
ATOM     23  C   UNL     1       2.309   6.925  19.817  0.00  0.00    +0.000 C 
ATOM     24  O   UNL     1       2.198   7.492  18.730  0.00  0.00    +0.000 OA
ATOM     25  N   UNL     1       1.797   7.417  21.007  0.00  0.00    +0.000 N 
ATOM     26  H   UNL     1       2.308   7.170  21.847  0.00  0.00    +0.000 HD
BRANCH  25  27
ATOM     27  C   UNL     1       1.011   8.584  21.047  0.00  0.00    +0.000 A 
ATOM     28  C   UNL     1       0.970   9.480  19.971  0.00  0.00    +0.000 A 
ATOM     29  C   UNL     1       0.229  10.660  20.066  0.00  0.00    +0.000 A 
ATOM     30  C   UNL     1      -0.445  10.948  21.243  0.00  0.00    +0.000 A 
ATOM     31  F   UNL     1      -1.118  12.102  21.353  0.00  0.00    +0.000 F 
ATOM     32  C   UNL     1      -0.418  10.049  22.305  0.00  0.00    +0.000 A 
ATOM     33  F   UNL     1      -1.049  10.343  23.452  0.00  0.00    +0.000 F 
ATOM     34  C   UNL     1       0.279   8.849  22.204  0.00  0.00    +0.000 A 
ENDBRANCH  25  27
ENDBRANCH  22  23
ENDBRANCH   1  22
TORSDOF 7
ENDMDL
MODEL 5
REMARK VINA RESULT:      -7.7      3.996      9.270
REMARK  Name = 
REMARK  7 active torsions:
REMARK  status: ('A' for Active; 'I' for Inactive)
REMARK    1  A    between atoms: N_4  and  C_5
REMARK    2  A    between atoms: C_5  and  C_6
REMARK    3  A    between atoms: C_5  and  C_18
REMARK    4  A    between atoms: C_6  and  C_7
REMARK    5  A    between atoms: N_9  and  C_10
REMARK    6  A    between atoms: C_22  and  O_23
REMARK    7  A    between atoms: O_23  and  C_24
REMARK                            x       y       z     vdW  Elec       q    Type
REMARK                         _______ _______ _______ _____ _____    ______ ____
ROOT
ATOM      1  C   UNL     1       0.095   9.831  18.956  0.00  0.00    +0.000 C 
ENDROOT
BRANCH   1   5
ATOM      2  N   UNL     1      -2.065  11.616  16.627  0.00  0.00    +0.000 N 
ATOM      3  C   UNL     1      -1.729  10.607  17.471  0.00  0.00    +0.000 C 
ATOM      4  O   UNL     1      -2.497   9.692  17.715  0.00  0.00    +0.000 OA
ATOM      5  N   UNL     1      -0.457  10.723  17.941  0.00  0.00    +0.000 N 
ATOM      6  H   UNL     1      -3.037  11.613  16.350  0.00  0.00    +0.000 HD
ATOM      7  H   UNL     1      -1.641  12.520  16.749  0.00  0.00    +0.000 HD
ATOM      8  H   UNL     1      -0.006  11.626  17.866  0.00  0.00    +0.000 HD
ENDBRANCH   1   5
BRANCH   1   9
ATOM      9  C   UNL     1      -0.208  10.270  20.388  0.00  0.00    +0.000 A 
ATOM     10  C   UNL     1      -0.304   9.302  21.404  0.00  0.00    +0.000 A 
ATOM     11  C   UNL     1      -0.600   9.668  22.719  0.00  0.00    +0.000 A 
ATOM     12  C   UNL     1      -0.798  11.007  23.043  0.00  0.00    +0.000 A 
ATOM     13  C   UNL     1      -0.636  11.992  22.068  0.00  0.00    +0.000 A 
ATOM     14  C   UNL     1      -0.376  11.621  20.746  0.00  0.00    +0.000 A 
BRANCH  13  15
ATOM     15  O   UNL     1      -0.764  13.340  22.298  0.00  0.00    +0.000 OA
BRANCH  15  16
ATOM     16  C   UNL     1      -1.668  13.798  23.229  0.00  0.00    +0.000 A 
ATOM     17  C   UNL     1      -3.011  13.415  23.281  0.00  0.00    +0.000 A 
ATOM     18  C   UNL     1      -3.864  13.981  24.229  0.00  0.00    +0.000 A 
ATOM     19  C   UNL     1      -3.365  14.880  25.168  0.00  0.00    +0.000 A 
ATOM     20  C   UNL     1      -2.008  15.204  25.169  0.00  0.00    +0.000 A 
ATOM     21  C   UNL     1      -1.160  14.663  24.202  0.00  0.00    +0.000 A 
ENDBRANCH  15  16
ENDBRANCH  13  15
ENDBRANCH   1   9
BRANCH   1  22
ATOM     22  C   UNL     1       1.597   9.636  18.712  0.00  0.00    +0.000 C 
BRANCH  22  23
ATOM     23  C   UNL     1       1.972   8.172  18.586  0.00  0.00    +0.000 C 
ATOM     24  O   UNL     1       1.986   7.584  17.504  0.00  0.00    +0.000 OA
ATOM     25  N   UNL     1       2.169   7.555  19.811  0.00  0.00    +0.000 N 
ATOM     26  H   UNL     1       1.696   7.975  20.602  0.00  0.00    +0.000 HD
BRANCH  25  27
ATOM     27  C   UNL     1       2.501   6.190  19.905  0.00  0.00    +0.000 A 
ATOM     28  C   UNL     1       3.702   5.687  19.386  0.00  0.00    +0.000 A 
ATOM     29  C   UNL     1       3.973   4.318  19.441  0.00  0.00    +0.000 A 
ATOM     30  C   UNL     1       3.033   3.459  19.992  0.00  0.00    +0.000 A 
ATOM     31  F   UNL     1       3.271   2.140  20.002  0.00  0.00    +0.000 F 
ATOM     32  C   UNL     1       1.849   3.962  20.522  0.00  0.00    +0.000 A 
ATOM     33  F   UNL     1       0.930   3.125  21.029  0.00  0.00    +0.000 F 
ATOM     34  C   UNL     1       1.589   5.329  20.514  0.00  0.00    +0.000 A 
ENDBRANCH  25  27
ENDBRANCH  22  23
ENDBRANCH   1  22
TORSDOF 7
ENDMDL
MODEL 6
REMARK VINA RESULT:      -7.7      1.326      1.518
REMARK  Name = 
REMARK  7 active torsions:
REMARK  status: ('A' for Active; 'I' for Inactive)
REMARK    1  A    between atoms: N_4  and  C_5
REMARK    2  A    between atoms: C_5  and  C_6
REMARK    3  A    between atoms: C_5  and  C_18
REMARK    4  A    between atoms: C_6  and  C_7
REMARK    5  A    between atoms: N_9  and  C_10
REMARK    6  A    between atoms: C_22  and  O_23
REMARK    7  A    between atoms: O_23  and  C_24
REMARK                            x       y       z     vdW  Elec       q    Type
REMARK                         _______ _______ _______ _____ _____    ______ ____
ROOT
ATOM      1  C   UNL     1       0.692  10.761  19.833  0.00  0.00    +0.000 C 
ENDROOT
BRANCH   1   5
ATOM      2  N   UNL     1       2.577  13.859  19.478  0.00  0.00    +0.000 N 
ATOM      3  C   UNL     1       1.909  12.893  20.159  0.00  0.00    +0.000 C 
ATOM      4  O   UNL     1       1.800  12.923  21.373  0.00  0.00    +0.000 OA
ATOM      5  N   UNL     1       1.355  11.962  19.335  0.00  0.00    +0.000 N 
ATOM      6  H   UNL     1       3.088  14.500  20.069  0.00  0.00    +0.000 HD
ATOM      7  H   UNL     1       3.005  13.632  18.597  0.00  0.00    +0.000 HD
ATOM      8  H   UNL     1       1.704  11.904  18.387  0.00  0.00    +0.000 HD
ENDBRANCH   1   5
BRANCH   1   9
ATOM      9  C   UNL     1       1.346   9.462  19.364  0.00  0.00    +0.000 A 
ATOM     10  C   UNL     1       1.849   9.373  18.053  0.00  0.00    +0.000 A 
ATOM     11  C   UNL     1       2.433   8.194  17.587  0.00  0.00    +0.000 A 
ATOM     12  C   UNL     1       2.533   7.086  18.424  0.00  0.00    +0.000 A 
ATOM     13  C   UNL     1       2.108   7.173  19.749  0.00  0.00    +0.000 A 
ATOM     14  C   UNL     1       1.490   8.342  20.204  0.00  0.00    +0.000 A 
BRANCH  13  15
ATOM     15  O   UNL     1       2.205   6.153  20.665  0.00  0.00    +0.000 OA
BRANCH  15  16
ATOM     16  C   UNL     1       2.189   4.843  20.242  0.00  0.00    +0.000 A 
ATOM     17  C   UNL     1       3.328   4.113  19.891  0.00  0.00    +0.000 A 
ATOM     18  C   UNL     1       3.203   2.807  19.418  0.00  0.00    +0.000 A 
ATOM     19  C   UNL     1       1.949   2.205  19.354  0.00  0.00    +0.000 A 
ATOM     20  C   UNL     1       0.819   2.904  19.777  0.00  0.00    +0.000 A 
ATOM     21  C   UNL     1       0.938   4.221  20.222  0.00  0.00    +0.000 A 
ENDBRANCH  15  16
ENDBRANCH  13  15
ENDBRANCH   1   9
BRANCH   1  22
ATOM     22  C   UNL     1      -0.803  10.817  19.493  0.00  0.00    +0.000 C 
BRANCH  22  23
ATOM     23  C   UNL     1      -1.557  11.786  20.382  0.00  0.00    +0.000 C 
ATOM     24  O   UNL     1      -2.316  12.644  19.932  0.00  0.00    +0.000 OA
ATOM     25  N   UNL     1      -1.207  11.681  21.719  0.00  0.00    +0.000 N 
ATOM     26  H   UNL     1      -0.287  11.301  21.909  0.00  0.00    +0.000 HD
BRANCH  25  27
ATOM     27  C   UNL     1      -1.780  12.511  22.700  0.00  0.00    +0.000 A 
ATOM     28  C   UNL     1      -3.046  12.247  23.239  0.00  0.00    +0.000 A 
ATOM     29  C   UNL     1      -3.613  13.125  24.166  0.00  0.00    +0.000 A 
ATOM     30  C   UNL     1      -2.922  14.271  24.530  0.00  0.00    +0.000 A 
ATOM     31  F   UNL     1      -3.484  15.138  25.383  0.00  0.00    +0.000 F 
ATOM     32  C   UNL     1      -1.657  14.523  24.007  0.00  0.00    +0.000 A 
ATOM     33  F   UNL     1      -1.002  15.646  24.340  0.00  0.00    +0.000 F 
ATOM     34  C   UNL     1      -1.064  13.632  23.118  0.00  0.00    +0.000 A 
ENDBRANCH  25  27
ENDBRANCH  22  23
ENDBRANCH   1  22
TORSDOF 7
ENDMDL
MODEL 7
REMARK VINA RESULT:      -7.7      2.329      3.324
REMARK  Name = 
REMARK  7 active torsions:
REMARK  status: ('A' for Active; 'I' for Inactive)
REMARK    1  A    between atoms: N_4  and  C_5
REMARK    2  A    between atoms: C_5  and  C_6
REMARK    3  A    between atoms: C_5  and  C_18
REMARK    4  A    between atoms: C_6  and  C_7
REMARK    5  A    between atoms: N_9  and  C_10
REMARK    6  A    between atoms: C_22  and  O_23
REMARK    7  A    between atoms: O_23  and  C_24
REMARK                            x       y       z     vdW  Elec       q    Type
REMARK                         _______ _______ _______ _____ _____    ______ ____
ROOT
ATOM      1  C   UNL     1       1.096  10.198  19.370  0.00  0.00    +0.000 C 
ENDROOT
BRANCH   1   5
ATOM      2  N   UNL     1       2.369  13.003  17.424  0.00  0.00    +0.000 N 
ATOM      3  C   UNL     1       2.025  12.347  18.561  0.00  0.00    +0.000 C 
ATOM      4  O   UNL     1       2.190  12.842  19.663  0.00  0.00    +0.000 OA
ATOM      5  N   UNL     1       1.444  11.142  18.312  0.00  0.00    +0.000 N 
ATOM      6  H   UNL     1       2.900  13.849  17.583  0.00  0.00    +0.000 HD
ATOM      7  H   UNL     1       2.616  12.472  16.607  0.00  0.00    +0.000 HD
ATOM      8  H   UNL     1       1.573  10.736  17.394  0.00  0.00    +0.000 HD
ENDBRANCH   1   5
BRANCH   1   9
ATOM      9  C   UNL     1       1.761   8.831  19.213  0.00  0.00    +0.000 A 
ATOM     10  C   UNL     1       1.586   7.857  20.213  0.00  0.00    +0.000 A 
ATOM     11  C   UNL     1       2.197   6.605  20.111  0.00  0.00    +0.000 A 
ATOM     12  C   UNL     1       2.986   6.302  19.005  0.00  0.00    +0.000 A 
ATOM     13  C   UNL     1       3.115   7.224  17.966  0.00  0.00    +0.000 A 
ATOM     14  C   UNL     1       2.533   8.489  18.087  0.00  0.00    +0.000 A 
BRANCH  13  15
ATOM     15  O   UNL     1       3.832   7.002  16.815  0.00  0.00    +0.000 OA
BRANCH  15  16
ATOM     16  C   UNL     1       4.997   6.271  16.859  0.00  0.00    +0.000 A 
ATOM     17  C   UNL     1       6.182   6.709  17.458  0.00  0.00    +0.000 A 
ATOM     18  C   UNL     1       7.329   5.917  17.399  0.00  0.00    +0.000 A 
ATOM     19  C   UNL     1       7.280   4.661  16.800  0.00  0.00    +0.000 A 
ATOM     20  C   UNL     1       6.080   4.188  16.271  0.00  0.00    +0.000 A 
ATOM     21  C   UNL     1       4.938   4.991  16.302  0.00  0.00    +0.000 A 
ENDBRANCH  15  16
ENDBRANCH  13  15
ENDBRANCH   1   9
BRANCH   1  22
ATOM     22  C   UNL     1      -0.430  10.093  19.490  0.00  0.00    +0.000 C 
BRANCH  22  23
ATOM     23  C   UNL     1      -1.034  11.297  20.186  0.00  0.00    +0.000 C 
ATOM     24  O   UNL     1      -1.433  12.285  19.571  0.00  0.00    +0.000 OA
ATOM     25  N   UNL     1      -0.972  11.212  21.568  0.00  0.00    +0.000 N 
ATOM     26  H   UNL     1      -0.241  10.619  21.944  0.00  0.00    +0.000 HD
BRANCH  25  27
ATOM     27  C   UNL     1      -1.459  12.242  22.394  0.00  0.00    +0.000 A 
ATOM     28  C   UNL     1      -0.704  13.392  22.660  0.00  0.00    +0.000 A 
ATOM     29  C   UNL     1      -1.191  14.367  23.533  0.00  0.00    +0.000 A 
ATOM     30  C   UNL     1      -2.417  14.176  24.152  0.00  0.00    +0.000 A 
ATOM     31  F   UNL     1      -2.864  15.088  25.026  0.00  0.00    +0.000 F 
ATOM     32  C   UNL     1      -3.175  13.042  23.873  0.00  0.00    +0.000 A 
ATOM     33  F   UNL     1      -4.348  12.848  24.494  0.00  0.00    +0.000 F 
ATOM     34  C   UNL     1      -2.720  12.087  22.970  0.00  0.00    +0.000 A 
ENDBRANCH  25  27
ENDBRANCH  22  23
ENDBRANCH   1  22
TORSDOF 7
ENDMDL
MODEL 8
REMARK VINA RESULT:      -7.7      4.673      6.815
REMARK  Name = 
REMARK  7 active torsions:
REMARK  status: ('A' for Active; 'I' for Inactive)
REMARK    1  A    between atoms: N_4  and  C_5
REMARK    2  A    between atoms: C_5  and  C_6
REMARK    3  A    between atoms: C_5  and  C_18
REMARK    4  A    between atoms: C_6  and  C_7
REMARK    5  A    between atoms: N_9  and  C_10
REMARK    6  A    between atoms: C_22  and  O_23
REMARK    7  A    between atoms: O_23  and  C_24
REMARK                            x       y       z     vdW  Elec       q    Type
REMARK                         _______ _______ _______ _____ _____    ______ ____
ROOT
ATOM      1  C   UNL     1       2.691   5.816  18.395  0.00  0.00    +0.000 C 
ENDROOT
BRANCH   1   5
ATOM      2  N   UNL     1       1.105   2.546  18.646  0.00  0.00    +0.000 N 
ATOM      3  C   UNL     1       1.722   3.571  18.005  0.00  0.00    +0.000 C 
ATOM      4  O   UNL     1       1.991   3.515  16.817  0.00  0.00    +0.000 OA
ATOM      5  N   UNL     1       1.937   4.641  18.818  0.00  0.00    +0.000 N 
ATOM      6  H   UNL     1       1.032   1.702  18.096  0.00  0.00    +0.000 HD
ATOM      7  H   UNL     1       1.258   2.421  19.632  0.00  0.00    +0.000 HD
ATOM      8  H   UNL     1       1.893   4.490  19.818  0.00  0.00    +0.000 HD
ENDBRANCH   1   5
BRANCH   1   9
ATOM      9  C   UNL     1       4.160   5.524  18.090  0.00  0.00    +0.000 A 
ATOM     10  C   UNL     1       4.934   4.816  19.026  0.00  0.00    +0.000 A 
ATOM     11  C   UNL     1       6.285   4.551  18.787  0.00  0.00    +0.000 A 
ATOM     12  C   UNL     1       6.882   4.981  17.606  0.00  0.00    +0.000 A 
ATOM     13  C   UNL     1       6.116   5.620  16.630  0.00  0.00    +0.000 A 
ATOM     14  C   UNL     1       4.775   5.917  16.887  0.00  0.00    +0.000 A 
BRANCH  13  15
ATOM     15  O   UNL     1       6.601   6.041  15.415  0.00  0.00    +0.000 OA
BRANCH  15  16
ATOM     16  C   UNL     1       6.565   5.197  14.329  0.00  0.00    +0.000 A 
ATOM     17  C   UNL     1       7.541   5.155  13.329  0.00  0.00    +0.000 A 
ATOM     18  C   UNL     1       7.385   4.303  12.235  0.00  0.00    +0.000 A 
ATOM     19  C   UNL     1       6.290   3.447  12.168  0.00  0.00    +0.000 A 
ATOM     20  C   UNL     1       5.355   3.430  13.203  0.00  0.00    +0.000 A 
ATOM     21  C   UNL     1       5.493   4.302  14.283  0.00  0.00    +0.000 A 
ENDBRANCH  15  16
ENDBRANCH  13  15
ENDBRANCH   1   9
BRANCH   1  22
ATOM     22  C   UNL     1       2.523   6.939  19.428  0.00  0.00    +0.000 C 
BRANCH  22  23
ATOM     23  C   UNL     1       2.091   8.244  18.790  0.00  0.00    +0.000 C 
ATOM     24  O   UNL     1       2.492   8.604  17.683  0.00  0.00    +0.000 OA
ATOM     25  N   UNL     1       1.312   9.027  19.628  0.00  0.00    +0.000 N 
ATOM     26  H   UNL     1       1.431   8.868  20.621  0.00  0.00    +0.000 HD
BRANCH  25  27
ATOM     27  C   UNL     1       0.832  10.287  19.226  0.00  0.00    +0.000 A 
ATOM     28  C   UNL     1       1.449  11.475  19.638  0.00  0.00    +0.000 A 
ATOM     29  C   UNL     1       0.911  12.711  19.273  0.00  0.00    +0.000 A 
ATOM     30  C   UNL     1      -0.252  12.751  18.519  0.00  0.00    +0.000 A 
ATOM     31  F   UNL     1      -0.796  13.936  18.208  0.00  0.00    +0.000 F 
ATOM     32  C   UNL     1      -0.855  11.571  18.095  0.00  0.00    +0.000 A 
ATOM     33  F   UNL     1      -1.996  11.613  17.390  0.00  0.00    +0.000 F 
ATOM     34  C   UNL     1      -0.302  10.335  18.415  0.00  0.00    +0.000 A 
ENDBRANCH  25  27
ENDBRANCH  22  23
ENDBRANCH   1  22
TORSDOF 7
ENDMDL
MODEL 9
REMARK VINA RESULT:      -7.7      1.020      1.524
REMARK  Name = 
REMARK  7 active torsions:
REMARK  status: ('A' for Active; 'I' for Inactive)
REMARK    1  A    between atoms: N_4  and  C_5
REMARK    2  A    between atoms: C_5  and  C_6
REMARK    3  A    between atoms: C_5  and  C_18
REMARK    4  A    between atoms: C_6  and  C_7
REMARK    5  A    between atoms: N_9  and  C_10
REMARK    6  A    between atoms: C_22  and  O_23
REMARK    7  A    between atoms: O_23  and  C_24
REMARK                            x       y       z     vdW  Elec       q    Type
REMARK                         _______ _______ _______ _____ _____    ______ ____
ROOT
ATOM      1  C   UNL     1       0.820  10.132  20.099  0.00  0.00    +0.000 C 
ENDROOT
BRANCH   1   5
ATOM      2  N   UNL     1      -1.097  12.091  17.700  0.00  0.00    +0.000 N 
ATOM      3  C   UNL     1      -0.801  10.990  18.436  0.00  0.00    +0.000 C 
ATOM      4  O   UNL     1      -1.497   9.989  18.400  0.00  0.00    +0.000 OA
ATOM      5  N   UNL     1       0.354  11.129  19.141  0.00  0.00    +0.000 N 
ATOM      6  H   UNL     1      -2.003  12.055  17.253  0.00  0.00    +0.000 HD
ATOM      7  H   UNL     1      -0.799  12.994  18.026  0.00  0.00    +0.000 HD
ATOM      8  H   UNL     1       0.712  12.065  19.280  0.00  0.00    +0.000 HD
ENDBRANCH   1   5
BRANCH   1   9
ATOM      9  C   UNL     1       1.565   8.964  19.454  0.00  0.00    +0.000 A 
ATOM     10  C   UNL     1       2.010   9.075  18.124  0.00  0.00    +0.000 A 
ATOM     11  C   UNL     1       2.675   8.019  17.498  0.00  0.00    +0.000 A 
ATOM     12  C   UNL     1       2.914   6.836  18.192  0.00  0.00    +0.000 A 
ATOM     13  C   UNL     1       2.547   6.728  19.533  0.00  0.00    +0.000 A 
ATOM     14  C   UNL     1       1.849   7.772  20.147  0.00  0.00    +0.000 A 
BRANCH  13  15
ATOM     15  O   UNL     1       2.779   5.622  20.315  0.00  0.00    +0.000 OA
BRANCH  15  16
ATOM     16  C   UNL     1       2.481   4.366  19.839  0.00  0.00    +0.000 A 
ATOM     17  C   UNL     1       3.429   3.456  19.363  0.00  0.00    +0.000 A 
ATOM     18  C   UNL     1       3.020   2.227  18.846  0.00  0.00    +0.000 A 
ATOM     19  C   UNL     1       1.673   1.876  18.862  0.00  0.00    +0.000 A 
ATOM     20  C   UNL     1       0.733   2.749  19.409  0.00  0.00    +0.000 A 
ATOM     21  C   UNL     1       1.136   3.992  19.898  0.00  0.00    +0.000 A 
ENDBRANCH  15  16
ENDBRANCH  13  15
ENDBRANCH   1   9
BRANCH   1  22
ATOM     22  C   UNL     1      -0.352   9.664  20.972  0.00  0.00    +0.000 C 
BRANCH  22  23
ATOM     23  C   UNL     1      -0.628  10.617  22.119  0.00  0.00    +0.000 C 
ATOM     24  O   UNL     1      -0.138  10.464  23.238  0.00  0.00    +0.000 OA
ATOM     25  N   UNL     1      -1.570  11.584  21.807  0.00  0.00    +0.000 N 
ATOM     26  H   UNL     1      -2.222  11.347  21.068  0.00  0.00    +0.000 HD
BRANCH  25  27
ATOM     27  C   UNL     1      -1.979  12.548  22.748  0.00  0.00    +0.000 A 
ATOM     28  C   UNL     1      -1.172  13.645  23.075  0.00  0.00    +0.000 A 
ATOM     29  C   UNL     1      -1.579  14.550  24.058  0.00  0.00    +0.000 A 
ATOM     30  C   UNL     1      -2.778  14.339  24.723  0.00  0.00    +0.000 A 
ATOM     31  F   UNL     1      -3.148  15.179  25.699  0.00  0.00    +0.000 F 
ATOM     32  C   UNL     1      -3.587  13.258  24.385  0.00  0.00    +0.000 A 
ATOM     33  F   UNL     1      -4.733  13.041  25.049  0.00  0.00    +0.000 F 
ATOM     34  C   UNL     1      -3.212  12.377  23.376  0.00  0.00    +0.000 A 
ENDBRANCH  25  27
ENDBRANCH  22  23
ENDBRANCH   1  22
TORSDOF 7
ENDMDL
