MODEL 1
REMARK VINA RESULT:      -8.8      0.000      0.000
REMARK  Name = 
REMARK  6 active torsions:
REMARK  status: ('A' for Active; 'I' for Inactive)
REMARK    1  A    between atoms: C_2  and  C_3
REMARK    2  A    between atoms: C_3  and  O_4
REMARK    3  A    between atoms: O_4  and  C_5
REMARK    4  A    between atoms: C_8  and  N_9
REMARK    5  A    between atoms: C_10  and  C_12
REMARK    6  A    between atoms: N_20  and  C_21
REMARK                            x       y       z     vdW  Elec       q    Type
REMARK                         _______ _______ _______ _____ _____    ______ ____
ROOT
ATOM      1  C   UNL     1       6.337   5.014  17.626  0.00  0.00    +0.000 A 
ATOM      2  C   UNL     1       6.935   4.964  18.878  0.00  0.00    +0.000 A 
ATOM      3  C   UNL     1       7.758   6.012  19.303  0.00  0.00    +0.000 A 
ATOM      4  C   UNL     1       8.018   7.114  18.480  0.00  0.00    +0.000 A 
ATOM      5  C   UNL     1       7.466   7.126  17.197  0.00  0.00    +0.000 A 
ATOM      6  C   UNL     1       6.642   6.080  16.770  0.00  0.00    +0.000 A 
ENDROOT
BRANCH   4   7
ATOM      7  N   UNL     1       8.807   8.218  18.877  0.00  0.00    +0.000 N 
ATOM      8  C   UNL     1       8.621   9.530  18.479  0.00  0.00    +0.000 C 
ATOM      9  O   UNL     1       7.720   9.941  17.747  0.00  0.00    +0.000 OA
ATOM     10  H   UNL     1       9.556   8.018  19.528  0.00  0.00    +0.000 HD
BRANCH   8  11
ATOM     11  C   UNL     1       9.579  10.546  18.982  0.00  0.00    +0.000 A 
ATOM     12  C   UNL     1      10.436  11.267  18.142  0.00  0.00    +0.000 A 
ATOM     13  C   UNL     1      11.238  12.276  18.680  0.00  0.00    +0.000 A 
ATOM     14  C   UNL     1      11.189  12.572  20.044  0.00  0.00    +0.000 A 
ATOM     15  C   UNL     1      10.338  11.857  20.882  0.00  0.00    +0.000 A 
ATOM     16  C   UNL     1       9.538  10.848  20.353  0.00  0.00    +0.000 A 
ENDBRANCH   8  11
ENDBRANCH   4   7
BRANCH   1  17
ATOM     17  O   UNL     1       5.447   4.011  17.315  0.00  0.00    +0.000 OA
BRANCH  17  18
ATOM     18  C   UNL     1       4.177   4.508  16.903  0.00  0.00    +0.000 C 
BRANCH  18  20
ATOM     19  O   UNL     1       2.985   4.521  18.968  0.00  0.00    +0.000 OA
ATOM     20  C   UNL     1       3.326   5.177  17.980  0.00  0.00    +0.000 C 
ATOM     21  N   UNL     1       3.032   6.501  17.742  0.00  0.00    +0.000 N 
ATOM     22  H   UNL     1       3.353   6.865  16.850  0.00  0.00    +0.000 HD
BRANCH  21  23
ATOM     23  C   UNL     1       2.356   7.395  18.603  0.00  0.00    +0.000 A 
ATOM     24  C   UNL     1       2.145   7.155  19.978  0.00  0.00    +0.000 A 
ATOM     25  C   UNL     1       1.462   8.079  20.783  0.00  0.00    +0.000 A 
ATOM     26  C   UNL     1       1.035   9.247  20.196  0.00  0.00    +0.000 A 
ATOM     27  C   UNL     1       1.253   9.499  18.864  0.00  0.00    +0.000 A 
ATOM     28  C   UNL     1       1.895   8.593  18.042  0.00  0.00    +0.000 A 
ATOM     29  O   UNL     1       0.789  10.723  18.490  0.00  0.00    +0.000 OA
ATOM     30  C   UNL     1       0.329  11.237  19.757  0.00  0.00    +0.000 C 
ATOM     31  O   UNL     1       0.396  10.268  20.824  0.00  0.00    +0.000 OA
ENDBRANCH  21  23
ENDBRANCH  18  20
ENDBRANCH  17  18
ENDBRANCH   1  17
TORSDOF 6
ENDMDL
MODEL 2
REMARK VINA RESULT:      -8.8      0.774      1.601
REMARK  Name = 
REMARK  6 active torsions:
REMARK  status: ('A' for Active; 'I' for Inactive)
REMARK    1  A    between atoms: C_2  and  C_3
REMARK    2  A    between atoms: C_3  and  O_4
REMARK    3  A    between atoms: O_4  and  C_5
REMARK    4  A    between atoms: C_8  and  N_9
REMARK    5  A    between atoms: C_10  and  C_12
REMARK    6  A    between atoms: N_20  and  C_21
REMARK                            x       y       z     vdW  Elec       q    Type
REMARK                         _______ _______ _______ _____ _____    ______ ____
ROOT
ATOM      1  C   UNL     1       6.212   5.189  17.561  0.00  0.00    +0.000 A 
ATOM      2  C   UNL     1       6.207   6.374  16.835  0.00  0.00    +0.000 A 
ATOM      3  C   UNL     1       7.044   7.428  17.213  0.00  0.00    +0.000 A 
ATOM      4  C   UNL     1       7.880   7.331  18.332  0.00  0.00    +0.000 A 
ATOM      5  C   UNL     1       7.831   6.163  19.094  0.00  0.00    +0.000 A 
ATOM      6  C   UNL     1       6.997   5.105  18.718  0.00  0.00    +0.000 A 
ENDROOT
BRANCH   4   7
ATOM      7  N   UNL     1       8.774   8.351  18.731  0.00  0.00    +0.000 N 
ATOM      8  C   UNL     1       8.691   9.686  18.373  0.00  0.00    +0.000 C 
ATOM      9  O   UNL     1       7.808  10.193  17.681  0.00  0.00    +0.000 OA
ATOM     10  H   UNL     1       9.522   8.069  19.351  0.00  0.00    +0.000 HD
BRANCH   8  11
ATOM     11  C   UNL     1       9.749  10.600  18.869  0.00  0.00    +0.000 A 
ATOM     12  C   UNL     1      10.709  11.181  18.031  0.00  0.00    +0.000 A 
ATOM     13  C   UNL     1      11.611  12.109  18.558  0.00  0.00    +0.000 A 
ATOM     14  C   UNL     1      11.560  12.462  19.908  0.00  0.00    +0.000 A 
ATOM     15  C   UNL     1      10.607  11.886  20.744  0.00  0.00    +0.000 A 
ATOM     16  C   UNL     1       9.707  10.958  20.227  0.00  0.00    +0.000 A 
ENDBRANCH   8  11
ENDBRANCH   4   7
BRANCH   1  17
ATOM     17  O   UNL     1       5.456   4.150  17.070  0.00  0.00    +0.000 OA
BRANCH  17  18
ATOM     18  C   UNL     1       4.350   3.826  17.909  0.00  0.00    +0.000 C 
BRANCH  18  20
ATOM     19  O   UNL     1       2.100   4.535  17.555  0.00  0.00    +0.000 OA
ATOM     20  C   UNL     1       3.219   4.851  17.969  0.00  0.00    +0.000 C 
ATOM     21  N   UNL     1       3.569   6.063  18.520  0.00  0.00    +0.000 N 
ATOM     22  H   UNL     1       4.550   6.165  18.761  0.00  0.00    +0.000 HD
BRANCH  21  23
ATOM     23  C   UNL     1       2.716   7.156  18.795  0.00  0.00    +0.000 A 
ATOM     24  C   UNL     1       2.379   8.148  17.848  0.00  0.00    +0.000 A 
ATOM     25  C   UNL     1       1.529   9.213  18.181  0.00  0.00    +0.000 A 
ATOM     26  C   UNL     1       1.003   9.240  19.450  0.00  0.00    +0.000 A 
ATOM     27  C   UNL     1       1.308   8.269  20.372  0.00  0.00    +0.000 A 
ATOM     28  C   UNL     1       2.166   7.227  20.082  0.00  0.00    +0.000 A 
ATOM     29  O   UNL     1       0.656   8.458  21.552  0.00  0.00    +0.000 OA
ATOM     30  C   UNL     1      -0.151   9.611  21.234  0.00  0.00    +0.000 C 
ATOM     31  O   UNL     1       0.136  10.167  19.935  0.00  0.00    +0.000 OA
ENDBRANCH  21  23
ENDBRANCH  18  20
ENDBRANCH  17  18
ENDBRANCH   1  17
TORSDOF 6
ENDMDL
MODEL 3
REMARK VINA RESULT:      -8.5      4.809      6.005
REMARK  Name = 
REMARK  6 active torsions:
REMARK  status: ('A' for Active; 'I' for Inactive)
REMARK    1  A    between atoms: C_2  and  C_3
REMARK    2  A    between atoms: C_3  and  O_4
REMARK    3  A    between atoms: O_4  and  C_5
REMARK    4  A    between atoms: C_8  and  N_9
REMARK    5  A    between atoms: C_10  and  C_12
REMARK    6  A    between atoms: N_20  and  C_21
REMARK                            x       y       z     vdW  Elec       q    Type
REMARK                         _______ _______ _______ _____ _____    ______ ____
ROOT
ATOM      1  C   UNL     1       3.196   2.861  19.803  0.00  0.00    +0.000 A 
ATOM      2  C   UNL     1       2.529   2.490  18.642  0.00  0.00    +0.000 A 
ATOM      3  C   UNL     1       3.159   2.624  17.400  0.00  0.00    +0.000 A 
ATOM      4  C   UNL     1       4.451   3.152  17.292  0.00  0.00    +0.000 A 
ATOM      5  C   UNL     1       5.090   3.584  18.456  0.00  0.00    +0.000 A 
ATOM      6  C   UNL     1       4.463   3.449  19.700  0.00  0.00    +0.000 A 
ENDROOT
BRANCH   4   7
ATOM      7  N   UNL     1       5.147   3.270  16.067  0.00  0.00    +0.000 N 
ATOM      8  C   UNL     1       5.643   4.445  15.527  0.00  0.00    +0.000 C 
ATOM      9  O   UNL     1       5.583   5.559  16.048  0.00  0.00    +0.000 OA
ATOM     10  H   UNL     1       5.310   2.408  15.563  0.00  0.00    +0.000 HD
BRANCH   8  11
ATOM     11  C   UNL     1       6.319   4.366  14.209  0.00  0.00    +0.000 A 
ATOM     12  C   UNL     1       5.930   3.471  13.205  0.00  0.00    +0.000 A 
ATOM     13  C   UNL     1       6.552   3.527  11.955  0.00  0.00    +0.000 A 
ATOM     14  C   UNL     1       7.552   4.467  11.700  0.00  0.00    +0.000 A 
ATOM     15  C   UNL     1       7.942   5.359  12.696  0.00  0.00    +0.000 A 
ATOM     16  C   UNL     1       7.329   5.307  13.944  0.00  0.00    +0.000 A 
ENDBRANCH   8  11
ENDBRANCH   4   7
BRANCH   1  17
ATOM     17  O   UNL     1       2.569   2.594  20.998  0.00  0.00    +0.000 OA
BRANCH  17  18
ATOM     18  C   UNL     1       2.213   3.776  21.711  0.00  0.00    +0.000 C 
BRANCH  18  20
ATOM     19  O   UNL     1       0.450   4.720  20.412  0.00  0.00    +0.000 OA
ATOM     20  C   UNL     1       1.572   4.896  20.894  0.00  0.00    +0.000 C 
ATOM     21  N   UNL     1       2.330   6.041  20.793  0.00  0.00    +0.000 N 
ATOM     22  H   UNL     1       3.254   5.990  21.211  0.00  0.00    +0.000 HD
BRANCH  21  23
ATOM     23  C   UNL     1       1.956   7.263  20.190  0.00  0.00    +0.000 A 
ATOM     24  C   UNL     1       2.260   7.607  18.854  0.00  0.00    +0.000 A 
ATOM     25  C   UNL     1       1.865   8.839  18.312  0.00  0.00    +0.000 A 
ATOM     26  C   UNL     1       1.139   9.688  19.112  0.00  0.00    +0.000 A 
ATOM     27  C   UNL     1       0.821   9.355  20.406  0.00  0.00    +0.000 A 
ATOM     28  C   UNL     1       1.224   8.163  20.975  0.00  0.00    +0.000 A 
ATOM     29  O   UNL     1       0.067  10.312  21.013  0.00  0.00    +0.000 OA
ATOM     30  C   UNL     1      -0.115  11.243  19.926  0.00  0.00    +0.000 C 
ATOM     31  O   UNL     1       0.641  10.898  18.747  0.00  0.00    +0.000 OA
ENDBRANCH  21  23
ENDBRANCH  18  20
ENDBRANCH  17  18
ENDBRANCH   1  17
TORSDOF 6
ENDMDL
MODEL 4
REMARK VINA RESULT:      -8.5      0.775      1.341
REMARK  Name = 
REMARK  6 active torsions:
REMARK  status: ('A' for Active; 'I' for Inactive)
REMARK    1  A    between atoms: C_2  and  C_3
REMARK    2  A    between atoms: C_3  and  O_4
REMARK    3  A    between atoms: O_4  and  C_5
REMARK    4  A    between atoms: C_8  and  N_9
REMARK    5  A    between atoms: C_10  and  C_12
REMARK    6  A    between atoms: N_20  and  C_21
REMARK                            x       y       z     vdW  Elec       q    Type
REMARK                         _______ _______ _______ _____ _____    ______ ____
ROOT
ATOM      1  C   UNL     1       6.145   5.267  17.299  0.00  0.00    +0.000 A 
ATOM      2  C   UNL     1       7.125   4.937  18.227  0.00  0.00    +0.000 A 
ATOM      3  C   UNL     1       7.977   5.927  18.726  0.00  0.00    +0.000 A 
ATOM      4  C   UNL     1       7.886   7.254  18.291  0.00  0.00    +0.000 A 
ATOM      5  C   UNL     1       6.943   7.566  17.310  0.00  0.00    +0.000 A 
ATOM      6  C   UNL     1       6.087   6.578  16.810  0.00  0.00    +0.000 A 
ENDROOT
BRANCH   4   7
ATOM      7  N   UNL     1       8.695   8.299  18.794  0.00  0.00    +0.000 N 
ATOM      8  C   UNL     1       8.630   9.628  18.412  0.00  0.00    +0.000 C 
ATOM      9  O   UNL     1       7.837  10.107  17.601  0.00  0.00    +0.000 OA
ATOM     10  H   UNL     1       9.359   8.041  19.513  0.00  0.00    +0.000 HD
BRANCH   8  11
ATOM     11  C   UNL     1       9.591  10.572  19.034  0.00  0.00    +0.000 A 
ATOM     12  C   UNL     1      10.607  11.211  18.314  0.00  0.00    +0.000 A 
ATOM     13  C   UNL     1      11.408  12.162  18.951  0.00  0.00    +0.000 A 
ATOM     14  C   UNL     1      11.202  12.480  20.295  0.00  0.00    +0.000 A 
ATOM     15  C   UNL     1      10.192  11.846  21.015  0.00  0.00    +0.000 A 
ATOM     16  C   UNL     1       9.392  10.896  20.387  0.00  0.00    +0.000 A 
ENDBRANCH   8  11
ENDBRANCH   4   7
BRANCH   1  17
ATOM     17  O   UNL     1       5.264   4.273  16.937  0.00  0.00    +0.000 OA
BRANCH  17  18
ATOM     18  C   UNL     1       4.308   3.987  17.955  0.00  0.00    +0.000 C 
BRANCH  18  20
ATOM     19  O   UNL     1       4.208   5.345  19.912  0.00  0.00    +0.000 OA
ATOM     20  C   UNL     1       3.795   5.178  18.761  0.00  0.00    +0.000 C 
ATOM     21  N   UNL     1       2.908   5.989  18.091  0.00  0.00    +0.000 N 
ATOM     22  H   UNL     1       2.641   5.669  17.164  0.00  0.00    +0.000 HD
BRANCH  21  23
ATOM     23  C   UNL     1       2.351   7.206  18.543  0.00  0.00    +0.000 A 
ATOM     24  C   UNL     1       2.086   8.310  17.703  0.00  0.00    +0.000 A 
ATOM     25  C   UNL     1       1.535   9.496  18.211  0.00  0.00    +0.000 A 
ATOM     26  C   UNL     1       1.226   9.536  19.550  0.00  0.00    +0.000 A 
ATOM     27  C   UNL     1       1.461   8.461  20.371  0.00  0.00    +0.000 A 
ATOM     28  C   UNL     1       2.031   7.294  19.904  0.00  0.00    +0.000 A 
ATOM     29  O   UNL     1       1.049   8.691  21.648  0.00  0.00    +0.000 OA
ATOM     30  C   UNL     1       0.459  10.000  21.512  0.00  0.00    +0.000 C 
ATOM     31  O   UNL     1       0.653  10.580  20.205  0.00  0.00    +0.000 OA
ENDBRANCH  21  23
ENDBRANCH  18  20
ENDBRANCH  17  18
ENDBRANCH   1  17
TORSDOF 6
ENDMDL
MODEL 5
REMARK VINA RESULT:      -8.4      0.816      1.858
REMARK  Name = 
REMARK  6 active torsions:
REMARK  status: ('A' for Active; 'I' for Inactive)
REMARK    1  A    between atoms: C_2  and  C_3
REMARK    2  A    between atoms: C_3  and  O_4
REMARK    3  A    between atoms: O_4  and  C_5
REMARK    4  A    between atoms: C_8  and  N_9
REMARK    5  A    between atoms: C_10  and  C_12
REMARK    6  A    between atoms: N_20  and  C_21
REMARK                            x       y       z     vdW  Elec       q    Type
REMARK                         _______ _______ _______ _____ _____    ______ ____
ROOT
ATOM      1  C   UNL     1       6.323   5.312  17.502  0.00  0.00    +0.000 A 
ATOM      2  C   UNL     1       6.203   6.546  16.876  0.00  0.00    +0.000 A 
ATOM      3  C   UNL     1       7.013   7.614  17.274  0.00  0.00    +0.000 A 
ATOM      4  C   UNL     1       7.936   7.479  18.318  0.00  0.00    +0.000 A 
ATOM      5  C   UNL     1       8.005   6.255  18.986  0.00  0.00    +0.000 A 
ATOM      6  C   UNL     1       7.198   5.184  18.588  0.00  0.00    +0.000 A 
ENDROOT
BRANCH   4   7
ATOM      7  N   UNL     1       8.807   8.514  18.730  0.00  0.00    +0.000 N 
ATOM      8  C   UNL     1       8.708   9.846  18.370  0.00  0.00    +0.000 C 
ATOM      9  O   UNL     1       7.828  10.339  17.663  0.00  0.00    +0.000 OA
ATOM     10  H   UNL     1       9.549   8.244  19.364  0.00  0.00    +0.000 HD
BRANCH   8  11
ATOM     11  C   UNL     1       9.743  10.778  18.883  0.00  0.00    +0.000 A 
ATOM     12  C   UNL     1       9.856  11.121  20.235  0.00  0.00    +0.000 A 
ATOM     13  C   UNL     1      10.919  11.926  20.654  0.00  0.00    +0.000 A 
ATOM     14  C   UNL     1      11.866  12.386  19.737  0.00  0.00    +0.000 A 
ATOM     15  C   UNL     1      11.756  12.047  18.391  0.00  0.00    +0.000 A 
ATOM     16  C   UNL     1      10.699  11.248  17.967  0.00  0.00    +0.000 A 
ENDBRANCH   8  11
ENDBRANCH   4   7
BRANCH   1  17
ATOM     17  O   UNL     1       5.583   4.273  16.986  0.00  0.00    +0.000 OA
BRANCH  17  18
ATOM     18  C   UNL     1       4.550   3.838  17.867  0.00  0.00    +0.000 C 
BRANCH  18  20
ATOM     19  O   UNL     1       3.973   4.893  19.927  0.00  0.00    +0.000 OA
ATOM     20  C   UNL     1       3.865   4.921  18.697  0.00  0.00    +0.000 C 
ATOM     21  N   UNL     1       3.190   5.869  17.962  0.00  0.00    +0.000 N 
ATOM     22  H   UNL     1       3.164   5.706  16.960  0.00  0.00    +0.000 HD
BRANCH  21  23
ATOM     23  C   UNL     1       2.553   7.034  18.447  0.00  0.00    +0.000 A 
ATOM     24  C   UNL     1       2.235   8.150  17.642  0.00  0.00    +0.000 A 
ATOM     25  C   UNL     1       1.604   9.281  18.181  0.00  0.00    +0.000 A 
ATOM     26  C   UNL     1       1.271   9.254  19.514  0.00  0.00    +0.000 A 
ATOM     27  C   UNL     1       1.557   8.165  20.301  0.00  0.00    +0.000 A 
ATOM     28  C   UNL     1       2.205   7.052  19.804  0.00  0.00    +0.000 A 
ATOM     29  O   UNL     1       1.111   8.322  21.578  0.00  0.00    +0.000 OA
ATOM     30  C   UNL     1       0.444   9.598  21.477  0.00  0.00    +0.000 C 
ATOM     31  O   UNL     1       0.625  10.236  20.195  0.00  0.00    +0.000 OA
ENDBRANCH  21  23
ENDBRANCH  18  20
ENDBRANCH  17  18
ENDBRANCH   1  17
TORSDOF 6
ENDMDL
MODEL 6
REMARK VINA RESULT:      -8.3      4.728      5.945
REMARK  Name = 
REMARK  6 active torsions:
REMARK  status: ('A' for Active; 'I' for Inactive)
REMARK    1  A    between atoms: C_2  and  C_3
REMARK    2  A    between atoms: C_3  and  O_4
REMARK    3  A    between atoms: O_4  and  C_5
REMARK    4  A    between atoms: C_8  and  N_9
REMARK    5  A    between atoms: C_10  and  C_12
REMARK    6  A    between atoms: N_20  and  C_21
REMARK                            x       y       z     vdW  Elec       q    Type
REMARK                         _______ _______ _______ _____ _____    ______ ____
ROOT
ATOM      1  C   UNL     1       3.565   2.762  20.150  0.00  0.00    +0.000 A 
ATOM      2  C   UNL     1       4.590   3.682  19.971  0.00  0.00    +0.000 A 
ATOM      3  C   UNL     1       5.131   3.888  18.698  0.00  0.00    +0.000 A 
ATOM      4  C   UNL     1       4.679   3.164  17.589  0.00  0.00    +0.000 A 
ATOM      5  C   UNL     1       3.694   2.194  17.787  0.00  0.00    +0.000 A 
ATOM      6  C   UNL     1       3.150   1.987  19.060  0.00  0.00    +0.000 A 
ENDROOT
BRANCH   4   7
ATOM      7  N   UNL     1       5.163   3.363  16.275  0.00  0.00    +0.000 N 
ATOM      8  C   UNL     1       6.057   4.345  15.883  0.00  0.00    +0.000 C 
ATOM      9  O   UNL     1       6.592   5.171  16.623  0.00  0.00    +0.000 OA
ATOM     10  H   UNL     1       4.835   2.709  15.576  0.00  0.00    +0.000 HD
BRANCH   8  11
ATOM     11  C   UNL     1       6.419   4.412  14.445  0.00  0.00    +0.000 A 
ATOM     12  C   UNL     1       7.443   5.231  13.955  0.00  0.00    +0.000 A 
ATOM     13  C   UNL     1       7.791   5.163  12.603  0.00  0.00    +0.000 A 
ATOM     14  C   UNL     1       7.128   4.286  11.742  0.00  0.00    +0.000 A 
ATOM     15  C   UNL     1       6.108   3.470  12.226  0.00  0.00    +0.000 A 
ATOM     16  C   UNL     1       5.756   3.534  13.571  0.00  0.00    +0.000 A 
ENDBRANCH   8  11
ENDBRANCH   4   7
BRANCH   1  17
ATOM     17  O   UNL     1       2.996   2.692  21.401  0.00  0.00    +0.000 OA
BRANCH  17  18
ATOM     18  C   UNL     1       1.740   3.362  21.475  0.00  0.00    +0.000 C 
BRANCH  18  20
ATOM     19  O   UNL     1       0.820   4.250  19.462  0.00  0.00    +0.000 OA
ATOM     20  C   UNL     1       1.505   4.481  20.462  0.00  0.00    +0.000 C 
ATOM     21  N   UNL     1       2.085   5.685  20.790  0.00  0.00    +0.000 N 
ATOM     22  H   UNL     1       2.659   5.679  21.628  0.00  0.00    +0.000 HD
BRANCH  21  23
ATOM     23  C   UNL     1       1.955   6.912  20.101  0.00  0.00    +0.000 A 
ATOM     24  C   UNL     1       2.407   7.124  18.779  0.00  0.00    +0.000 A 
ATOM     25  C   UNL     1       2.254   8.367  18.148  0.00  0.00    +0.000 A 
ATOM     26  C   UNL     1       1.614   9.365  18.844  0.00  0.00    +0.000 A 
ATOM     27  C   UNL     1       1.154   9.163  20.122  0.00  0.00    +0.000 A 
ATOM     28  C   UNL     1       1.319   7.960  20.779  0.00  0.00    +0.000 A 
ATOM     29  O   UNL     1       0.519  10.260  20.619  0.00  0.00    +0.000 OA
ATOM     30  C   UNL     1       0.566  11.141  19.476  0.00  0.00    +0.000 C 
ATOM     31  O   UNL     1       1.343  10.613  18.381  0.00  0.00    +0.000 OA
ENDBRANCH  21  23
ENDBRANCH  18  20
ENDBRANCH  17  18
ENDBRANCH   1  17
TORSDOF 6
ENDMDL
MODEL 7
REMARK VINA RESULT:      -8.2      1.233      1.514
REMARK  Name = 
REMARK  6 active torsions:
REMARK  status: ('A' for Active; 'I' for Inactive)
REMARK    1  A    between atoms: C_2  and  C_3
REMARK    2  A    between atoms: C_3  and  O_4
REMARK    3  A    between atoms: O_4  and  C_5
REMARK    4  A    between atoms: C_8  and  N_9
REMARK    5  A    between atoms: C_10  and  C_12
REMARK    6  A    between atoms: N_20  and  C_21
REMARK                            x       y       z     vdW  Elec       q    Type
REMARK                         _______ _______ _______ _____ _____    ______ ____
ROOT
ATOM      1  C   UNL     1       6.433   5.527  18.325  0.00  0.00    +0.000 A 
ATOM      2  C   UNL     1       7.557   5.844  19.076  0.00  0.00    +0.000 A 
ATOM      3  C   UNL     1       8.237   7.044  18.845  0.00  0.00    +0.000 A 
ATOM      4  C   UNL     1       7.824   7.935  17.847  0.00  0.00    +0.000 A 
ATOM      5  C   UNL     1       6.733   7.579  17.052  0.00  0.00    +0.000 A 
ATOM      6  C   UNL     1       6.050   6.380  17.282  0.00  0.00    +0.000 A 
ENDROOT
BRANCH   4   7
ATOM      7  N   UNL     1       8.450   9.179  17.601  0.00  0.00    +0.000 N 
ATOM      8  C   UNL     1       8.942  10.042  18.566  0.00  0.00    +0.000 C 
ATOM      9  O   UNL     1       8.938   9.842  19.781  0.00  0.00    +0.000 OA
ATOM     10  H   UNL     1       8.563   9.436  16.629  0.00  0.00    +0.000 HD
BRANCH   8  11
ATOM     11  C   UNL     1       9.537  11.321  18.107  0.00  0.00    +0.000 A 
ATOM     12  C   UNL     1       8.788  12.489  17.924  0.00  0.00    +0.000 A 
ATOM     13  C   UNL     1       9.438  13.678  17.586  0.00  0.00    +0.000 A 
ATOM     14  C   UNL     1      10.826  13.711  17.433  0.00  0.00    +0.000 A 
ATOM     15  C   UNL     1      11.575  12.551  17.615  0.00  0.00    +0.000 A 
ATOM     16  C   UNL     1      10.933  11.362  17.948  0.00  0.00    +0.000 A 
ENDBRANCH   8  11
ENDBRANCH   4   7
BRANCH   1  17
ATOM     17  O   UNL     1       5.742   4.391  18.680  0.00  0.00    +0.000 OA
BRANCH  17  18
ATOM     18  C   UNL     1       4.368   4.439  18.302  0.00  0.00    +0.000 C 
BRANCH  18  20
ATOM     19  O   UNL     1       3.189   4.842  20.335  0.00  0.00    +0.000 OA
ATOM     20  C   UNL     1       3.443   5.257  19.201  0.00  0.00    +0.000 C 
ATOM     21  N   UNL     1       2.988   6.430  18.643  0.00  0.00    +0.000 N 
ATOM     22  H   UNL     1       3.260   6.587  17.677  0.00  0.00    +0.000 HD
BRANCH  21  23
ATOM     23  C   UNL     1       2.208   7.429  19.269  0.00  0.00    +0.000 A 
ATOM     24  C   UNL     1       1.775   7.362  20.611  0.00  0.00    +0.000 A 
ATOM     25  C   UNL     1       0.998   8.384  21.178  0.00  0.00    +0.000 A 
ATOM     26  C   UNL     1       0.703   9.473  20.394  0.00  0.00    +0.000 A 
ATOM     27  C   UNL     1       1.137   9.557  19.093  0.00  0.00    +0.000 A 
ATOM     28  C   UNL     1       1.875   8.553  18.501  0.00  0.00    +0.000 A 
ATOM     29  O   UNL     1       0.772  10.729  18.505  0.00  0.00    +0.000 OA
ATOM     30  C   UNL     1       0.130  11.399  19.610  0.00  0.00    +0.000 C 
ATOM     31  O   UNL     1      -0.000  10.569  20.782  0.00  0.00    +0.000 OA
ENDBRANCH  21  23
ENDBRANCH  18  20
ENDBRANCH  17  18
ENDBRANCH   1  17
TORSDOF 6
ENDMDL
MODEL 8
REMARK VINA RESULT:      -8.1      0.654      1.079
REMARK  Name = 
REMARK  6 active torsions:
REMARK  status: ('A' for Active; 'I' for Inactive)
REMARK    1  A    between atoms: C_2  and  C_3
REMARK    2  A    between atoms: C_3  and  O_4
REMARK    3  A    between atoms: O_4  and  C_5
REMARK    4  A    between atoms: C_8  and  N_9
REMARK    5  A    between atoms: C_10  and  C_12
REMARK    6  A    between atoms: N_20  and  C_21
REMARK                            x       y       z     vdW  Elec       q    Type
REMARK                         _______ _______ _______ _____ _____    ______ ____
ROOT
ATOM      1  C   UNL     1       6.458   5.055  17.396  0.00  0.00    +0.000 A 
ATOM      2  C   UNL     1       6.247   6.317  16.854  0.00  0.00    +0.000 A 
ATOM      3  C   UNL     1       6.982   7.410  17.321  0.00  0.00    +0.000 A 
ATOM      4  C   UNL     1       7.920   7.272  18.351  0.00  0.00    +0.000 A 
ATOM      5  C   UNL     1       8.080   6.015  18.936  0.00  0.00    +0.000 A 
ATOM      6  C   UNL     1       7.347   4.918  18.469  0.00  0.00    +0.000 A 
ENDROOT
BRANCH   4   7
ATOM      7  N   UNL     1       8.718   8.337  18.830  0.00  0.00    +0.000 N 
ATOM      8  C   UNL     1       8.643   9.655  18.414  0.00  0.00    +0.000 C 
ATOM      9  O   UNL     1       7.848  10.107  17.589  0.00  0.00    +0.000 OA
ATOM     10  H   UNL     1       9.382   8.103  19.557  0.00  0.00    +0.000 HD
BRANCH   8  11
ATOM     11  C   UNL     1       9.593  10.623  19.015  0.00  0.00    +0.000 A 
ATOM     12  C   UNL     1      10.573  11.291  18.272  0.00  0.00    +0.000 A 
ATOM     13  C   UNL     1      11.365  12.261  18.892  0.00  0.00    +0.000 A 
ATOM     14  C   UNL     1      11.183  12.570  20.241  0.00  0.00    +0.000 A 
ATOM     15  C   UNL     1      10.209  11.908  20.984  0.00  0.00    +0.000 A 
ATOM     16  C   UNL     1       9.419  10.938  20.373  0.00  0.00    +0.000 A 
ENDBRANCH   8  11
ENDBRANCH   4   7
BRANCH   1  17
ATOM     17  O   UNL     1       5.790   4.002  16.813  0.00  0.00    +0.000 OA
BRANCH  17  18
ATOM     18  C   UNL     1       4.526   3.747  17.420  0.00  0.00    +0.000 C 
BRANCH  18  20
ATOM     19  O   UNL     1       4.525   4.807  19.556  0.00  0.00    +0.000 OA
ATOM     20  C   UNL     1       4.031   4.785  18.425  0.00  0.00    +0.000 C 
ATOM     21  N   UNL     1       3.065   5.638  17.943  0.00  0.00    +0.000 N 
ATOM     22  H   UNL     1       2.740   5.440  17.001  0.00  0.00    +0.000 HD
BRANCH  21  23
ATOM     23  C   UNL     1       2.498   6.750  18.605  0.00  0.00    +0.000 A 
ATOM     24  C   UNL     1       2.167   6.763  19.978  0.00  0.00    +0.000 A 
ATOM     25  C   UNL     1       1.602   7.898  20.581  0.00  0.00    +0.000 A 
ATOM     26  C   UNL     1       1.416   9.012  19.798  0.00  0.00    +0.000 A 
ATOM     27  C   UNL     1       1.753   9.017  18.467  0.00  0.00    +0.000 A 
ATOM     28  C   UNL     1       2.281   7.905  17.841  0.00  0.00    +0.000 A 
ATOM     29  O   UNL     1       1.526  10.225  17.883  0.00  0.00    +0.000 OA
ATOM     30  C   UNL     1       1.083  10.996  19.020  0.00  0.00    +0.000 C 
ATOM     31  O   UNL     1       0.921  10.206  20.216  0.00  0.00    +0.000 OA
ENDBRANCH  21  23
ENDBRANCH  18  20
ENDBRANCH  17  18
ENDBRANCH   1  17
TORSDOF 6
ENDMDL
MODEL 9
REMARK VINA RESULT:      -8.0      3.282      9.537
REMARK  Name = 
REMARK  6 active torsions:
REMARK  status: ('A' for Active; 'I' for Inactive)
REMARK    1  A    between atoms: C_2  and  C_3
REMARK    2  A    between atoms: C_3  and  O_4
REMARK    3  A    between atoms: O_4  and  C_5
REMARK    4  A    between atoms: C_8  and  N_9
REMARK    5  A    between atoms: C_10  and  C_12
REMARK    6  A    between atoms: N_20  and  C_21
REMARK                            x       y       z     vdW  Elec       q    Type
REMARK                         _______ _______ _______ _____ _____    ______ ____
ROOT
ATOM      1  C   UNL     1       8.064   7.664  18.259  0.00  0.00    +0.000 A 
ATOM      2  C   UNL     1       7.019   7.872  17.368  0.00  0.00    +0.000 A 
ATOM      3  C   UNL     1       5.938   6.984  17.339  0.00  0.00    +0.000 A 
ATOM      4  C   UNL     1       5.893   5.863  18.175  0.00  0.00    +0.000 A 
ATOM      5  C   UNL     1       6.978   5.625  19.021  0.00  0.00    +0.000 A 
ATOM      6  C   UNL     1       8.060   6.512  19.054  0.00  0.00    +0.000 A 
ENDROOT
BRANCH   4   7
ATOM      7  N   UNL     1       4.807   4.960  18.214  0.00  0.00    +0.000 N 
ATOM      8  C   UNL     1       3.622   5.148  18.904  0.00  0.00    +0.000 C 
ATOM      9  O   UNL     1       3.321   6.145  19.562  0.00  0.00    +0.000 OA
ATOM     10  H   UNL     1       4.910   4.116  17.664  0.00  0.00    +0.000 HD
BRANCH   8  11
ATOM     11  C   UNL     1       2.611   4.063  18.847  0.00  0.00    +0.000 A 
ATOM     12  C   UNL     1       2.740   2.944  18.017  0.00  0.00    +0.000 A 
ATOM     13  C   UNL     1       1.795   1.918  18.094  0.00  0.00    +0.000 A 
ATOM     14  C   UNL     1       0.729   1.999  18.992  0.00  0.00    +0.000 A 
ATOM     15  C   UNL     1       0.597   3.111  19.819  0.00  0.00    +0.000 A 
ATOM     16  C   UNL     1       1.533   4.138  19.746  0.00  0.00    +0.000 A 
ENDBRANCH   8  11
ENDBRANCH   4   7
BRANCH   1  17
ATOM     17  O   UNL     1       9.037   8.636  18.321  0.00  0.00    +0.000 OA
BRANCH  17  18
ATOM     18  C   UNL     1       8.519   9.949  18.123  0.00  0.00    +0.000 C 
BRANCH  18  20
ATOM     19  O   UNL     1      10.347  10.952  19.282  0.00  0.00    +0.000 OA
ATOM     20  C   UNL     1       9.466  11.107  18.431  0.00  0.00    +0.000 C 
ATOM     21  N   UNL     1       9.249  12.243  17.684  0.00  0.00    +0.000 N 
ATOM     22  H   UNL     1       8.444  12.209  17.065  0.00  0.00    +0.000 HD
BRANCH  21  23
ATOM     23  C   UNL     1      10.024  13.425  17.679  0.00  0.00    +0.000 A 
ATOM     24  C   UNL     1      11.240  13.564  16.975  0.00  0.00    +0.000 A 
ATOM     25  C   UNL     1      11.968  14.763  17.010  0.00  0.00    +0.000 A 
ATOM     26  C   UNL     1      11.440  15.812  17.723  0.00  0.00    +0.000 A 
ATOM     27  C   UNL     1      10.248  15.693  18.394  0.00  0.00    +0.000 A 
ATOM     28  C   UNL     1       9.526  14.516  18.402  0.00  0.00    +0.000 A 
ATOM     29  O   UNL     1       9.882  16.855  19.003  0.00  0.00    +0.000 OA
ATOM     30  C   UNL     1      10.942  17.733  18.570  0.00  0.00    +0.000 C 
ATOM     31  O   UNL     1      11.982  17.053  17.836  0.00  0.00    +0.000 OA
ENDBRANCH  21  23
ENDBRANCH  18  20
ENDBRANCH  17  18
ENDBRANCH   1  17
TORSDOF 6
ENDMDL
