MODEL 1
REMARK VINA RESULT:      -8.2      0.000      0.000
REMARK  Name = 
REMARK  5 active torsions:
REMARK  status: ('A' for Active; 'I' for Inactive)
REMARK    1  A    between atoms: C_1  and  S_2
REMARK    2  A    between atoms: S_2  and  C_5
REMARK    3  A    between atoms: C_5  and  C_6
REMARK    4  A    between atoms: C_8  and  C_9
REMARK    5  A    between atoms: C_9  and  C_10
REMARK                            x       y       z     vdW  Elec       q    Type
REMARK                         _______ _______ _______ _____ _____    ______ ____
ROOT
ATOM      1  C   UNL     1       1.189   8.475  20.158  0.00  0.00    +0.000 A 
ATOM      2  N   UNL     1       1.125   7.266  20.674  0.00  0.00    +0.000 NA
ATOM      3  C   UNL     1       2.004   6.550  19.888  0.00  0.00    +0.000 A 
ATOM      4  N   UNL     1       2.605   7.282  18.939  0.00  0.00    +0.000 NA
ATOM      5  O   UNL     1       2.061   8.557  19.111  0.00  0.00    +0.000 OA
ENDROOT
BRANCH   1   6
ATOM      6  C   UNL     1       0.457   9.707  20.568  0.00  0.00    +0.000 C 
ATOM      7  C   UNL     1       1.255  10.977  20.239  0.00  0.00    +0.000 C 
ATOM      8  C   UNL     1       0.911  11.306  18.785  0.00  0.00    +0.000 C 
ATOM      9  C   UNL     1      -0.387  10.566  18.470  0.00  0.00    +0.000 C 
ATOM     10  C   UNL     1      -0.841   9.949  19.787  0.00  0.00    +0.000 C 
BRANCH   6  12
ATOM     11  C   UNL     1      -0.758  11.009  22.813  0.00  0.00    +0.000 C 
ATOM     12  S   UNL     1       0.123   9.538  22.327  0.00  0.00    +0.000 S 
ATOM     13  O   UNL     1       1.382   9.525  23.049  0.00  0.00    +0.000 OA
ATOM     14  O   UNL     1      -0.807   8.432  22.504  0.00  0.00    +0.000 OA
ENDBRANCH   6  12
ENDBRANCH   1   6
BRANCH   3  15
ATOM     15  C   UNL     1       2.164   5.060  20.019  0.00  0.00    +0.000 C 
ATOM     16  C   UNL     1       0.815   4.295  20.098  0.00  0.00    +0.000 C 
ATOM     17  C   UNL     1       1.138   2.955  20.765  0.00  0.00    +0.000 C 
ATOM     18  C   UNL     1       2.407   3.194  21.573  0.00  0.00    +0.000 C 
ATOM     19  C   UNL     1       2.681   4.685  21.439  0.00  0.00    +0.000 C 
BRANCH  15  20
ATOM     20  C   UNL     1       3.081   4.659  18.857  0.00  0.00    +0.000 A 
ATOM     21  C   UNL     1       4.477   4.817  18.907  0.00  0.00    +0.000 A 
ATOM     22  F   UNL     1       5.066   5.411  19.953  0.00  0.00    +0.000 F 
ATOM     23  C   UNL     1       5.325   4.388  17.880  0.00  0.00    +0.000 A 
ATOM     24  C   UNL     1       4.798   3.804  16.736  0.00  0.00    +0.000 A 
ATOM     25  C   UNL     1       3.420   3.684  16.621  0.00  0.00    +0.000 A 
ATOM     26  C   UNL     1       2.585   4.118  17.656  0.00  0.00    +0.000 A 
ATOM     27  F   UNL     1       1.269   4.008  17.441  0.00  0.00    +0.000 F 
ENDBRANCH  15  20
ENDBRANCH   3  15
TORSDOF 4
ENDMDL
MODEL 2
REMARK VINA RESULT:      -8.0      1.167      2.998
REMARK  Name = 
REMARK  5 active torsions:
REMARK  status: ('A' for Active; 'I' for Inactive)
REMARK    1  A    between atoms: C_1  and  S_2
REMARK    2  A    between atoms: S_2  and  C_5
REMARK    3  A    between atoms: C_5  and  C_6
REMARK    4  A    between atoms: C_8  and  C_9
REMARK    5  A    between atoms: C_9  and  C_10
REMARK                            x       y       z     vdW  Elec       q    Type
REMARK                         _______ _______ _______ _____ _____    ______ ____
ROOT
ATOM      1  C   UNL     1       1.312   8.779  19.399  0.00  0.00    +0.000 A 
ATOM      2  N   UNL     1       2.052   7.787  19.847  0.00  0.00    +0.000 NA
ATOM      3  C   UNL     1       2.520   7.205  18.687  0.00  0.00    +0.000 A 
ATOM      4  N   UNL     1       2.110   7.818  17.568  0.00  0.00    +0.000 NA
ATOM      5  O   UNL     1       1.303   8.856  18.036  0.00  0.00    +0.000 OA
ENDROOT
BRANCH   1   6
ATOM      6  C   UNL     1       0.524   9.781  20.171  0.00  0.00    +0.000 C 
ATOM      7  C   UNL     1       1.232  11.143  20.221  0.00  0.00    +0.000 C 
ATOM      8  C   UNL     1       0.815  11.864  18.938  0.00  0.00    +0.000 C 
ATOM      9  C   UNL     1      -0.448  11.164  18.441  0.00  0.00    +0.000 C 
ATOM     10  C   UNL     1      -0.814  10.154  19.522  0.00  0.00    +0.000 C 
BRANCH   6  12
ATOM     11  C   UNL     1      -0.633  10.295  22.742  0.00  0.00    +0.000 C 
ATOM     12  S   UNL     1       0.267   9.076  21.805  0.00  0.00    +0.000 S 
ATOM     13  O   UNL     1       1.555   8.895  22.451  0.00  0.00    +0.000 OA
ATOM     14  O   UNL     1      -0.622   7.932  21.667  0.00  0.00    +0.000 OA
ENDBRANCH   6  12
ENDBRANCH   1   6
BRANCH   3  15
ATOM     15  C   UNL     1       3.315   5.927  18.696  0.00  0.00    +0.000 C 
ATOM     16  C   UNL     1       4.622   6.015  19.530  0.00  0.00    +0.000 C 
ATOM     17  C   UNL     1       5.529   4.903  18.995  0.00  0.00    +0.000 C 
ATOM     18  C   UNL     1       5.053   4.633  17.573  0.00  0.00    +0.000 C 
ATOM     19  C   UNL     1       3.985   5.686  17.312  0.00  0.00    +0.000 C 
BRANCH  15  20
ATOM     20  C   UNL     1       2.320   4.849  19.144  0.00  0.00    +0.000 A 
ATOM     21  C   UNL     1       1.551   4.106  18.232  0.00  0.00    +0.000 A 
ATOM     22  F   UNL     1       1.593   4.370  16.919  0.00  0.00    +0.000 F 
ATOM     23  C   UNL     1       0.695   3.072  18.629  0.00  0.00    +0.000 A 
ATOM     24  C   UNL     1       0.553   2.761  19.974  0.00  0.00    +0.000 A 
ATOM     25  C   UNL     1       1.249   3.511  20.912  0.00  0.00    +0.000 A 
ATOM     26  C   UNL     1       2.101   4.542  20.499  0.00  0.00    +0.000 A 
ATOM     27  F   UNL     1       2.695   5.243  21.471  0.00  0.00    +0.000 F 
ENDBRANCH  15  20
ENDBRANCH   3  15
TORSDOF 4
ENDMDL
MODEL 3
REMARK VINA RESULT:      -8.0      0.095      1.590
REMARK  Name = 
REMARK  5 active torsions:
REMARK  status: ('A' for Active; 'I' for Inactive)
REMARK    1  A    between atoms: C_1  and  S_2
REMARK    2  A    between atoms: S_2  and  C_5
REMARK    3  A    between atoms: C_5  and  C_6
REMARK    4  A    between atoms: C_8  and  C_9
REMARK    5  A    between atoms: C_9  and  C_10
REMARK                            x       y       z     vdW  Elec       q    Type
REMARK                         _______ _______ _______ _____ _____    ______ ____
ROOT
ATOM      1  C   UNL     1       1.207   8.445  20.157  0.00  0.00    +0.000 A 
ATOM      2  N   UNL     1       1.135   7.237  20.673  0.00  0.00    +0.000 NA
ATOM      3  C   UNL     1       2.015   6.516  19.891  0.00  0.00    +0.000 A 
ATOM      4  N   UNL     1       2.624   7.245  18.945  0.00  0.00    +0.000 NA
ATOM      5  O   UNL     1       2.085   8.522  19.113  0.00  0.00    +0.000 OA
ENDROOT
BRANCH   1   6
ATOM      6  C   UNL     1       0.479   9.680  20.563  0.00  0.00    +0.000 C 
ATOM      7  C   UNL     1       1.280  10.947  20.227  0.00  0.00    +0.000 C 
ATOM      8  C   UNL     1       0.934  11.270  18.772  0.00  0.00    +0.000 C 
ATOM      9  C   UNL     1      -0.366  10.532  18.462  0.00  0.00    +0.000 C 
ATOM     10  C   UNL     1      -0.820   9.922  19.783  0.00  0.00    +0.000 C 
BRANCH   6  12
ATOM     11  C   UNL     1      -0.741  10.989  22.802  0.00  0.00    +0.000 C 
ATOM     12  S   UNL     1       0.147   9.519  22.322  0.00  0.00    +0.000 S 
ATOM     13  O   UNL     1       1.407   9.518  23.043  0.00  0.00    +0.000 OA
ATOM     14  O   UNL     1      -0.776   8.410  22.507  0.00  0.00    +0.000 OA
ENDBRANCH   6  12
ENDBRANCH   1   6
BRANCH   3  15
ATOM     15  C   UNL     1       2.168   5.025  20.024  0.00  0.00    +0.000 C 
ATOM     16  C   UNL     1       0.815   4.268  20.113  0.00  0.00    +0.000 C 
ATOM     17  C   UNL     1       1.135   2.928  20.780  0.00  0.00    +0.000 C 
ATOM     18  C   UNL     1       2.412   3.160  21.580  0.00  0.00    +0.000 C 
ATOM     19  C   UNL     1       2.693   4.650  21.441  0.00  0.00    +0.000 C 
BRANCH  15  20
ATOM     20  C   UNL     1       3.075   4.617  18.856  0.00  0.00    +0.000 A 
ATOM     21  C   UNL     1       2.577   4.012  17.689  0.00  0.00    +0.000 A 
ATOM     22  F   UNL     1       1.283   3.686  17.580  0.00  0.00    +0.000 F 
ATOM     23  C   UNL     1       3.388   3.703  16.592  0.00  0.00    +0.000 A 
ATOM     24  C   UNL     1       4.751   3.963  16.635  0.00  0.00    +0.000 A 
ATOM     25  C   UNL     1       5.293   4.503  17.793  0.00  0.00    +0.000 A 
ATOM     26  C   UNL     1       4.469   4.807  18.882  0.00  0.00    +0.000 A 
ATOM     27  F   UNL     1       5.081   5.281  19.973  0.00  0.00    +0.000 F 
ENDBRANCH  15  20
ENDBRANCH   3  15
TORSDOF 4
ENDMDL
MODEL 4
REMARK VINA RESULT:      -7.9      2.072      3.758
REMARK  Name = 
REMARK  5 active torsions:
REMARK  status: ('A' for Active; 'I' for Inactive)
REMARK    1  A    between atoms: C_1  and  S_2
REMARK    2  A    between atoms: S_2  and  C_5
REMARK    3  A    between atoms: C_5  and  C_6
REMARK    4  A    between atoms: C_8  and  C_9
REMARK    5  A    between atoms: C_9  and  C_10
REMARK                            x       y       z     vdW  Elec       q    Type
REMARK                         _______ _______ _______ _____ _____    ______ ____
ROOT
ATOM      1  C   UNL     1       1.534   8.708  19.282  0.00  0.00    +0.000 A 
ATOM      2  N   UNL     1       2.352   7.772  19.713  0.00  0.00    +0.000 NA
ATOM      3  C   UNL     1       2.588   7.025  18.577  0.00  0.00    +0.000 A 
ATOM      4  N   UNL     1       1.965   7.485  17.483  0.00  0.00    +0.000 NA
ATOM      5  O   UNL     1       1.259   8.596  17.949  0.00  0.00    +0.000 OA
ENDROOT
BRANCH   1   6
ATOM      6  C   UNL     1       0.906   9.825  20.043  0.00  0.00    +0.000 C 
ATOM      7  C   UNL     1      -0.567   9.533  20.366  0.00  0.00    +0.000 C 
ATOM      8  C   UNL     1      -0.544   8.718  21.661  0.00  0.00    +0.000 C 
ATOM      9  C   UNL     1       0.819   8.966  22.303  0.00  0.00    +0.000 C 
ATOM     10  C   UNL     1       1.493  10.030  21.446  0.00  0.00    +0.000 C 
BRANCH   6  12
ATOM     11  C   UNL     1       1.524  12.620  20.169  0.00  0.00    +0.000 C 
ATOM     12  S   UNL     1       1.114  11.303  19.041  0.00  0.00    +0.000 S 
ATOM     13  O   UNL     1      -0.156  11.639  18.424  0.00  0.00    +0.000 OA
ATOM     14  O   UNL     1       2.284  11.113  18.197  0.00  0.00    +0.000 OA
ENDBRANCH   6  12
ENDBRANCH   1   6
BRANCH   3  15
ATOM     15  C   UNL     1       3.376   5.744  18.611  0.00  0.00    +0.000 C 
ATOM     16  C   UNL     1       4.678   5.837  19.454  0.00  0.00    +0.000 C 
ATOM     17  C   UNL     1       5.583   4.713  18.943  0.00  0.00    +0.000 C 
ATOM     18  C   UNL     1       5.117   4.424  17.521  0.00  0.00    +0.000 C 
ATOM     19  C   UNL     1       4.057   5.479  17.236  0.00  0.00    +0.000 C 
BRANCH  15  20
ATOM     20  C   UNL     1       2.373   4.677  19.066  0.00  0.00    +0.000 A 
ATOM     21  C   UNL     1       1.668   3.868  18.158  0.00  0.00    +0.000 A 
ATOM     22  F   UNL     1       1.780   4.054  16.837  0.00  0.00    +0.000 F 
ATOM     23  C   UNL     1       0.805   2.845  18.568  0.00  0.00    +0.000 A 
ATOM     24  C   UNL     1       0.590   2.611  19.919  0.00  0.00    +0.000 A 
ATOM     25  C   UNL     1       1.221   3.427  20.848  0.00  0.00    +0.000 A 
ATOM     26  C   UNL     1       2.080   4.446  20.423  0.00  0.00    +0.000 A 
ATOM     27  F   UNL     1       2.608   5.214  21.383  0.00  0.00    +0.000 F 
ENDBRANCH  15  20
ENDBRANCH   3  15
TORSDOF 4
ENDMDL
MODEL 5
REMARK VINA RESULT:      -7.9      4.275      6.219
REMARK  Name = 
REMARK  5 active torsions:
REMARK  status: ('A' for Active; 'I' for Inactive)
REMARK    1  A    between atoms: C_1  and  S_2
REMARK    2  A    between atoms: S_2  and  C_5
REMARK    3  A    between atoms: C_5  and  C_6
REMARK    4  A    between atoms: C_8  and  C_9
REMARK    5  A    between atoms: C_9  and  C_10
REMARK                            x       y       z     vdW  Elec       q    Type
REMARK                         _______ _______ _______ _____ _____    ______ ____
ROOT
ATOM      1  C   UNL     1       3.151   4.585  19.144  0.00  0.00    +0.000 A 
ATOM      2  N   UNL     1       4.397   4.537  18.725  0.00  0.00    +0.000 NA
ATOM      3  C   UNL     1       4.715   5.869  18.554  0.00  0.00    +0.000 A 
ATOM      4  N   UNL     1       3.721   6.710  18.871  0.00  0.00    +0.000 NA
ATOM      5  O   UNL     1       2.681   5.863  19.255  0.00  0.00    +0.000 OA
ENDROOT
BRANCH   1   6
ATOM      6  C   UNL     1       2.238   3.461  19.497  0.00  0.00    +0.000 C 
ATOM      7  C   UNL     1       3.000   2.291  20.135  0.00  0.00    +0.000 C 
ATOM      8  C   UNL     1       3.091   2.630  21.624  0.00  0.00    +0.000 C 
ATOM      9  C   UNL     1       2.010   3.674  21.896  0.00  0.00    +0.000 C 
ATOM     10  C   UNL     1       1.225   3.804  20.597  0.00  0.00    +0.000 C 
BRANCH   6  12
ATOM     11  C   UNL     1       2.577   2.059  17.021  0.00  0.00    +0.000 C 
ATOM     12  S   UNL     1       1.399   2.992  17.978  0.00  0.00    +0.000 S 
ATOM     13  O   UNL     1       1.079   4.191  17.224  0.00  0.00    +0.000 OA
ATOM     14  O   UNL     1       0.331   2.066  18.321  0.00  0.00    +0.000 OA
ENDBRANCH   6  12
ENDBRANCH   1   6
BRANCH   3  15
ATOM     15  C   UNL     1       6.020   6.309  17.947  0.00  0.00    +0.000 C 
ATOM     16  C   UNL     1       7.240   6.109  18.886  0.00  0.00    +0.000 C 
ATOM     17  C   UNL     1       8.316   7.073  18.376  0.00  0.00    +0.000 C 
ATOM     18  C   UNL     1       7.565   8.173  17.636  0.00  0.00    +0.000 C 
ATOM     19  C   UNL     1       6.092   7.862  17.864  0.00  0.00    +0.000 C 
BRANCH  15  20
ATOM     20  C   UNL     1       6.097   5.573  16.603  0.00  0.00    +0.000 A 
ATOM     21  C   UNL     1       6.952   4.479  16.389  0.00  0.00    +0.000 A 
ATOM     22  F   UNL     1       7.810   4.079  17.337  0.00  0.00    +0.000 F 
ATOM     23  C   UNL     1       6.975   3.759  15.189  0.00  0.00    +0.000 A 
ATOM     24  C   UNL     1       6.154   4.132  14.134  0.00  0.00    +0.000 A 
ATOM     25  C   UNL     1       5.338   5.245  14.283  0.00  0.00    +0.000 A 
ATOM     26  C   UNL     1       5.326   5.955  15.489  0.00  0.00    +0.000 A 
ATOM     27  F   UNL     1       4.546   7.041  15.529  0.00  0.00    +0.000 F 
ENDBRANCH  15  20
ENDBRANCH   3  15
TORSDOF 4
ENDMDL
MODEL 6
REMARK VINA RESULT:      -7.7      2.084      3.519
REMARK  Name = 
REMARK  5 active torsions:
REMARK  status: ('A' for Active; 'I' for Inactive)
REMARK    1  A    between atoms: C_1  and  S_2
REMARK    2  A    between atoms: S_2  and  C_5
REMARK    3  A    between atoms: C_5  and  C_6
REMARK    4  A    between atoms: C_8  and  C_9
REMARK    5  A    between atoms: C_9  and  C_10
REMARK                            x       y       z     vdW  Elec       q    Type
REMARK                         _______ _______ _______ _____ _____    ______ ____
ROOT
ATOM      1  C   UNL     1       1.556   8.689  19.257  0.00  0.00    +0.000 A 
ATOM      2  N   UNL     1       2.399   7.771  19.681  0.00  0.00    +0.000 NA
ATOM      3  C   UNL     1       2.637   7.027  18.544  0.00  0.00    +0.000 A 
ATOM      4  N   UNL     1       1.992   7.472  17.457  0.00  0.00    +0.000 NA
ATOM      5  O   UNL     1       1.268   8.569  17.928  0.00  0.00    +0.000 OA
ENDROOT
BRANCH   1   6
ATOM      6  C   UNL     1       0.914   9.794  20.024  0.00  0.00    +0.000 C 
ATOM      7  C   UNL     1      -0.554   9.481  20.349  0.00  0.00    +0.000 C 
ATOM      8  C   UNL     1      -0.516   8.662  21.642  0.00  0.00    +0.000 C 
ATOM      9  C   UNL     1       0.845   8.927  22.281  0.00  0.00    +0.000 C 
ATOM     10  C   UNL     1       1.502  10.004  21.426  0.00  0.00    +0.000 C 
BRANCH   6  12
ATOM     11  C   UNL     1       1.455  12.605  20.161  0.00  0.00    +0.000 C 
ATOM     12  S   UNL     1       1.098  11.278  19.026  0.00  0.00    +0.000 S 
ATOM     13  O   UNL     1      -0.171  11.581  18.389  0.00  0.00    +0.000 OA
ATOM     14  O   UNL     1       2.286  11.121  18.200  0.00  0.00    +0.000 OA
ENDBRANCH   6  12
ENDBRANCH   1   6
BRANCH   3  15
ATOM     15  C   UNL     1       3.452   5.762  18.571  0.00  0.00    +0.000 C 
ATOM     16  C   UNL     1       4.744   5.874  19.426  0.00  0.00    +0.000 C 
ATOM     17  C   UNL     1       5.677   4.775  18.911  0.00  0.00    +0.000 C 
ATOM     18  C   UNL     1       5.229   4.491  17.482  0.00  0.00    +0.000 C 
ATOM     19  C   UNL     1       4.149   5.526  17.199  0.00  0.00    +0.000 C 
BRANCH  15  20
ATOM     20  C   UNL     1       2.468   4.669  19.007  0.00  0.00    +0.000 A 
ATOM     21  C   UNL     1       2.124   4.455  20.353  0.00  0.00    +0.000 A 
ATOM     22  F   UNL     1       2.713   5.151  21.333  0.00  0.00    +0.000 F 
ATOM     23  C   UNL     1       1.173   3.508  20.750  0.00  0.00    +0.000 A 
ATOM     24  C   UNL     1       0.546   2.709  19.804  0.00  0.00    +0.000 A 
ATOM     25  C   UNL     1       0.902   2.846  18.470  0.00  0.00    +0.000 A 
ATOM     26  C   UNL     1       1.854   3.798  18.088  0.00  0.00    +0.000 A 
ATOM     27  F   UNL     1       2.171   3.830  16.789  0.00  0.00    +0.000 F 
ENDBRANCH  15  20
ENDBRANCH   3  15
TORSDOF 4
ENDMDL
MODEL 7
REMARK VINA RESULT:      -7.7      5.270      7.359
REMARK  Name = 
REMARK  5 active torsions:
REMARK  status: ('A' for Active; 'I' for Inactive)
REMARK    1  A    between atoms: C_1  and  S_2
REMARK    2  A    between atoms: S_2  and  C_5
REMARK    3  A    between atoms: C_5  and  C_6
REMARK    4  A    between atoms: C_8  and  C_9
REMARK    5  A    between atoms: C_9  and  C_10
REMARK                            x       y       z     vdW  Elec       q    Type
REMARK                         _______ _______ _______ _____ _____    ______ ____
ROOT
ATOM      1  C   UNL     1       2.201  13.917  19.517  0.00  0.00    +0.000 A 
ATOM      2  N   UNL     1       1.031  13.466  19.916  0.00  0.00    +0.000 NA
ATOM      3  C   UNL     1       0.918  12.268  19.239  0.00  0.00    +0.000 A 
ATOM      4  N   UNL     1       1.976  11.976  18.471  0.00  0.00    +0.000 NA
ATOM      5  O   UNL     1       2.826  13.070  18.647  0.00  0.00    +0.000 OA
ENDROOT
BRANCH   1   6
ATOM      6  C   UNL     1       2.892  15.184  19.891  0.00  0.00    +0.000 C 
ATOM      7  C   UNL     1       4.068  15.487  18.952  0.00  0.00    +0.000 C 
ATOM      8  C   UNL     1       3.455  16.222  17.759  0.00  0.00    +0.000 C 
ATOM      9  C   UNL     1       2.101  16.751  18.226  0.00  0.00    +0.000 C 
ATOM     10  C   UNL     1       2.028  16.439  19.716  0.00  0.00    +0.000 C 
BRANCH   6  12
ATOM     11  C   UNL     1       4.729  16.161  21.861  0.00  0.00    +0.000 C 
ATOM     12  S   UNL     1       3.406  14.995  21.604  0.00  0.00    +0.000 S 
ATOM     13  O   UNL     1       3.956  13.665  21.790  0.00  0.00    +0.000 OA
ATOM     14  O   UNL     1       2.309  15.434  22.454  0.00  0.00    +0.000 OA
ENDBRANCH   6  12
ENDBRANCH   1   6
BRANCH   3  15
ATOM     15  C   UNL     1      -0.340  11.444  19.277  0.00  0.00    +0.000 C 
ATOM     16  C   UNL     1      -0.461  10.441  18.096  0.00  0.00    +0.000 C 
ATOM     17  C   UNL     1      -1.953  10.122  17.976  0.00  0.00    +0.000 C 
ATOM     18  C   UNL     1      -2.679  11.313  18.591  0.00  0.00    +0.000 C 
ATOM     19  C   UNL     1      -1.580  12.314  18.917  0.00  0.00    +0.000 C 
BRANCH  15  20
ATOM     20  C   UNL     1      -0.359  10.817  20.676  0.00  0.00    +0.000 A 
ATOM     21  C   UNL     1      -1.030  11.409  21.760  0.00  0.00    +0.000 A 
ATOM     22  F   UNL     1      -1.621  12.604  21.635  0.00  0.00    +0.000 F 
ATOM     23  C   UNL     1      -1.111  10.807  23.021  0.00  0.00    +0.000 A 
ATOM     24  C   UNL     1      -0.488   9.589  23.255  0.00  0.00    +0.000 A 
ATOM     25  C   UNL     1       0.238   9.001  22.229  0.00  0.00    +0.000 A 
ATOM     26  C   UNL     1       0.309   9.615  20.973  0.00  0.00    +0.000 A 
ATOM     27  F   UNL     1       1.068   9.002  20.057  0.00  0.00    +0.000 F 
ENDBRANCH  15  20
ENDBRANCH   3  15
TORSDOF 4
ENDMDL
MODEL 8
REMARK VINA RESULT:      -7.7      4.272      6.079
REMARK  Name = 
REMARK  5 active torsions:
REMARK  status: ('A' for Active; 'I' for Inactive)
REMARK    1  A    between atoms: C_1  and  S_2
REMARK    2  A    between atoms: S_2  and  C_5
REMARK    3  A    between atoms: C_5  and  C_6
REMARK    4  A    between atoms: C_8  and  C_9
REMARK    5  A    between atoms: C_9  and  C_10
REMARK                            x       y       z     vdW  Elec       q    Type
REMARK                         _______ _______ _______ _____ _____    ______ ____
ROOT
ATOM      1  C   UNL     1       3.269   4.535  18.950  0.00  0.00    +0.000 A 
ATOM      2  N   UNL     1       4.563   4.595  18.716  0.00  0.00    +0.000 NA
ATOM      3  C   UNL     1       4.732   5.886  18.260  0.00  0.00    +0.000 A 
ATOM      4  N   UNL     1       3.602   6.605  18.231  0.00  0.00    +0.000 NA
ATOM      5  O   UNL     1       2.629   5.710  18.680  0.00  0.00    +0.000 OA
ENDROOT
BRANCH   1   6
ATOM      6  C   UNL     1       2.462   3.388  19.454  0.00  0.00    +0.000 C 
ATOM      7  C   UNL     1       1.494   2.861  18.384  0.00  0.00    +0.000 C 
ATOM      8  C   UNL     1       2.310   1.868  17.554  0.00  0.00    +0.000 C 
ATOM      9  C   UNL     1       3.513   1.476  18.408  0.00  0.00    +0.000 C 
ATOM     10  C   UNL     1       3.288   2.133  19.765  0.00  0.00    +0.000 C 
BRANCH   6  12
ATOM     11  C   UNL     1       1.290   2.534  21.926  0.00  0.00    +0.000 C 
ATOM     12  S   UNL     1       1.612   3.974  20.926  0.00  0.00    +0.000 S 
ATOM     13  O   UNL     1       0.328   4.532  20.540  0.00  0.00    +0.000 OA
ATOM     14  O   UNL     1       2.542   4.795  21.686  0.00  0.00    +0.000 OA
ENDBRANCH   6  12
ENDBRANCH   1   6
BRANCH   3  15
ATOM     15  C   UNL     1       6.051   6.382  17.732  0.00  0.00    +0.000 C 
ATOM     16  C   UNL     1       7.226   6.210  18.733  0.00  0.00    +0.000 C 
ATOM     17  C   UNL     1       8.291   7.219  18.297  0.00  0.00    +0.000 C 
ATOM     18  C   UNL     1       7.543   8.304  17.532  0.00  0.00    +0.000 C 
ATOM     19  C   UNL     1       6.072   7.937  17.675  0.00  0.00    +0.000 C 
BRANCH  15  20
ATOM     20  C   UNL     1       6.227   5.671  16.384  0.00  0.00    +0.000 A 
ATOM     21  C   UNL     1       7.114   4.596  16.207  0.00  0.00    +0.000 A 
ATOM     22  F   UNL     1       7.917   4.194  17.201  0.00  0.00    +0.000 F 
ATOM     23  C   UNL     1       7.227   3.898  14.999  0.00  0.00    +0.000 A 
ATOM     24  C   UNL     1       6.468   4.275  13.900  0.00  0.00    +0.000 A 
ATOM     25  C   UNL     1       5.624   5.371  14.015  0.00  0.00    +0.000 A 
ATOM     26  C   UNL     1       5.522   6.059  15.229  0.00  0.00    +0.000 A 
ATOM     27  F   UNL     1       4.721   7.130  15.237  0.00  0.00    +0.000 F 
ENDBRANCH  15  20
ENDBRANCH   3  15
TORSDOF 4
ENDMDL
MODEL 9
REMARK VINA RESULT:      -7.7      5.246      7.320
REMARK  Name = 
REMARK  5 active torsions:
REMARK  status: ('A' for Active; 'I' for Inactive)
REMARK    1  A    between atoms: C_1  and  S_2
REMARK    2  A    between atoms: S_2  and  C_5
REMARK    3  A    between atoms: C_5  and  C_6
REMARK    4  A    between atoms: C_8  and  C_9
REMARK    5  A    between atoms: C_9  and  C_10
REMARK                            x       y       z     vdW  Elec       q    Type
REMARK                         _______ _______ _______ _____ _____    ______ ____
ROOT
ATOM      1  C   UNL     1       2.167  13.905  19.534  0.00  0.00    +0.000 A 
ATOM      2  N   UNL     1       0.991  13.446  19.906  0.00  0.00    +0.000 NA
ATOM      3  C   UNL     1       0.903  12.246  19.231  0.00  0.00    +0.000 A 
ATOM      4  N   UNL     1       1.982  11.959  18.489  0.00  0.00    +0.000 NA
ATOM      5  O   UNL     1       2.818  13.061  18.681  0.00  0.00    +0.000 OA
ENDROOT
BRANCH   1   6
ATOM      6  C   UNL     1       2.839  15.179  19.920  0.00  0.00    +0.000 C 
ATOM      7  C   UNL     1       4.016  15.504  18.989  0.00  0.00    +0.000 C 
ATOM      8  C   UNL     1       3.398  16.239  17.797  0.00  0.00    +0.000 C 
ATOM      9  C   UNL     1       2.035  16.746  18.262  0.00  0.00    +0.000 C 
ATOM     10  C   UNL     1       1.959  16.424  19.749  0.00  0.00    +0.000 C 
BRANCH   6  12
ATOM     11  C   UNL     1       4.650  16.170  21.907  0.00  0.00    +0.000 C 
ATOM     12  S   UNL     1       3.347  14.985  21.633  0.00  0.00    +0.000 S 
ATOM     13  O   UNL     1       3.917  13.663  21.812  0.00  0.00    +0.000 OA
ATOM     14  O   UNL     1       2.239  15.399  22.481  0.00  0.00    +0.000 OA
ENDBRANCH   6  12
ENDBRANCH   1   6
BRANCH   3  15
ATOM     15  C   UNL     1      -0.349  11.412  19.241  0.00  0.00    +0.000 C 
ATOM     16  C   UNL     1      -0.443  10.418  18.051  0.00  0.00    +0.000 C 
ATOM     17  C   UNL     1      -1.931  10.089  17.904  0.00  0.00    +0.000 C 
ATOM     18  C   UNL     1      -2.676  11.269  18.517  0.00  0.00    +0.000 C 
ATOM     19  C   UNL     1      -1.589  12.276  18.869  0.00  0.00    +0.000 C 
BRANCH  15  20
ATOM     20  C   UNL     1      -0.385  10.773  20.635  0.00  0.00    +0.000 A 
ATOM     21  C   UNL     1       0.272   9.566  20.930  0.00  0.00    +0.000 A 
ATOM     22  F   UNL     1       0.896   8.869  19.972  0.00  0.00    +0.000 F 
ATOM     23  C   UNL     1       0.302   9.015  22.216  0.00  0.00    +0.000 A 
ATOM     24  C   UNL     1      -0.357   9.645  23.262  0.00  0.00    +0.000 A 
ATOM     25  C   UNL     1      -1.069  10.808  23.001  0.00  0.00    +0.000 A 
ATOM     26  C   UNL     1      -1.090  11.346  21.709  0.00  0.00    +0.000 A 
ATOM     27  F   UNL     1      -1.839  12.442  21.537  0.00  0.00    +0.000 F 
ENDBRANCH  15  20
ENDBRANCH   3  15
TORSDOF 4
ENDMDL
