MODEL 1
REMARK VINA RESULT:      -8.9      0.000      0.000
REMARK  Name = 
REMARK  6 active torsions:
REMARK  status: ('A' for Active; 'I' for Inactive)
REMARK    1  A    between atoms: C_2  and  C_3
REMARK    2  A    between atoms: C_3  and  C_4
REMARK    3  A    between atoms: C_4  and  N_5
REMARK    4  A    between atoms: N_8  and  C_9
REMARK    5  A    between atoms: C_11  and  N_12
REMARK    6  A    between atoms: N_22  and  C_23
REMARK                            x       y       z     vdW  Elec       q    Type
REMARK                         _______ _______ _______ _____ _____    ______ ____
ROOT
ATOM      1  N   UNL     1       1.759   8.160  20.979  0.00  0.00    +0.000 N 
ATOM      2  C   UNL     1       2.139   7.407  19.889  0.00  0.00    +0.000 C 
ATOM      3  O   UNL     1       2.082   7.819  18.737  0.00  0.00    +0.000 OA
ATOM      4  N   UNL     1       2.484   6.124  20.273  0.00  0.00    +0.000 N 
ATOM      5  H   UNL     1       2.377   8.041  21.778  0.00  0.00    +0.000 HD
ATOM      6  H   UNL     1       1.938   5.795  21.060  0.00  0.00    +0.000 HD
ENDROOT
BRANCH   4   7
ATOM      7  C   UNL     1       2.815   5.146  19.310  0.00  0.00    +0.000 A 
ATOM      8  C   UNL     1       4.037   5.173  18.628  0.00  0.00    +0.000 A 
ATOM      9  C   UNL     1       4.307   4.260  17.600  0.00  0.00    +0.000 A 
ATOM     10  C   UNL     1       3.330   3.307  17.271  0.00  0.00    +0.000 A 
ATOM     11  C   UNL     1       2.128   3.244  17.983  0.00  0.00    +0.000 A 
ATOM     12  C   UNL     1       1.887   4.152  19.007  0.00  0.00    +0.000 A 
ATOM     13  F   UNL     1       0.712   4.114  19.653  0.00  0.00    +0.000 F 
BRANCH   9  14
ATOM     14  N   UNL     1       5.517   4.331  16.878  0.00  0.00    +0.000 N 
ATOM     15  C   UNL     1       5.593   4.309  15.434  0.00  0.00    +0.000 C 
ATOM     16  C   UNL     1       6.963   4.909  15.155  0.00  0.00    +0.000 C 
ATOM     17  N   UNL     1       7.693   4.635  16.357  0.00  0.00    +0.000 N 
ATOM     18  C   UNL     1       6.808   4.468  17.421  0.00  0.00    +0.000 C 
ATOM     19  O   UNL     1       7.171   4.447  18.584  0.00  0.00    +0.000 OA
ATOM     20  H   UNL     1       8.629   4.954  16.568  0.00  0.00    +0.000 HD
ENDBRANCH   9  14
ENDBRANCH   4   7
BRANCH   1  21
ATOM     21  C   UNL     1       1.300   9.526  20.771  0.00  0.00    +0.000 C 
BRANCH  21  22
ATOM     22  C   UNL     1      -0.222   9.628  20.745  0.00  0.00    +0.000 C 
BRANCH  22  24
ATOM     23  O   UNL     1      -0.127  11.344  19.077  0.00  0.00    +0.000 OA
ATOM     24  C   UNL     1      -0.716  10.359  19.516  0.00  0.00    +0.000 C 
ATOM     25  N   UNL     1      -1.885   9.824  19.008  0.00  0.00    +0.000 N 
ATOM     26  H   UNL     1      -2.361   9.135  19.577  0.00  0.00    +0.000 HD
BRANCH  25  27
ATOM     27  C   UNL     1      -2.566  10.258  17.851  0.00  0.00    +0.000 A 
ATOM     28  C   UNL     1      -3.657  11.132  17.887  0.00  0.00    +0.000 A 
ATOM     29  C   UNL     1      -4.315  11.500  16.711  0.00  0.00    +0.000 A 
ATOM     30  C   UNL     1      -3.884  11.001  15.486  0.00  0.00    +0.000 A 
ATOM     31  C   UNL     1      -2.782  10.151  15.434  0.00  0.00    +0.000 A 
ATOM     32  C   UNL     1      -2.117   9.789  16.610  0.00  0.00    +0.000 A 
ENDBRANCH  25  27
ENDBRANCH  22  24
ENDBRANCH  21  22
ENDBRANCH   1  21
TORSDOF 6
ENDMDL
MODEL 2
REMARK VINA RESULT:      -8.4      3.061      8.657
REMARK  Name = 
REMARK  6 active torsions:
REMARK  status: ('A' for Active; 'I' for Inactive)
REMARK    1  A    between atoms: C_2  and  C_3
REMARK    2  A    between atoms: C_3  and  C_4
REMARK    3  A    between atoms: C_4  and  N_5
REMARK    4  A    between atoms: N_8  and  C_9
REMARK    5  A    between atoms: C_11  and  N_12
REMARK    6  A    between atoms: N_22  and  C_23
REMARK                            x       y       z     vdW  Elec       q    Type
REMARK                         _______ _______ _______ _____ _____    ______ ____
ROOT
ATOM      1  N   UNL     1       2.306   3.888  21.131  0.00  0.00    +0.000 N 
ATOM      2  C   UNL     1       1.688   4.980  20.562  0.00  0.00    +0.000 C 
ATOM      3  O   UNL     1       0.750   4.887  19.779  0.00  0.00    +0.000 OA
ATOM      4  N   UNL     1       2.332   6.151  20.916  0.00  0.00    +0.000 N 
ATOM      5  H   UNL     1       2.548   4.034  22.107  0.00  0.00    +0.000 HD
ATOM      6  H   UNL     1       3.331   6.026  21.026  0.00  0.00    +0.000 HD
ENDROOT
BRANCH   4   7
ATOM      7  C   UNL     1       1.930   7.390  20.371  0.00  0.00    +0.000 A 
ATOM      8  C   UNL     1       1.208   8.322  21.125  0.00  0.00    +0.000 A 
ATOM      9  C   UNL     1       0.723   9.500  20.540  0.00  0.00    +0.000 A 
ATOM     10  C   UNL     1       0.984   9.734  19.180  0.00  0.00    +0.000 A 
ATOM     11  C   UNL     1       1.749   8.830  18.436  0.00  0.00    +0.000 A 
ATOM     12  C   UNL     1       2.229   7.674  19.040  0.00  0.00    +0.000 A 
ATOM     13  F   UNL     1       2.921   6.789  18.306  0.00  0.00    +0.000 F 
BRANCH   9  14
ATOM     14  N   UNL     1      -0.054  10.406  21.291  0.00  0.00    +0.000 N 
ATOM     15  C   UNL     1      -0.836  11.471  20.704  0.00  0.00    +0.000 C 
ATOM     16  C   UNL     1      -1.840  11.801  21.800  0.00  0.00    +0.000 C 
ATOM     17  N   UNL     1      -1.172  11.378  22.995  0.00  0.00    +0.000 N 
ATOM     18  C   UNL     1      -0.223  10.405  22.688  0.00  0.00    +0.000 C 
ATOM     19  O   UNL     1       0.323   9.723  23.539  0.00  0.00    +0.000 OA
ATOM     20  H   UNL     1      -1.568  11.373  23.926  0.00  0.00    +0.000 HD
ENDBRANCH   9  14
ENDBRANCH   4   7
BRANCH   1  21
ATOM     21  C   UNL     1       1.810   2.553  20.826  0.00  0.00    +0.000 C 
BRANCH  21  22
ATOM     22  C   UNL     1       2.450   1.969  19.571  0.00  0.00    +0.000 C 
BRANCH  22  24
ATOM     23  O   UNL     1       4.780   2.288  20.019  0.00  0.00    +0.000 OA
ATOM     24  C   UNL     1       3.817   2.561  19.307  0.00  0.00    +0.000 C 
ATOM     25  N   UNL     1       3.824   3.439  18.240  0.00  0.00    +0.000 N 
ATOM     26  H   UNL     1       2.924   3.714  17.864  0.00  0.00    +0.000 HD
BRANCH  25  27
ATOM     27  C   UNL     1       4.949   4.116  17.725  0.00  0.00    +0.000 A 
ATOM     28  C   UNL     1       5.738   4.982  18.489  0.00  0.00    +0.000 A 
ATOM     29  C   UNL     1       6.821   5.652  17.917  0.00  0.00    +0.000 A 
ATOM     30  C   UNL     1       7.130   5.459  16.574  0.00  0.00    +0.000 A 
ATOM     31  C   UNL     1       6.369   4.579  15.809  0.00  0.00    +0.000 A 
ATOM     32  C   UNL     1       5.289   3.900  16.384  0.00  0.00    +0.000 A 
ENDBRANCH  25  27
ENDBRANCH  22  24
ENDBRANCH  21  22
ENDBRANCH   1  21
TORSDOF 6
ENDMDL
MODEL 3
REMARK VINA RESULT:      -8.4      3.021      3.636
REMARK  Name = 
REMARK  6 active torsions:
REMARK  status: ('A' for Active; 'I' for Inactive)
REMARK    1  A    between atoms: C_2  and  C_3
REMARK    2  A    between atoms: C_3  and  C_4
REMARK    3  A    between atoms: C_4  and  N_5
REMARK    4  A    between atoms: N_8  and  C_9
REMARK    5  A    between atoms: C_11  and  N_12
REMARK    6  A    between atoms: N_22  and  C_23
REMARK                            x       y       z     vdW  Elec       q    Type
REMARK                         _______ _______ _______ _____ _____    ______ ____
ROOT
ATOM      1  N   UNL     1       1.771   7.599  21.181  0.00  0.00    +0.000 N 
ATOM      2  C   UNL     1       2.171   6.860  20.088  0.00  0.00    +0.000 C 
ATOM      3  O   UNL     1       1.984   7.220  18.932  0.00  0.00    +0.000 OA
ATOM      4  N   UNL     1       2.701   5.646  20.482  0.00  0.00    +0.000 N 
ATOM      5  H   UNL     1       2.451   7.587  21.937  0.00  0.00    +0.000 HD
ATOM      6  H   UNL     1       2.256   5.279  21.314  0.00  0.00    +0.000 HD
ENDROOT
BRANCH   4   7
ATOM      7  C   UNL     1       3.090   4.682  19.524  0.00  0.00    +0.000 A 
ATOM      8  C   UNL     1       4.227   4.858  18.728  0.00  0.00    +0.000 A 
ATOM      9  C   UNL     1       4.539   3.946  17.710  0.00  0.00    +0.000 A 
ATOM     10  C   UNL     1       3.692   2.845  17.509  0.00  0.00    +0.000 A 
ATOM     11  C   UNL     1       2.584   2.638  18.335  0.00  0.00    +0.000 A 
ATOM     12  C   UNL     1       2.300   3.549  19.346  0.00  0.00    +0.000 A 
ATOM     13  F   UNL     1       1.207   3.367  20.104  0.00  0.00    +0.000 F 
BRANCH   9  14
ATOM     14  N   UNL     1       5.654   4.162  16.873  0.00  0.00    +0.000 N 
ATOM     15  C   UNL     1       5.584   4.167  15.429  0.00  0.00    +0.000 C 
ATOM     16  C   UNL     1       6.845   4.920  15.029  0.00  0.00    +0.000 C 
ATOM     17  N   UNL     1       7.719   4.714  16.145  0.00  0.00    +0.000 N 
ATOM     18  C   UNL     1       6.970   4.436  17.287  0.00  0.00    +0.000 C 
ATOM     19  O   UNL     1       7.450   4.440  18.408  0.00  0.00    +0.000 OA
ATOM     20  H   UNL     1       8.631   5.134  16.270  0.00  0.00    +0.000 HD
ENDBRANCH   9  14
ENDBRANCH   4   7
BRANCH   1  21
ATOM     21  C   UNL     1       1.128   8.888  20.969  0.00  0.00    +0.000 C 
BRANCH  21  22
ATOM     22  C   UNL     1       0.209   9.274  22.123  0.00  0.00    +0.000 C 
BRANCH  22  24
ATOM     23  O   UNL     1      -0.466  11.136  20.777  0.00  0.00    +0.000 OA
ATOM     24  C   UNL     1      -0.462  10.609  21.887  0.00  0.00    +0.000 C 
ATOM     25  N   UNL     1      -1.002  11.149  23.039  0.00  0.00    +0.000 N 
ATOM     26  H   UNL     1      -0.761  10.700  23.915  0.00  0.00    +0.000 HD
BRANCH  25  27
ATOM     27  C   UNL     1      -1.723  12.357  23.134  0.00  0.00    +0.000 A 
ATOM     28  C   UNL     1      -1.110  13.611  23.218  0.00  0.00    +0.000 A 
ATOM     29  C   UNL     1      -1.876  14.772  23.346  0.00  0.00    +0.000 A 
ATOM     30  C   UNL     1      -3.264  14.691  23.386  0.00  0.00    +0.000 A 
ATOM     31  C   UNL     1      -3.888  13.451  23.276  0.00  0.00    +0.000 A 
ATOM     32  C   UNL     1      -3.122  12.289  23.139  0.00  0.00    +0.000 A 
ENDBRANCH  25  27
ENDBRANCH  22  24
ENDBRANCH  21  22
ENDBRANCH   1  21
TORSDOF 6
ENDMDL
MODEL 4
REMARK VINA RESULT:      -8.3      3.178      8.517
REMARK  Name = 
REMARK  6 active torsions:
REMARK  status: ('A' for Active; 'I' for Inactive)
REMARK    1  A    between atoms: C_2  and  C_3
REMARK    2  A    between atoms: C_3  and  C_4
REMARK    3  A    between atoms: C_4  and  N_5
REMARK    4  A    between atoms: N_8  and  C_9
REMARK    5  A    between atoms: C_11  and  N_12
REMARK    6  A    between atoms: N_22  and  C_23
REMARK                            x       y       z     vdW  Elec       q    Type
REMARK                         _______ _______ _______ _____ _____    ______ ____
ROOT
ATOM      1  N   UNL     1       2.972   4.053  20.251  0.00  0.00    +0.000 N 
ATOM      2  C   UNL     1       2.131   5.130  20.070  0.00  0.00    +0.000 C 
ATOM      3  O   UNL     1       0.923   5.015  19.902  0.00  0.00    +0.000 OA
ATOM      4  N   UNL     1       2.849   6.310  20.005  0.00  0.00    +0.000 N 
ATOM      5  H   UNL     1       3.691   4.225  20.949  0.00  0.00    +0.000 HD
ATOM      6  H   UNL     1       3.757   6.189  19.574  0.00  0.00    +0.000 HD
ENDROOT
BRANCH   4   7
ATOM      7  C   UNL     1       2.202   7.534  19.728  0.00  0.00    +0.000 A 
ATOM      8  C   UNL     1       1.589   8.284  20.738  0.00  0.00    +0.000 A 
ATOM      9  C   UNL     1       0.859   9.441  20.432  0.00  0.00    +0.000 A 
ATOM     10  C   UNL     1       0.762   9.841  19.090  0.00  0.00    +0.000 A 
ATOM     11  C   UNL     1       1.415   9.124  18.083  0.00  0.00    +0.000 A 
ATOM     12  C   UNL     1       2.142   7.986  18.411  0.00  0.00    +0.000 A 
ATOM     13  F   UNL     1       2.727   7.276  17.433  0.00  0.00    +0.000 F 
BRANCH   9  14
ATOM     14  N   UNL     1       0.195  10.159  21.449  0.00  0.00    +0.000 N 
ATOM     15  C   UNL     1       0.206  11.602  21.550  0.00  0.00    +0.000 C 
ATOM     16  C   UNL     1      -1.004  11.890  22.428  0.00  0.00    +0.000 C 
ATOM     17  N   UNL     1      -1.166  10.678  23.174  0.00  0.00    +0.000 N 
ATOM     18  C   UNL     1      -0.593   9.614  22.479  0.00  0.00    +0.000 C 
ATOM     19  O   UNL     1      -0.783   8.448  22.781  0.00  0.00    +0.000 OA
ATOM     20  H   UNL     1      -1.922  10.470  23.812  0.00  0.00    +0.000 HD
ENDBRANCH   9  14
ENDBRANCH   4   7
BRANCH   1  21
ATOM     21  C   UNL     1       2.410   2.710  20.283  0.00  0.00    +0.000 C 
BRANCH  21  22
ATOM     22  C   UNL     1       2.820   1.880  19.072  0.00  0.00    +0.000 C 
BRANCH  22  24
ATOM     23  O   UNL     1       2.179   3.112  17.122  0.00  0.00    +0.000 OA
ATOM     24  C   UNL     1       3.089   2.745  17.860  0.00  0.00    +0.000 C 
ATOM     25  N   UNL     1       4.433   3.014  17.681  0.00  0.00    +0.000 N 
ATOM     26  H   UNL     1       5.087   2.493  18.254  0.00  0.00    +0.000 HD
BRANCH  25  27
ATOM     27  C   UNL     1       4.994   3.823  16.670  0.00  0.00    +0.000 A 
ATOM     28  C   UNL     1       5.646   3.303  15.548  0.00  0.00    +0.000 A 
ATOM     29  C   UNL     1       6.213   4.153  14.596  0.00  0.00    +0.000 A 
ATOM     30  C   UNL     1       6.128   5.533  14.754  0.00  0.00    +0.000 A 
ATOM     31  C   UNL     1       5.457   6.063  15.853  0.00  0.00    +0.000 A 
ATOM     32  C   UNL     1       4.881   5.212  16.803  0.00  0.00    +0.000 A 
ENDBRANCH  25  27
ENDBRANCH  22  24
ENDBRANCH  21  22
ENDBRANCH   1  21
TORSDOF 6
ENDMDL
MODEL 5
REMARK VINA RESULT:      -8.2      3.048      8.603
REMARK  Name = 
REMARK  6 active torsions:
REMARK  status: ('A' for Active; 'I' for Inactive)
REMARK    1  A    between atoms: C_2  and  C_3
REMARK    2  A    between atoms: C_3  and  C_4
REMARK    3  A    between atoms: C_4  and  N_5
REMARK    4  A    between atoms: N_8  and  C_9
REMARK    5  A    between atoms: C_11  and  N_12
REMARK    6  A    between atoms: N_22  and  C_23
REMARK                            x       y       z     vdW  Elec       q    Type
REMARK                         _______ _______ _______ _____ _____    ______ ____
ROOT
ATOM      1  N   UNL     1       3.128   3.873  20.099  0.00  0.00    +0.000 N 
ATOM      2  C   UNL     1       2.300   4.955  19.883  0.00  0.00    +0.000 C 
ATOM      3  O   UNL     1       1.103   4.845  19.649  0.00  0.00    +0.000 OA
ATOM      4  N   UNL     1       3.023   6.133  19.869  0.00  0.00    +0.000 N 
ATOM      5  H   UNL     1       3.808   4.037  20.837  0.00  0.00    +0.000 HD
ATOM      6  H   UNL     1       3.953   6.013  19.487  0.00  0.00    +0.000 HD
ENDROOT
BRANCH   4   7
ATOM      7  C   UNL     1       2.395   7.362  19.569  0.00  0.00    +0.000 A 
ATOM      8  C   UNL     1       1.604   8.029  20.510  0.00  0.00    +0.000 A 
ATOM      9  C   UNL     1       0.901   9.192  20.164  0.00  0.00    +0.000 A 
ATOM     10  C   UNL     1       1.013   9.682  18.853  0.00  0.00    +0.000 A 
ATOM     11  C   UNL     1       1.843   9.047  17.924  0.00  0.00    +0.000 A 
ATOM     12  C   UNL     1       2.540   7.902  18.293  0.00  0.00    +0.000 A 
ATOM     13  F   UNL     1       3.297   7.273  17.381  0.00  0.00    +0.000 F 
BRANCH   9  14
ATOM     14  N   UNL     1       0.058   9.825  21.102  0.00  0.00    +0.000 N 
ATOM     15  C   UNL     1      -0.469   9.170  22.278  0.00  0.00    +0.000 C 
ATOM     16  C   UNL     1      -0.847  10.337  23.178  0.00  0.00    +0.000 C 
ATOM     17  N   UNL     1      -1.068  11.408  22.252  0.00  0.00    +0.000 N 
ATOM     18  C   UNL     1      -0.367  11.166  21.072  0.00  0.00    +0.000 C 
ATOM     19  O   UNL     1      -0.204  12.017  20.214  0.00  0.00    +0.000 OA
ATOM     20  H   UNL     1      -1.267  12.370  22.493  0.00  0.00    +0.000 HD
ENDBRANCH   9  14
ENDBRANCH   4   7
BRANCH   1  21
ATOM     21  C   UNL     1       2.561   2.532  20.088  0.00  0.00    +0.000 C 
BRANCH  21  22
ATOM     22  C   UNL     1       2.815   1.807  18.770  0.00  0.00    +0.000 C 
BRANCH  22  24
ATOM     23  O   UNL     1       2.428   3.270  16.915  0.00  0.00    +0.000 OA
ATOM     24  C   UNL     1       3.245   2.759  17.676  0.00  0.00    +0.000 C 
ATOM     25  N   UNL     1       4.616   2.930  17.624  0.00  0.00    +0.000 N 
ATOM     26  H   UNL     1       5.180   2.305  18.186  0.00  0.00    +0.000 HD
BRANCH  25  27
ATOM     27  C   UNL     1       5.315   3.783  16.744  0.00  0.00    +0.000 A 
ATOM     28  C   UNL     1       5.646   3.426  15.433  0.00  0.00    +0.000 A 
ATOM     29  C   UNL     1       6.371   4.298  14.618  0.00  0.00    +0.000 A 
ATOM     30  C   UNL     1       6.769   5.539  15.105  0.00  0.00    +0.000 A 
ATOM     31  C   UNL     1       6.422   5.918  16.399  0.00  0.00    +0.000 A 
ATOM     32  C   UNL     1       5.688   5.048  17.213  0.00  0.00    +0.000 A 
ENDBRANCH  25  27
ENDBRANCH  22  24
ENDBRANCH  21  22
ENDBRANCH   1  21
TORSDOF 6
ENDMDL
MODEL 6
REMARK VINA RESULT:      -8.2      1.332      1.553
REMARK  Name = 
REMARK  6 active torsions:
REMARK  status: ('A' for Active; 'I' for Inactive)
REMARK    1  A    between atoms: C_2  and  C_3
REMARK    2  A    between atoms: C_3  and  C_4
REMARK    3  A    between atoms: C_4  and  N_5
REMARK    4  A    between atoms: N_8  and  C_9
REMARK    5  A    between atoms: C_11  and  N_12
REMARK    6  A    between atoms: N_22  and  C_23
REMARK                            x       y       z     vdW  Elec       q    Type
REMARK                         _______ _______ _______ _____ _____    ______ ____
ROOT
ATOM      1  N   UNL     1       1.480   9.183  19.581  0.00  0.00    +0.000 N 
ATOM      2  C   UNL     1       2.008   8.062  18.976  0.00  0.00    +0.000 C 
ATOM      3  O   UNL     1       1.981   7.881  17.764  0.00  0.00    +0.000 OA
ATOM      4  N   UNL     1       2.460   7.159  19.919  0.00  0.00    +0.000 N 
ATOM      5  H   UNL     1       2.054   9.526  20.348  0.00  0.00    +0.000 HD
ATOM      6  H   UNL     1       1.903   7.168  20.764  0.00  0.00    +0.000 HD
ENDROOT
BRANCH   4   7
ATOM      7  C   UNL     1       2.955   5.895  19.530  0.00  0.00    +0.000 A 
ATOM      8  C   UNL     1       4.114   5.768  18.756  0.00  0.00    +0.000 A 
ATOM      9  C   UNL     1       4.532   4.515  18.287  0.00  0.00    +0.000 A 
ATOM     10  C   UNL     1       3.770   3.383  18.618  0.00  0.00    +0.000 A 
ATOM     11  C   UNL     1       2.640   3.498  19.434  0.00  0.00    +0.000 A 
ATOM     12  C   UNL     1       2.251   4.750  19.896  0.00  0.00    +0.000 A 
ATOM     13  F   UNL     1       1.138   4.857  20.639  0.00  0.00    +0.000 F 
BRANCH   9  14
ATOM     14  N   UNL     1       5.668   4.403  17.459  0.00  0.00    +0.000 N 
ATOM     15  C   UNL     1       5.607   4.059  16.055  0.00  0.00    +0.000 C 
ATOM     16  C   UNL     1       6.942   4.558  15.523  0.00  0.00    +0.000 C 
ATOM     17  N   UNL     1       7.784   4.545  16.683  0.00  0.00    +0.000 N 
ATOM     18  C   UNL     1       7.004   4.635  17.834  0.00  0.00    +0.000 C 
ATOM     19  O   UNL     1       7.475   4.866  18.935  0.00  0.00    +0.000 OA
ATOM     20  H   UNL     1       8.735   4.887  16.730  0.00  0.00    +0.000 HD
ENDBRANCH   9  14
ENDBRANCH   4   7
BRANCH   1  21
ATOM     21  C   UNL     1       0.893  10.227  18.754  0.00  0.00    +0.000 C 
BRANCH  21  22
ATOM     22  C   UNL     1       0.526  11.468  19.560  0.00  0.00    +0.000 C 
BRANCH  22  24
ATOM     23  O   UNL     1      -0.765  13.323  18.769  0.00  0.00    +0.000 OA
ATOM     24  C   UNL     1      -0.734  12.126  19.042  0.00  0.00    +0.000 C 
ATOM     25  N   UNL     1      -1.801  11.251  18.963  0.00  0.00    +0.000 N 
ATOM     26  H   UNL     1      -1.686  10.343  19.397  0.00  0.00    +0.000 HD
BRANCH  25  27
ATOM     27  C   UNL     1      -3.092  11.554  18.481  0.00  0.00    +0.000 A 
ATOM     28  C   UNL     1      -4.087  12.140  19.270  0.00  0.00    +0.000 A 
ATOM     29  C   UNL     1      -5.359  12.385  18.748  0.00  0.00    +0.000 A 
ATOM     30  C   UNL     1      -5.648  12.050  17.429  0.00  0.00    +0.000 A 
ATOM     31  C   UNL     1      -4.658  11.490  16.625  0.00  0.00    +0.000 A 
ATOM     32  C   UNL     1      -3.381  11.253  17.144  0.00  0.00    +0.000 A 
ENDBRANCH  25  27
ENDBRANCH  22  24
ENDBRANCH  21  22
ENDBRANCH   1  21
TORSDOF 6
ENDMDL
MODEL 7
REMARK VINA RESULT:      -8.2      5.953      8.373
REMARK  Name = 
REMARK  6 active torsions:
REMARK  status: ('A' for Active; 'I' for Inactive)
REMARK    1  A    between atoms: C_2  and  C_3
REMARK    2  A    between atoms: C_3  and  C_4
REMARK    3  A    between atoms: C_4  and  N_5
REMARK    4  A    between atoms: N_8  and  C_9
REMARK    5  A    between atoms: C_11  and  N_12
REMARK    6  A    between atoms: N_22  and  C_23
REMARK                            x       y       z     vdW  Elec       q    Type
REMARK                         _______ _______ _______ _____ _____    ______ ____
ROOT
ATOM      1  N   UNL     1       8.431   7.997  18.576  0.00  0.00    +0.000 N 
ATOM      2  C   UNL     1       7.419   7.352  17.898  0.00  0.00    +0.000 C 
ATOM      3  O   UNL     1       6.669   7.922  17.114  0.00  0.00    +0.000 OA
ATOM      4  N   UNL     1       7.317   6.034  18.303  0.00  0.00    +0.000 N 
ATOM      5  H   UNL     1       9.279   7.441  18.643  0.00  0.00    +0.000 HD
ATOM      6  H   UNL     1       7.547   5.910  19.281  0.00  0.00    +0.000 HD
ENDROOT
BRANCH   4   7
ATOM      7  C   UNL     1       6.284   5.206  17.810  0.00  0.00    +0.000 A 
ATOM      8  C   UNL     1       5.133   4.944  18.561  0.00  0.00    +0.000 A 
ATOM      9  C   UNL     1       4.168   4.036  18.105  0.00  0.00    +0.000 A 
ATOM     10  C   UNL     1       4.373   3.398  16.871  0.00  0.00    +0.000 A 
ATOM     11  C   UNL     1       5.497   3.694  16.093  0.00  0.00    +0.000 A 
ATOM     12  C   UNL     1       6.435   4.607  16.561  0.00  0.00    +0.000 A 
ATOM     13  F   UNL     1       7.534   4.850  15.830  0.00  0.00    +0.000 F 
BRANCH   9  14
ATOM     14  N   UNL     1       3.039   3.734  18.895  0.00  0.00    +0.000 N 
ATOM     15  C   UNL     1       3.118   3.245  20.254  0.00  0.00    +0.000 C 
ATOM     16  C   UNL     1       1.738   3.563  20.811  0.00  0.00    +0.000 C 
ATOM     17  N   UNL     1       0.912   3.601  19.641  0.00  0.00    +0.000 N 
ATOM     18  C   UNL     1       1.691   3.885  18.521  0.00  0.00    +0.000 C 
ATOM     19  O   UNL     1       1.211   4.192  17.443  0.00  0.00    +0.000 OA
ATOM     20  H   UNL     1      -0.065   3.860  19.613  0.00  0.00    +0.000 HD
ENDBRANCH   9  14
ENDBRANCH   4   7
BRANCH   1  21
ATOM     21  C   UNL     1       8.657   9.415  18.333  0.00  0.00    +0.000 C 
BRANCH  21  22
ATOM     22  C   UNL     1       9.555  10.049  19.390  0.00  0.00    +0.000 C 
BRANCH  22  24
ATOM     23  O   UNL     1       9.104  12.024  20.665  0.00  0.00    +0.000 OA
ATOM     24  C   UNL     1       9.275  11.526  19.556  0.00  0.00    +0.000 C 
ATOM     25  N   UNL     1       9.197  12.195  18.349  0.00  0.00    +0.000 N 
ATOM     26  H   UNL     1       9.169  11.629  17.509  0.00  0.00    +0.000 HD
BRANCH  25  27
ATOM     27  C   UNL     1       8.989  13.580  18.176  0.00  0.00    +0.000 A 
ATOM     28  C   UNL     1       7.721  14.152  18.032  0.00  0.00    +0.000 A 
ATOM     29  C   UNL     1       7.578  15.526  17.829  0.00  0.00    +0.000 A 
ATOM     30  C   UNL     1       8.702  16.344  17.772  0.00  0.00    +0.000 A 
ATOM     31  C   UNL     1       9.969  15.790  17.941  0.00  0.00    +0.000 A 
ATOM     32  C   UNL     1      10.113  14.415  18.154  0.00  0.00    +0.000 A 
ENDBRANCH  25  27
ENDBRANCH  22  24
ENDBRANCH  21  22
ENDBRANCH   1  21
TORSDOF 6
ENDMDL
MODEL 8
REMARK VINA RESULT:      -8.1      2.636      3.683
REMARK  Name = 
REMARK  6 active torsions:
REMARK  status: ('A' for Active; 'I' for Inactive)
REMARK    1  A    between atoms: C_2  and  C_3
REMARK    2  A    between atoms: C_3  and  C_4
REMARK    3  A    between atoms: C_4  and  N_5
REMARK    4  A    between atoms: N_8  and  C_9
REMARK    5  A    between atoms: C_11  and  N_12
REMARK    6  A    between atoms: N_22  and  C_23
REMARK                            x       y       z     vdW  Elec       q    Type
REMARK                         _______ _______ _______ _____ _____    ______ ____
ROOT
ATOM      1  N   UNL     1       1.487   9.066  19.591  0.00  0.00    +0.000 N 
ATOM      2  C   UNL     1       2.075   7.963  19.008  0.00  0.00    +0.000 C 
ATOM      3  O   UNL     1       2.156   7.810  17.796  0.00  0.00    +0.000 OA
ATOM      4  N   UNL     1       2.451   7.041  19.968  0.00  0.00    +0.000 N 
ATOM      5  H   UNL     1       1.989   9.394  20.412  0.00  0.00    +0.000 HD
ATOM      6  H   UNL     1       1.822   7.027  20.761  0.00  0.00    +0.000 HD
ENDROOT
BRANCH   4   7
ATOM      7  C   UNL     1       2.988   5.789  19.594  0.00  0.00    +0.000 A 
ATOM      8  C   UNL     1       4.127   5.692  18.788  0.00  0.00    +0.000 A 
ATOM      9  C   UNL     1       4.586   4.446  18.338  0.00  0.00    +0.000 A 
ATOM     10  C   UNL     1       3.884   3.292  18.721  0.00  0.00    +0.000 A 
ATOM     11  C   UNL     1       2.775   3.380  19.569  0.00  0.00    +0.000 A 
ATOM     12  C   UNL     1       2.346   4.625  20.011  0.00  0.00    +0.000 A 
ATOM     13  F   UNL     1       1.253   4.705  20.786  0.00  0.00    +0.000 F 
BRANCH   9  14
ATOM     14  N   UNL     1       5.700   4.360  17.477  0.00  0.00    +0.000 N 
ATOM     15  C   UNL     1       5.607   4.011  16.077  0.00  0.00    +0.000 C 
ATOM     16  C   UNL     1       6.913   4.543  15.505  0.00  0.00    +0.000 C 
ATOM     17  N   UNL     1       7.788   4.555  16.640  0.00  0.00    +0.000 N 
ATOM     18  C   UNL     1       7.039   4.627  17.814  0.00  0.00    +0.000 C 
ATOM     19  O   UNL     1       7.536   4.874  18.900  0.00  0.00    +0.000 OA
ATOM     20  H   UNL     1       8.730   4.921  16.659  0.00  0.00    +0.000 HD
ENDBRANCH   9  14
ENDBRANCH   4   7
BRANCH   1  21
ATOM     21  C   UNL     1       0.966  10.125  18.739  0.00  0.00    +0.000 C 
BRANCH  21  22
ATOM     22  C   UNL     1       1.205  11.512  19.326  0.00  0.00    +0.000 C 
BRANCH  22  24
ATOM     23  O   UNL     1       1.060  11.013  21.664  0.00  0.00    +0.000 OA
ATOM     24  C   UNL     1       0.612  11.647  20.712  0.00  0.00    +0.000 C 
ATOM     25  N   UNL     1      -0.474  12.501  20.749  0.00  0.00    +0.000 N 
ATOM     26  H   UNL     1      -0.851  12.806  19.860  0.00  0.00    +0.000 HD
BRANCH  25  27
ATOM     27  C   UNL     1      -1.211  12.861  21.897  0.00  0.00    +0.000 A 
ATOM     28  C   UNL     1      -2.360  12.183  22.314  0.00  0.00    +0.000 A 
ATOM     29  C   UNL     1      -3.069  12.607  23.440  0.00  0.00    +0.000 A 
ATOM     30  C   UNL     1      -2.633  13.712  24.164  0.00  0.00    +0.000 A 
ATOM     31  C   UNL     1      -1.475  14.380  23.774  0.00  0.00    +0.000 A 
ATOM     32  C   UNL     1      -0.759  13.950  22.652  0.00  0.00    +0.000 A 
ENDBRANCH  25  27
ENDBRANCH  22  24
ENDBRANCH  21  22
ENDBRANCH   1  21
TORSDOF 6
ENDMDL
MODEL 9
REMARK VINA RESULT:      -8.1      2.402      8.621
REMARK  Name = 
REMARK  6 active torsions:
REMARK  status: ('A' for Active; 'I' for Inactive)
REMARK    1  A    between atoms: C_2  and  C_3
REMARK    2  A    between atoms: C_3  and  C_4
REMARK    3  A    between atoms: C_4  and  N_5
REMARK    4  A    between atoms: N_8  and  C_9
REMARK    5  A    between atoms: C_11  and  N_12
REMARK    6  A    between atoms: N_22  and  C_23
REMARK                            x       y       z     vdW  Elec       q    Type
REMARK                         _______ _______ _______ _____ _____    ______ ____
ROOT
ATOM      1  N   UNL     1       2.378   4.547  21.382  0.00  0.00    +0.000 N 
ATOM      2  C   UNL     1       1.941   5.407  20.397  0.00  0.00    +0.000 C 
ATOM      3  O   UNL     1       1.469   5.024  19.334  0.00  0.00    +0.000 OA
ATOM      4  N   UNL     1       2.206   6.721  20.738  0.00  0.00    +0.000 N 
ATOM      5  H   UNL     1       2.140   4.864  22.318  0.00  0.00    +0.000 HD
ATOM      6  H   UNL     1       3.059   6.818  21.274  0.00  0.00    +0.000 HD
ENDROOT
BRANCH   4   7
ATOM      7  C   UNL     1       1.931   7.771  19.834  0.00  0.00    +0.000 A 
ATOM      8  C   UNL     1       0.955   8.735  20.106  0.00  0.00    +0.000 A 
ATOM      9  C   UNL     1       0.620   9.708  19.154  0.00  0.00    +0.000 A 
ATOM     10  C   UNL     1       1.290   9.702  17.920  0.00  0.00    +0.000 A 
ATOM     11  C   UNL     1       2.303   8.772  17.664  0.00  0.00    +0.000 A 
ATOM     12  C   UNL     1       2.626   7.824  18.628  0.00  0.00    +0.000 A 
ATOM     13  F   UNL     1       3.566   6.906  18.355  0.00  0.00    +0.000 F 
BRANCH   9  14
ATOM     14  N   UNL     1      -0.407  10.640  19.413  0.00  0.00    +0.000 N 
ATOM     15  C   UNL     1      -0.294  11.709  20.380  0.00  0.00    +0.000 C 
ATOM     16  C   UNL     1      -1.372  12.687  19.934  0.00  0.00    +0.000 C 
ATOM     17  N   UNL     1      -2.303  11.853  19.233  0.00  0.00    +0.000 N 
ATOM     18  C   UNL     1      -1.657  10.708  18.770  0.00  0.00    +0.000 C 
ATOM     19  O   UNL     1      -2.160   9.947  17.961  0.00  0.00    +0.000 OA
ATOM     20  H   UNL     1      -3.119  12.170  18.727  0.00  0.00    +0.000 HD
ENDBRANCH   9  14
ENDBRANCH   4   7
BRANCH   1  21
ATOM     21  C   UNL     1       2.244   3.111  21.180  0.00  0.00    +0.000 C 
BRANCH  21  22
ATOM     22  C   UNL     1       3.593   2.423  21.001  0.00  0.00    +0.000 C 
BRANCH  22  24
ATOM     23  O   UNL     1       3.881   1.624  18.762  0.00  0.00    +0.000 OA
ATOM     24  C   UNL     1       4.091   2.520  19.576  0.00  0.00    +0.000 C 
ATOM     25  N   UNL     1       4.815   3.673  19.339  0.00  0.00    +0.000 N 
ATOM     26  H   UNL     1       5.071   4.230  20.145  0.00  0.00    +0.000 HD
BRANCH  25  27
ATOM     27  C   UNL     1       5.373   4.067  18.104  0.00  0.00    +0.000 A 
ATOM     28  C   UNL     1       6.716   4.424  17.949  0.00  0.00    +0.000 A 
ATOM     29  C   UNL     1       7.204   4.840  16.709  0.00  0.00    +0.000 A 
ATOM     30  C   UNL     1       6.355   4.899  15.609  0.00  0.00    +0.000 A 
ATOM     31  C   UNL     1       5.021   4.521  15.743  0.00  0.00    +0.000 A 
ATOM     32  C   UNL     1       4.534   4.095  16.983  0.00  0.00    +0.000 A 
ENDBRANCH  25  27
ENDBRANCH  22  24
ENDBRANCH  21  22
ENDBRANCH   1  21
TORSDOF 6
ENDMDL
