MODEL 1
REMARK VINA RESULT:      -9.6      0.000      0.000
REMARK  Name = 
REMARK  6 active torsions:
REMARK  status: ('A' for Active; 'I' for Inactive)
REMARK    1  A    between atoms: C_1  and  C_2
REMARK    2  A    between atoms: C_5  and  C_6
REMARK    3  A    between atoms: C_11  and  C_13
REMARK    4  A    between atoms: C_13  and  N_14
REMARK    5  A    between atoms: C_16  and  C_17
REMARK    6  A    between atoms: C_27  and  C_28
REMARK                            x       y       z     vdW  Elec       q    Type
REMARK                         _______ _______ _______ _____ _____    ______ ____
ROOT
ATOM      1  C   UNL     1       0.626   9.829  19.951  0.00  0.00    +0.000 A 
ATOM      2  C   UNL     1       1.079  10.303  18.730  0.00  0.00    +0.000 A 
ATOM      3  S   UNL     1       2.146   9.155  18.014  0.00  0.00    +0.000 S 
ATOM      4  C   UNL     1       1.866   8.113  19.332  0.00  0.00    +0.000 A 
ATOM      5  N   UNL     1       2.514   6.915  19.293  0.00  0.00    +0.000 N 
ATOM      6  C   UNL     1       2.218   5.923  20.207  0.00  0.00    +0.000 C 
ATOM      7  O   UNL     1       1.432   6.004  21.152  0.00  0.00    +0.000 OA
ATOM      8  N   UNL     1       1.057   8.557  20.253  0.00  0.00    +0.000 NA
ATOM      9  H   UNL     1       3.153   6.719  18.533  0.00  0.00    +0.000 HD
ENDROOT
BRANCH   1  14
ATOM     10  C   UNL     1      -2.982  12.780  23.393  0.00  0.00    +0.000 C 
ATOM     11  C   UNL     1      -2.044  12.017  22.505  0.00  0.00    +0.000 A 
ATOM     12  C   UNL     1      -2.000  12.256  21.135  0.00  0.00    +0.000 A 
ATOM     13  C   UNL     1      -1.124  11.533  20.321  0.00  0.00    +0.000 A 
ATOM     14  C   UNL     1      -0.255  10.566  20.859  0.00  0.00    +0.000 A 
ATOM     15  C   UNL     1      -0.282  10.328  22.251  0.00  0.00    +0.000 A 
ATOM     16  C   UNL     1       0.601   9.342  22.977  0.00  0.00    +0.000 C 
ATOM     17  C   UNL     1      -1.192  11.050  23.051  0.00  0.00    +0.000 A 
ENDBRANCH   1  14
BRANCH   6  18
ATOM     18  C   UNL     1       3.082   4.688  20.040  0.00  0.00    +0.000 C 
BRANCH  18  19
ATOM     19  N   UNL     1       4.134   4.905  19.057  0.00  0.00    +0.000 N 
ATOM     20  N   UNL     1       5.357   5.339  19.519  0.00  0.00    +0.000 NA
ATOM     21  C   UNL     1       6.346   5.405  18.677  0.00  0.00    +0.000 A 
ATOM     22  C   UNL     1       7.676   5.895  19.199  0.00  0.00    +0.000 C 
ATOM     23  C   UNL     1       6.237   5.012  17.256  0.00  0.00    +0.000 A 
ATOM     24  C   UNL     1       7.337   4.950  16.392  0.00  0.00    +0.000 A 
ATOM     25  C   UNL     1       7.165   4.504  15.077  0.00  0.00    +0.000 A 
ATOM     26  C   UNL     1       5.904   4.137  14.619  0.00  0.00    +0.000 A 
ATOM     27  C   UNL     1       4.802   4.223  15.470  0.00  0.00    +0.000 A 
ATOM     28  C   UNL     1       4.977   4.656  16.791  0.00  0.00    +0.000 A 
ATOM     29  C   UNL     1       3.835   4.673  17.715  0.00  0.00    +0.000 A 
ATOM     30  O   UNL     1       2.707   4.450  17.289  0.00  0.00    +0.000 OA
ENDBRANCH  18  19
ENDBRANCH   6  18
TORSDOF 3
ENDMDL
MODEL 2
REMARK VINA RESULT:      -9.4      0.294      1.320
REMARK  Name = 
REMARK  6 active torsions:
REMARK  status: ('A' for Active; 'I' for Inactive)
REMARK    1  A    between atoms: C_1  and  C_2
REMARK    2  A    between atoms: C_5  and  C_6
REMARK    3  A    between atoms: C_11  and  C_13
REMARK    4  A    between atoms: C_13  and  N_14
REMARK    5  A    between atoms: C_16  and  C_17
REMARK    6  A    between atoms: C_27  and  C_28
REMARK                            x       y       z     vdW  Elec       q    Type
REMARK                         _______ _______ _______ _____ _____    ______ ____
ROOT
ATOM      1  C   UNL     1       0.615   9.781  19.907  0.00  0.00    +0.000 A 
ATOM      2  C   UNL     1       1.072  10.252  18.686  0.00  0.00    +0.000 A 
ATOM      3  S   UNL     1       2.155   9.110  17.984  0.00  0.00    +0.000 S 
ATOM      4  C   UNL     1       1.876   8.074  19.307  0.00  0.00    +0.000 A 
ATOM      5  N   UNL     1       2.536   6.882  19.280  0.00  0.00    +0.000 N 
ATOM      6  C   UNL     1       2.244   5.893  20.198  0.00  0.00    +0.000 C 
ATOM      7  O   UNL     1       1.451   5.972  21.137  0.00  0.00    +0.000 OA
ATOM      8  N   UNL     1       1.057   8.515  20.220  0.00  0.00    +0.000 NA
ATOM      9  H   UNL     1       3.182   6.688  18.525  0.00  0.00    +0.000 HD
ENDROOT
BRANCH   1  14
ATOM     10  C   UNL     1      -2.808  12.637  23.607  0.00  0.00    +0.000 C 
ATOM     11  C   UNL     1      -1.927  11.897  22.646  0.00  0.00    +0.000 A 
ATOM     12  C   UNL     1      -1.105  10.861  23.080  0.00  0.00    +0.000 A 
ATOM     13  C   UNL     1      -0.285  10.185  22.172  0.00  0.00    +0.000 A 
ATOM     14  C   UNL     1      -0.280  10.515  20.804  0.00  0.00    +0.000 A 
ATOM     15  C   UNL     1      -1.123  11.555  20.353  0.00  0.00    +0.000 A 
ATOM     16  C   UNL     1      -1.244  12.008  18.919  0.00  0.00    +0.000 C 
ATOM     17  C   UNL     1      -1.923  12.242  21.289  0.00  0.00    +0.000 A 
ENDBRANCH   1  14
BRANCH   6  18
ATOM     18  C   UNL     1       3.122   4.665  20.044  0.00  0.00    +0.000 C 
BRANCH  18  19
ATOM     19  N   UNL     1       4.172   4.884  19.060  0.00  0.00    +0.000 N 
ATOM     20  N   UNL     1       5.398   5.310  19.522  0.00  0.00    +0.000 NA
ATOM     21  C   UNL     1       6.385   5.377  18.678  0.00  0.00    +0.000 A 
ATOM     22  C   UNL     1       7.719   5.859  19.200  0.00  0.00    +0.000 C 
ATOM     23  C   UNL     1       6.272   4.993  17.255  0.00  0.00    +0.000 A 
ATOM     24  C   UNL     1       7.369   4.930  16.389  0.00  0.00    +0.000 A 
ATOM     25  C   UNL     1       7.193   4.492  15.072  0.00  0.00    +0.000 A 
ATOM     26  C   UNL     1       5.929   4.133  14.614  0.00  0.00    +0.000 A 
ATOM     27  C   UNL     1       4.829   4.218  15.469  0.00  0.00    +0.000 A 
ATOM     28  C   UNL     1       5.009   4.643  16.792  0.00  0.00    +0.000 A 
ATOM     29  C   UNL     1       3.869   4.660  17.718  0.00  0.00    +0.000 A 
ATOM     30  O   UNL     1       2.740   4.444  17.293  0.00  0.00    +0.000 OA
ENDBRANCH  18  19
ENDBRANCH   6  18
TORSDOF 3
ENDMDL
MODEL 3
REMARK VINA RESULT:      -8.8      4.647     11.055
REMARK  Name = 
REMARK  6 active torsions:
REMARK  status: ('A' for Active; 'I' for Inactive)
REMARK    1  A    between atoms: C_1  and  C_2
REMARK    2  A    between atoms: C_5  and  C_6
REMARK    3  A    between atoms: C_11  and  C_13
REMARK    4  A    between atoms: C_13  and  N_14
REMARK    5  A    between atoms: C_16  and  C_17
REMARK    6  A    between atoms: C_27  and  C_28
REMARK                            x       y       z     vdW  Elec       q    Type
REMARK                         _______ _______ _______ _____ _____    ______ ____
ROOT
ATOM      1  C   UNL     1       0.538  10.505  19.008  0.00  0.00    +0.000 A 
ATOM      2  C   UNL     1       1.016  11.734  19.431  0.00  0.00    +0.000 A 
ATOM      3  S   UNL     1      -0.214  12.930  19.270  0.00  0.00    +0.000 S 
ATOM      4  C   UNL     1      -1.281  11.719  18.725  0.00  0.00    +0.000 A 
ATOM      5  N   UNL     1      -2.546  12.130  18.425  0.00  0.00    +0.000 N 
ATOM      6  C   UNL     1      -3.541  11.210  18.156  0.00  0.00    +0.000 C 
ATOM      7  O   UNL     1      -3.414   9.987  18.092  0.00  0.00    +0.000 OA
ATOM      8  N   UNL     1      -0.791  10.514  18.648  0.00  0.00    +0.000 NA
ATOM      9  H   UNL     1      -2.778  13.113  18.488  0.00  0.00    +0.000 HD
ENDROOT
BRANCH   1  14
ATOM     10  C   UNL     1       3.781   5.715  18.675  0.00  0.00    +0.000 C 
ATOM     11  C   UNL     1       2.937   6.951  18.762  0.00  0.00    +0.000 A 
ATOM     12  C   UNL     1       2.880   7.856  17.706  0.00  0.00    +0.000 A 
ATOM     13  C   UNL     1       2.092   9.007  17.806  0.00  0.00    +0.000 A 
ATOM     14  C   UNL     1       1.328   9.273  18.957  0.00  0.00    +0.000 A 
ATOM     15  C   UNL     1       1.368   8.352  20.028  0.00  0.00    +0.000 A 
ATOM     16  C   UNL     1       0.591   8.486  21.314  0.00  0.00    +0.000 C 
ATOM     17  C   UNL     1       2.190   7.210  19.917  0.00  0.00    +0.000 A 
ENDBRANCH   1  14
BRANCH   6  18
ATOM     18  C   UNL     1      -4.861  11.860  17.787  0.00  0.00    +0.000 C 
BRANCH  18  19
ATOM     19  N   UNL     1      -5.772  11.893  18.922  0.00  0.00    +0.000 N 
ATOM     20  N   UNL     1      -6.415  10.721  19.256  0.00  0.00    +0.000 NA
ATOM     21  C   UNL     1      -7.122  10.695  20.346  0.00  0.00    +0.000 A 
ATOM     22  C   UNL     1      -7.831   9.406  20.689  0.00  0.00    +0.000 C 
ATOM     23  C   UNL     1      -7.251  11.846  21.265  0.00  0.00    +0.000 A 
ATOM     24  C   UNL     1      -7.894  11.769  22.506  0.00  0.00    +0.000 A 
ATOM     25  C   UNL     1      -7.917  12.885  23.350  0.00  0.00    +0.000 A 
ATOM     26  C   UNL     1      -7.316  14.076  22.955  0.00  0.00    +0.000 A 
ATOM     27  C   UNL     1      -6.696  14.164  21.708  0.00  0.00    +0.000 A 
ATOM     28  C   UNL     1      -6.661  13.042  20.870  0.00  0.00    +0.000 A 
ATOM     29  C   UNL     1      -5.942  13.104  19.590  0.00  0.00    +0.000 A 
ATOM     30  O   UNL     1      -5.502  14.178  19.194  0.00  0.00    +0.000 OA
ENDBRANCH  18  19
ENDBRANCH   6  18
TORSDOF 3
ENDMDL
MODEL 4
REMARK VINA RESULT:      -8.8      3.046      9.759
REMARK  Name = 
REMARK  6 active torsions:
REMARK  status: ('A' for Active; 'I' for Inactive)
REMARK    1  A    between atoms: C_1  and  C_2
REMARK    2  A    between atoms: C_5  and  C_6
REMARK    3  A    between atoms: C_11  and  C_13
REMARK    4  A    between atoms: C_13  and  N_14
REMARK    5  A    between atoms: C_16  and  C_17
REMARK    6  A    between atoms: C_27  and  C_28
REMARK                            x       y       z     vdW  Elec       q    Type
REMARK                         _______ _______ _______ _____ _____    ______ ____
ROOT
ATOM      1  C   UNL     1       3.154   6.127  18.531  0.00  0.00    +0.000 A 
ATOM      2  C   UNL     1       2.801   5.391  19.650  0.00  0.00    +0.000 A 
ATOM      3  S   UNL     1       1.824   6.349  20.699  0.00  0.00    +0.000 S 
ATOM      4  C   UNL     1       1.896   7.615  19.562  0.00  0.00    +0.000 A 
ATOM      5  N   UNL     1       1.216   8.750  19.891  0.00  0.00    +0.000 N 
ATOM      6  C   UNL     1       1.049   9.765  18.969  0.00  0.00    +0.000 C 
ATOM      7  O   UNL     1       1.513   9.806  17.829  0.00  0.00    +0.000 OA
ATOM      8  N   UNL     1       2.589   7.381  18.484  0.00  0.00    +0.000 NA
ATOM      9  H   UNL     1       0.754   8.811  20.789  0.00  0.00    +0.000 HD
ENDROOT
BRANCH   1  14
ATOM     10  C   UNL     1       6.709   4.380  14.302  0.00  0.00    +0.000 C 
ATOM     11  C   UNL     1       5.784   4.829  15.394  0.00  0.00    +0.000 A 
ATOM     12  C   UNL     1       5.710   6.169  15.764  0.00  0.00    +0.000 A 
ATOM     13  C   UNL     1       4.847   6.571  16.787  0.00  0.00    +0.000 A 
ATOM     14  C   UNL     1       4.023   5.646  17.454  0.00  0.00    +0.000 A 
ATOM     15  C   UNL     1       4.080   4.286  17.075  0.00  0.00    +0.000 A 
ATOM     16  C   UNL     1       3.246   3.184  17.679  0.00  0.00    +0.000 C 
ATOM     17  C   UNL     1       4.977   3.898  16.057  0.00  0.00    +0.000 A 
ENDBRANCH   1  14
BRANCH   6  18
ATOM     18  C   UNL     1       0.320  10.967  19.538  0.00  0.00    +0.000 C 
BRANCH  18  19
ATOM     19  N   UNL     1      -0.988  11.134  18.923  0.00  0.00    +0.000 N 
ATOM     20  N   UNL     1      -1.226  10.467  17.741  0.00  0.00    +0.000 NA
ATOM     21  C   UNL     1      -2.429  10.491  17.250  0.00  0.00    +0.000 A 
ATOM     22  C   UNL     1      -2.667   9.765  15.947  0.00  0.00    +0.000 C 
ATOM     23  C   UNL     1      -3.566  11.172  17.906  0.00  0.00    +0.000 A 
ATOM     24  C   UNL     1      -4.885  11.075  17.448  0.00  0.00    +0.000 A 
ATOM     25  C   UNL     1      -5.918  11.694  18.161  0.00  0.00    +0.000 A 
ATOM     26  C   UNL     1      -5.638  12.419  19.315  0.00  0.00    +0.000 A 
ATOM     27  C   UNL     1      -4.320  12.538  19.760  0.00  0.00    +0.000 A 
ATOM     28  C   UNL     1      -3.289  11.907  19.053  0.00  0.00    +0.000 A 
ATOM     29  C   UNL     1      -1.910  11.963  19.559  0.00  0.00    +0.000 A 
ATOM     30  O   UNL     1      -1.646  12.684  20.514  0.00  0.00    +0.000 OA
ENDBRANCH  18  19
ENDBRANCH   6  18
TORSDOF 3
ENDMDL
MODEL 5
REMARK VINA RESULT:      -8.6      1.925      9.427
REMARK  Name = 
REMARK  6 active torsions:
REMARK  status: ('A' for Active; 'I' for Inactive)
REMARK    1  A    between atoms: C_1  and  C_2
REMARK    2  A    between atoms: C_5  and  C_6
REMARK    3  A    between atoms: C_11  and  C_13
REMARK    4  A    between atoms: C_13  and  N_14
REMARK    5  A    between atoms: C_16  and  C_17
REMARK    6  A    between atoms: C_27  and  C_28
REMARK                            x       y       z     vdW  Elec       q    Type
REMARK                         _______ _______ _______ _____ _____    ______ ____
ROOT
ATOM      1  C   UNL     1       3.996   4.474  18.575  0.00  0.00    +0.000 A 
ATOM      2  C   UNL     1       3.653   3.271  19.169  0.00  0.00    +0.000 A 
ATOM      3  S   UNL     1       2.603   3.553  20.506  0.00  0.00    +0.000 S 
ATOM      4  C   UNL     1       2.637   5.218  20.145  0.00  0.00    +0.000 A 
ATOM      5  N   UNL     1       1.891   6.019  20.957  0.00  0.00    +0.000 N 
ATOM      6  C   UNL     1       1.696   7.351  20.647  0.00  0.00    +0.000 C 
ATOM      7  O   UNL     1       2.185   7.965  19.699  0.00  0.00    +0.000 OA
ATOM      8  N   UNL     1       3.368   5.569  19.125  0.00  0.00    +0.000 NA
ATOM      9  H   UNL     1       1.405   5.613  21.746  0.00  0.00    +0.000 HD
ENDROOT
BRANCH   1  14
ATOM     10  C   UNL     1       7.478   5.046  13.979  0.00  0.00    +0.000 C 
ATOM     11  C   UNL     1       6.581   4.895  15.172  0.00  0.00    +0.000 A 
ATOM     12  C   UNL     1       5.295   4.377  15.040  0.00  0.00    +0.000 A 
ATOM     13  C   UNL     1       4.470   4.247  16.161  0.00  0.00    +0.000 A 
ATOM     14  C   UNL     1       4.915   4.616  17.444  0.00  0.00    +0.000 A 
ATOM     15  C   UNL     1       6.224   5.129  17.589  0.00  0.00    +0.000 A 
ATOM     16  C   UNL     1       6.849   5.545  18.896  0.00  0.00    +0.000 C 
ATOM     17  C   UNL     1       7.031   5.275  16.441  0.00  0.00    +0.000 A 
ENDBRANCH   1  14
BRANCH   6  18
ATOM     18  C   UNL     1       0.891   8.090  21.699  0.00  0.00    +0.000 C 
BRANCH  18  19
ATOM     19  N   UNL     1       0.245   9.269  21.142  0.00  0.00    +0.000 N 
ATOM     20  N   UNL     1      -0.026   9.267  19.791  0.00  0.00    +0.000 NA
ATOM     21  C   UNL     1      -0.725  10.248  19.301  0.00  0.00    +0.000 A 
ATOM     22  C   UNL     1      -1.001  10.236  17.816  0.00  0.00    +0.000 C 
ATOM     23  C   UNL     1      -1.271  11.351  20.120  0.00  0.00    +0.000 A 
ATOM     24  C   UNL     1      -2.140  12.324  19.613  0.00  0.00    +0.000 A 
ATOM     25  C   UNL     1      -2.668  13.299  20.466  0.00  0.00    +0.000 A 
ATOM     26  C   UNL     1      -2.322  13.316  21.813  0.00  0.00    +0.000 A 
ATOM     27  C   UNL     1      -1.436  12.363  22.316  0.00  0.00    +0.000 A 
ATOM     28  C   UNL     1      -0.918  11.378  21.464  0.00  0.00    +0.000 A 
ATOM     29  C   UNL     1      -0.047  10.325  22.003  0.00  0.00    +0.000 A 
ATOM     30  O   UNL     1       0.342  10.396  23.164  0.00  0.00    +0.000 OA
ENDBRANCH  18  19
ENDBRANCH   6  18
TORSDOF 3
ENDMDL
MODEL 6
REMARK VINA RESULT:      -8.5      2.648      9.712
REMARK  Name = 
REMARK  6 active torsions:
REMARK  status: ('A' for Active; 'I' for Inactive)
REMARK    1  A    between atoms: C_1  and  C_2
REMARK    2  A    between atoms: C_5  and  C_6
REMARK    3  A    between atoms: C_11  and  C_13
REMARK    4  A    between atoms: C_13  and  N_14
REMARK    5  A    between atoms: C_16  and  C_17
REMARK    6  A    between atoms: C_27  and  C_28
REMARK                            x       y       z     vdW  Elec       q    Type
REMARK                         _______ _______ _______ _____ _____    ______ ____
ROOT
ATOM      1  C   UNL     1       2.618   6.855  18.951  0.00  0.00    +0.000 A 
ATOM      2  C   UNL     1       2.081   6.427  20.154  0.00  0.00    +0.000 A 
ATOM      3  S   UNL     1       1.262   7.730  20.929  0.00  0.00    +0.000 S 
ATOM      4  C   UNL     1       1.625   8.718  19.589  0.00  0.00    +0.000 A 
ATOM      5  N   UNL     1       1.162   9.998  19.651  0.00  0.00    +0.000 N 
ATOM      6  C   UNL     1       1.233  10.827  18.549  0.00  0.00    +0.000 C 
ATOM      7  O   UNL     1       1.746  10.562  17.461  0.00  0.00    +0.000 OA
ATOM      8  N   UNL     1       2.307   8.158  18.630  0.00  0.00    +0.000 NA
ATOM      9  H   UNL     1       0.681  10.314  20.483  0.00  0.00    +0.000 HD
ENDROOT
BRANCH   1  14
ATOM     10  C   UNL     1       5.968   3.677  15.451  0.00  0.00    +0.000 C 
ATOM     11  C   UNL     1       5.096   4.498  16.353  0.00  0.00    +0.000 A 
ATOM     12  C   UNL     1       5.464   5.788  16.725  0.00  0.00    +0.000 A 
ATOM     13  C   UNL     1       4.643   6.539  17.571  0.00  0.00    +0.000 A 
ATOM     14  C   UNL     1       3.424   6.026  18.052  0.00  0.00    +0.000 A 
ATOM     15  C   UNL     1       3.035   4.723  17.667  0.00  0.00    +0.000 A 
ATOM     16  C   UNL     1       1.753   4.046  18.082  0.00  0.00    +0.000 C 
ATOM     17  C   UNL     1       3.891   3.973  16.833  0.00  0.00    +0.000 A 
ENDBRANCH   1  14
BRANCH   6  18
ATOM     18  C   UNL     1       0.724  12.228  18.830  0.00  0.00    +0.000 C 
BRANCH  18  19
ATOM     19  N   UNL     1      -0.499  12.200  19.619  0.00  0.00    +0.000 N 
ATOM     20  N   UNL     1      -0.381  12.370  20.981  0.00  0.00    +0.000 NA
ATOM     21  C   UNL     1      -1.468  12.487  21.684  0.00  0.00    +0.000 A 
ATOM     22  C   UNL     1      -1.319  12.659  23.177  0.00  0.00    +0.000 C 
ATOM     23  C   UNL     1      -2.825  12.477  21.098  0.00  0.00    +0.000 A 
ATOM     24  C   UNL     1      -3.982  12.747  21.839  0.00  0.00    +0.000 A 
ATOM     25  C   UNL     1      -5.226  12.785  21.200  0.00  0.00    +0.000 A 
ATOM     26  C   UNL     1      -5.321  12.542  19.834  0.00  0.00    +0.000 A 
ATOM     27  C   UNL     1      -4.173  12.249  19.097  0.00  0.00    +0.000 A 
ATOM     28  C   UNL     1      -2.926  12.224  19.735  0.00  0.00    +0.000 A 
ATOM     29  C   UNL     1      -1.705  11.994  18.951  0.00  0.00    +0.000 A 
ATOM     30  O   UNL     1      -1.794  11.678  17.770  0.00  0.00    +0.000 OA
ENDBRANCH  18  19
ENDBRANCH   6  18
TORSDOF 3
ENDMDL
MODEL 7
REMARK VINA RESULT:      -8.4      3.433     10.226
REMARK  Name = 
REMARK  6 active torsions:
REMARK  status: ('A' for Active; 'I' for Inactive)
REMARK    1  A    between atoms: C_1  and  C_2
REMARK    2  A    between atoms: C_5  and  C_6
REMARK    3  A    between atoms: C_11  and  C_13
REMARK    4  A    between atoms: C_13  and  N_14
REMARK    5  A    between atoms: C_16  and  C_17
REMARK    6  A    between atoms: C_27  and  C_28
REMARK                            x       y       z     vdW  Elec       q    Type
REMARK                         _______ _______ _______ _____ _____    ______ ____
ROOT
ATOM      1  C   UNL     1       1.733   7.910  19.999  0.00  0.00    +0.000 A 
ATOM      2  C   UNL     1       1.744   7.954  21.383  0.00  0.00    +0.000 A 
ATOM      3  S   UNL     1       0.876   9.337  21.934  0.00  0.00    +0.000 S 
ATOM      4  C   UNL     1       0.508   9.716  20.315  0.00  0.00    +0.000 A 
ATOM      5  N   UNL     1      -0.254  10.830  20.123  0.00  0.00    +0.000 N 
ATOM      6  C   UNL     1      -0.767  11.126  18.875  0.00  0.00    +0.000 C 
ATOM      7  O   UNL     1      -0.568  10.504  17.831  0.00  0.00    +0.000 OA
ATOM      8  N   UNL     1       0.984   8.905  19.412  0.00  0.00    +0.000 NA
ATOM      9  H   UNL     1      -0.518  11.396  20.919  0.00  0.00    +0.000 HD
ENDROOT
BRANCH   1  14
ATOM     10  C   UNL     1       4.577   4.047  16.749  0.00  0.00    +0.000 C 
ATOM     11  C   UNL     1       3.836   5.044  17.589  0.00  0.00    +0.000 A 
ATOM     12  C   UNL     1       3.964   6.411  17.359  0.00  0.00    +0.000 A 
ATOM     13  C   UNL     1       3.271   7.328  18.154  0.00  0.00    +0.000 A 
ATOM     14  C   UNL     1       2.418   6.900  19.188  0.00  0.00    +0.000 A 
ATOM     15  C   UNL     1       2.270   5.514  19.419  0.00  0.00    +0.000 A 
ATOM     16  C   UNL     1       1.379   4.903  20.472  0.00  0.00    +0.000 C 
ATOM     17  C   UNL     1       2.999   4.607  18.621  0.00  0.00    +0.000 A 
ENDBRANCH   1  14
BRANCH   6  18
ATOM     18  C   UNL     1      -1.536  12.433  18.848  0.00  0.00    +0.000 C 
BRANCH  18  19
ATOM     19  N   UNL     1      -2.739  12.358  19.664  0.00  0.00    +0.000 N 
ATOM     20  N   UNL     1      -2.607  12.595  21.015  0.00  0.00    +0.000 NA
ATOM     21  C   UNL     1      -3.687  12.670  21.736  0.00  0.00    +0.000 A 
ATOM     22  C   UNL     1      -3.522  12.917  23.217  0.00  0.00    +0.000 C 
ATOM     23  C   UNL     1      -5.051  12.545  21.180  0.00  0.00    +0.000 A 
ATOM     24  C   UNL     1      -6.209  12.768  21.935  0.00  0.00    +0.000 A 
ATOM     25  C   UNL     1      -7.465  12.696  21.321  0.00  0.00    +0.000 A 
ATOM     26  C   UNL     1      -7.569  12.388  19.969  0.00  0.00    +0.000 A 
ATOM     27  C   UNL     1      -6.417  12.140  19.220  0.00  0.00    +0.000 A 
ATOM     28  C   UNL     1      -5.160  12.226  19.832  0.00  0.00    +0.000 A 
ATOM     29  C   UNL     1      -3.941  12.044  19.032  0.00  0.00    +0.000 A 
ATOM     30  O   UNL     1      -4.031  11.671  17.868  0.00  0.00    +0.000 OA
ENDBRANCH  18  19
ENDBRANCH   6  18
TORSDOF 3
ENDMDL
MODEL 8
REMARK VINA RESULT:      -8.4      2.155      9.536
REMARK  Name = 
REMARK  6 active torsions:
REMARK  status: ('A' for Active; 'I' for Inactive)
REMARK    1  A    between atoms: C_1  and  C_2
REMARK    2  A    between atoms: C_5  and  C_6
REMARK    3  A    between atoms: C_11  and  C_13
REMARK    4  A    between atoms: C_13  and  N_14
REMARK    5  A    between atoms: C_16  and  C_17
REMARK    6  A    between atoms: C_27  and  C_28
REMARK                            x       y       z     vdW  Elec       q    Type
REMARK                         _______ _______ _______ _____ _____    ______ ____
ROOT
ATOM      1  C   UNL     1       3.244   4.829  18.685  0.00  0.00    +0.000 A 
ATOM      2  C   UNL     1       2.746   3.684  19.284  0.00  0.00    +0.000 A 
ATOM      3  S   UNL     1       1.781   4.107  20.648  0.00  0.00    +0.000 S 
ATOM      4  C   UNL     1       2.048   5.751  20.292  0.00  0.00    +0.000 A 
ATOM      5  N   UNL     1       1.448   6.646  21.126  0.00  0.00    +0.000 N 
ATOM      6  C   UNL     1       1.440   7.995  20.825  0.00  0.00    +0.000 C 
ATOM      7  O   UNL     1       1.990   8.537  19.866  0.00  0.00    +0.000 OA
ATOM      8  N   UNL     1       2.797   6.000  19.255  0.00  0.00    +0.000 NA
ATOM      9  H   UNL     1       0.927   6.310  21.926  0.00  0.00    +0.000 HD
ENDROOT
BRANCH   1  14
ATOM     10  C   UNL     1       6.758   4.703  14.080  0.00  0.00    +0.000 C 
ATOM     11  C   UNL     1       5.852   4.740  15.274  0.00  0.00    +0.000 A 
ATOM     12  C   UNL     1       5.488   3.569  15.933  0.00  0.00    +0.000 A 
ATOM     13  C   UNL     1       4.638   3.620  17.042  0.00  0.00    +0.000 A 
ATOM     14  C   UNL     1       4.146   4.844  17.531  0.00  0.00    +0.000 A 
ATOM     15  C   UNL     1       4.524   6.039  16.878  0.00  0.00    +0.000 A 
ATOM     16  C   UNL     1       4.097   7.424  17.295  0.00  0.00    +0.000 C 
ATOM     17  C   UNL     1       5.361   5.963  15.745  0.00  0.00    +0.000 A 
ENDBRANCH   1  14
BRANCH   6  18
ATOM     18  C   UNL     1       0.778   8.836  21.900  0.00  0.00    +0.000 C 
BRANCH  18  19
ATOM     19  N   UNL     1      -0.060   9.875  21.320  0.00  0.00    +0.000 N 
ATOM     20  N   UNL     1      -0.262   9.842  19.958  0.00  0.00    +0.000 NA
ATOM     21  C   UNL     1      -1.116  10.675  19.441  0.00  0.00    +0.000 A 
ATOM     22  C   UNL     1      -1.315  10.634  17.944  0.00  0.00    +0.000 C 
ATOM     23  C   UNL     1      -1.905  11.637  20.240  0.00  0.00    +0.000 A 
ATOM     24  C   UNL     1      -2.924  12.430  19.698  0.00  0.00    +0.000 A 
ATOM     25  C   UNL     1      -3.672  13.268  20.531  0.00  0.00    +0.000 A 
ATOM     26  C   UNL     1      -3.399  13.330  21.893  0.00  0.00    +0.000 A 
ATOM     27  C   UNL     1      -2.368  12.560  22.433  0.00  0.00    +0.000 A 
ATOM     28  C   UNL     1      -1.628  11.710  21.600  0.00  0.00    +0.000 A 
ATOM     29  C   UNL     1      -0.593  10.839  22.174  0.00  0.00    +0.000 A 
ATOM     30  O   UNL     1      -0.281  10.965  23.352  0.00  0.00    +0.000 OA
ENDBRANCH  18  19
ENDBRANCH   6  18
TORSDOF 3
ENDMDL
MODEL 9
REMARK VINA RESULT:      -8.3      3.868     10.757
REMARK  Name = 
REMARK  6 active torsions:
REMARK  status: ('A' for Active; 'I' for Inactive)
REMARK    1  A    between atoms: C_1  and  C_2
REMARK    2  A    between atoms: C_5  and  C_6
REMARK    3  A    between atoms: C_11  and  C_13
REMARK    4  A    between atoms: C_13  and  N_14
REMARK    5  A    between atoms: C_16  and  C_17
REMARK    6  A    between atoms: C_27  and  C_28
REMARK                            x       y       z     vdW  Elec       q    Type
REMARK                         _______ _______ _______ _____ _____    ______ ____
ROOT
ATOM      1  C   UNL     1       1.070   8.636  20.716  0.00  0.00    +0.000 A 
ATOM      2  C   UNL     1       1.060   8.611  22.101  0.00  0.00    +0.000 A 
ATOM      3  S   UNL     1       0.133   9.932  22.705  0.00  0.00    +0.000 S 
ATOM      4  C   UNL     1      -0.228  10.376  21.101  0.00  0.00    +0.000 A 
ATOM      5  N   UNL     1      -1.029  11.468  20.951  0.00  0.00    +0.000 N 
ATOM      6  C   UNL     1      -1.537  11.806  19.712  0.00  0.00    +0.000 C 
ATOM      7  O   UNL     1      -1.300  11.244  18.642  0.00  0.00    +0.000 OA
ATOM      8  N   UNL     1       0.291   9.629  20.167  0.00  0.00    +0.000 NA
ATOM      9  H   UNL     1      -1.326  11.984  21.770  0.00  0.00    +0.000 HD
ENDROOT
BRANCH   1  14
ATOM     10  C   UNL     1       3.885   4.759  17.457  0.00  0.00    +0.000 C 
ATOM     11  C   UNL     1       3.161   5.766  18.300  0.00  0.00    +0.000 A 
ATOM     12  C   UNL     1       2.700   5.438  19.572  0.00  0.00    +0.000 A 
ATOM     13  C   UNL     1       2.023   6.386  20.342  0.00  0.00    +0.000 A 
ATOM     14  C   UNL     1       1.803   7.693  19.868  0.00  0.00    +0.000 A 
ATOM     15  C   UNL     1       2.281   8.039  18.584  0.00  0.00    +0.000 A 
ATOM     16  C   UNL     1       2.143   9.400  17.949  0.00  0.00    +0.000 C 
ATOM     17  C   UNL     1       2.940   7.059  17.813  0.00  0.00    +0.000 A 
ENDBRANCH   1  14
BRANCH   6  18
ATOM     18  C   UNL     1      -2.355  13.083  19.736  0.00  0.00    +0.000 C 
BRANCH  18  19
ATOM     19  N   UNL     1      -3.738  12.821  20.108  0.00  0.00    +0.000 N 
ATOM     20  N   UNL     1      -4.517  12.125  19.210  0.00  0.00    +0.000 NA
ATOM     21  C   UNL     1      -5.708  11.760  19.580  0.00  0.00    +0.000 A 
ATOM     22  C   UNL     1      -6.553  11.010  18.578  0.00  0.00    +0.000 C 
ATOM     23  C   UNL     1      -6.264  12.026  20.924  0.00  0.00    +0.000 A 
ATOM     24  C   UNL     1      -7.488  11.508  21.364  0.00  0.00    +0.000 A 
ATOM     25  C   UNL     1      -7.915  11.749  22.675  0.00  0.00    +0.000 A 
ATOM     26  C   UNL     1      -7.137  12.513  23.538  0.00  0.00    +0.000 A 
ATOM     27  C   UNL     1      -5.929  13.052  23.095  0.00  0.00    +0.000 A 
ATOM     28  C   UNL     1      -5.495  12.799  21.787  0.00  0.00    +0.000 A 
ATOM     29  C   UNL     1      -4.187  13.296  21.339  0.00  0.00    +0.000 A 
ATOM     30  O   UNL     1      -3.548  14.054  22.060  0.00  0.00    +0.000 OA
ENDBRANCH  18  19
ENDBRANCH   6  18
TORSDOF 3
ENDMDL
