MODEL 1
REMARK VINA RESULT:      -8.6      0.000      0.000
REMARK  Name = 
REMARK  4 active torsions:
REMARK  status: ('A' for Active; 'I' for Inactive)
REMARK    1  A    between atoms: C_1  and  C_2
REMARK    2  A    between atoms: C_8  and  C_10
REMARK    3  A    between atoms: C_14  and  N_15
REMARK    4  A    between atoms: C_19  and  C_20
REMARK                            x       y       z     vdW  Elec       q    Type
REMARK                         _______ _______ _______ _____ _____    ______ ____
ROOT
ATOM      1  C   UNL     1       3.048   6.772  19.079  0.00  0.00    +0.000 A 
ATOM      2  C   UNL     1       3.073   7.399  17.829  0.00  0.00    +0.000 A 
ATOM      3  C   UNL     1       2.379   8.592  17.612  0.00  0.00    +0.000 A 
ATOM      4  C   UNL     1       1.596   9.138  18.625  0.00  0.00    +0.000 A 
ATOM      5  C   UNL     1       1.535   8.514  19.876  0.00  0.00    +0.000 A 
ATOM      6  C   UNL     1       2.250   7.325  20.097  0.00  0.00    +0.000 A 
ENDROOT
BRANCH   1  14
ATOM      7  C   UNL     1       0.793   3.620  20.391  0.00  0.00    +0.000 C 
ATOM      8  C   UNL     1       1.644   3.975  19.166  0.00  0.00    +0.000 C 
ATOM      9  C   UNL     1       1.638   2.823  18.138  0.00  0.00    +0.000 C 
ATOM     10  O   UNL     1       2.332   1.666  18.625  0.00  0.00    +0.000 OA
ATOM     11  C   UNL     1       3.706   1.987  18.903  0.00  0.00    +0.000 C 
ATOM     12  C   UNL     1       3.810   3.089  19.963  0.00  0.00    +0.000 C 
ATOM     13  N   UNL     1       3.037   4.280  19.568  0.00  0.00    +0.000 N 
ATOM     14  C   UNL     1       3.735   5.469  19.358  0.00  0.00    +0.000 C 
ATOM     15  O   UNL     1       4.968   5.503  19.405  0.00  0.00    +0.000 OA
ENDBRANCH   1  14
BRANCH   5  16
ATOM     16  N   UNL     1       0.722   9.097  20.890  0.00  0.00    +0.000 N 
ATOM     17  N   UNL     1       0.871   8.660  22.172  0.00  0.00    +0.000 NA
ATOM     18  C   UNL     1       0.192   9.535  22.906  0.00  0.00    +0.000 A 
ATOM     19  C   UNL     1      -0.525  10.441  22.118  0.00  0.00    +0.000 A 
ATOM     20  C   UNL     1      -0.252  10.098  20.802  0.00  0.00    +0.000 A 
BRANCH  20  21
ATOM     21  C   UNL     1      -0.895  10.603  19.577  0.00  0.00    +0.000 A 
ATOM     22  C   UNL     1      -0.704  11.931  19.170  0.00  0.00    +0.000 A 
ATOM     23  C   UNL     1      -1.291  12.415  17.995  0.00  0.00    +0.000 A 
ATOM     24  C   UNL     1      -2.060  11.572  17.199  0.00  0.00    +0.000 A 
ATOM     25  C   UNL     1      -2.290  10.261  17.600  0.00  0.00    +0.000 A 
ATOM     26  C   UNL     1      -1.741   9.795  18.797  0.00  0.00    +0.000 A 
ENDBRANCH  20  21
ENDBRANCH   5  16
TORSDOF 3
ENDMDL
MODEL 2
REMARK VINA RESULT:      -8.4      1.139      1.610
REMARK  Name = 
REMARK  4 active torsions:
REMARK  status: ('A' for Active; 'I' for Inactive)
REMARK    1  A    between atoms: C_1  and  C_2
REMARK    2  A    between atoms: C_8  and  C_10
REMARK    3  A    between atoms: C_14  and  N_15
REMARK    4  A    between atoms: C_19  and  C_20
REMARK                            x       y       z     vdW  Elec       q    Type
REMARK                         _______ _______ _______ _____ _____    ______ ____
ROOT
ATOM      1  C   UNL     1       2.892   6.939  19.116  0.00  0.00    +0.000 A 
ATOM      2  C   UNL     1       2.881   7.547  17.857  0.00  0.00    +0.000 A 
ATOM      3  C   UNL     1       2.154   8.718  17.633  0.00  0.00    +0.000 A 
ATOM      4  C   UNL     1       1.372   9.260  18.649  0.00  0.00    +0.000 A 
ATOM      5  C   UNL     1       1.347   8.654  19.911  0.00  0.00    +0.000 A 
ATOM      6  C   UNL     1       2.095   7.488  20.139  0.00  0.00    +0.000 A 
ENDROOT
BRANCH   1  14
ATOM      7  C   UNL     1       0.710   3.687  20.302  0.00  0.00    +0.000 C 
ATOM      8  C   UNL     1       1.592   4.091  19.115  0.00  0.00    +0.000 C 
ATOM      9  C   UNL     1       1.667   2.954  18.072  0.00  0.00    +0.000 C 
ATOM     10  O   UNL     1       2.386   1.817  18.571  0.00  0.00    +0.000 OA
ATOM     11  C   UNL     1       3.735   2.185  18.905  0.00  0.00    +0.000 C 
ATOM     12  C   UNL     1       3.758   3.274  19.981  0.00  0.00    +0.000 C 
ATOM     13  N   UNL     1       2.956   4.441  19.574  0.00  0.00    +0.000 N 
ATOM     14  C   UNL     1       3.617   5.659  19.405  0.00  0.00    +0.000 C 
ATOM     15  O   UNL     1       4.844   5.737  19.499  0.00  0.00    +0.000 OA
ENDBRANCH   1  14
BRANCH   5  16
ATOM     16  N   UNL     1       0.535   9.232  20.928  0.00  0.00    +0.000 N 
ATOM     17  N   UNL     1      -0.091   8.402  21.809  0.00  0.00    +0.000 NA
ATOM     18  C   UNL     1      -0.548   9.206  22.763  0.00  0.00    +0.000 A 
ATOM     19  C   UNL     1      -0.370  10.557  22.444  0.00  0.00    +0.000 A 
ATOM     20  C   UNL     1       0.254  10.575  21.205  0.00  0.00    +0.000 A 
BRANCH  20  21
ATOM     21  C   UNL     1       0.498  11.731  20.326  0.00  0.00    +0.000 A 
ATOM     22  C   UNL     1       1.689  12.463  20.427  0.00  0.00    +0.000 A 
ATOM     23  C   UNL     1       1.941  13.549  19.581  0.00  0.00    +0.000 A 
ATOM     24  C   UNL     1       1.014  13.904  18.605  0.00  0.00    +0.000 A 
ATOM     25  C   UNL     1      -0.187  13.213  18.507  0.00  0.00    +0.000 A 
ATOM     26  C   UNL     1      -0.456  12.160  19.385  0.00  0.00    +0.000 A 
ENDBRANCH  20  21
ENDBRANCH   5  16
TORSDOF 3
ENDMDL
MODEL 3
REMARK VINA RESULT:      -8.2      2.891      7.675
REMARK  Name = 
REMARK  4 active torsions:
REMARK  status: ('A' for Active; 'I' for Inactive)
REMARK    1  A    between atoms: C_1  and  C_2
REMARK    2  A    between atoms: C_8  and  C_10
REMARK    3  A    between atoms: C_14  and  N_15
REMARK    4  A    between atoms: C_19  and  C_20
REMARK                            x       y       z     vdW  Elec       q    Type
REMARK                         _______ _______ _______ _____ _____    ______ ____
ROOT
ATOM      1  C   UNL     1       1.492   8.530  19.998  0.00  0.00    +0.000 A 
ATOM      2  C   UNL     1       1.817   8.883  18.684  0.00  0.00    +0.000 A 
ATOM      3  C   UNL     1       2.394   7.954  17.815  0.00  0.00    +0.000 A 
ATOM      4  C   UNL     1       2.715   6.678  18.269  0.00  0.00    +0.000 A 
ATOM      5  C   UNL     1       2.423   6.311  19.588  0.00  0.00    +0.000 A 
ATOM      6  C   UNL     1       1.825   7.241  20.454  0.00  0.00    +0.000 A 
ENDROOT
BRANCH   1  14
ATOM      7  C   UNL     1       0.651  12.335  18.750  0.00  0.00    +0.000 C 
ATOM      8  C   UNL     1      -0.118  11.114  19.269  0.00  0.00    +0.000 C 
ATOM      9  C   UNL     1      -1.634  11.400  19.324  0.00  0.00    +0.000 C 
ATOM     10  O   UNL     1      -1.959  12.373  20.329  0.00  0.00    +0.000 OA
ATOM     11  C   UNL     1      -1.562  11.902  21.628  0.00  0.00    +0.000 C 
ATOM     12  C   UNL     1      -0.053  11.645  21.683  0.00  0.00    +0.000 C 
ATOM     13  N   UNL     1       0.368  10.723  20.613  0.00  0.00    +0.000 N 
ATOM     14  C   UNL     1       0.914   9.495  20.989  0.00  0.00    +0.000 C 
ATOM     15  O   UNL     1       0.955   9.151  22.173  0.00  0.00    +0.000 OA
ENDBRANCH   1  14
BRANCH   5  16
ATOM     16  N   UNL     1       2.766   4.999  20.022  0.00  0.00    +0.000 N 
ATOM     17  N   UNL     1       2.040   4.437  21.028  0.00  0.00    +0.000 NA
ATOM     18  C   UNL     1       2.410   3.161  21.040  0.00  0.00    +0.000 A 
ATOM     19  C   UNL     1       3.476   2.914  20.168  0.00  0.00    +0.000 A 
ATOM     20  C   UNL     1       3.768   4.132  19.571  0.00  0.00    +0.000 A 
BRANCH  20  21
ATOM     21  C   UNL     1       4.920   4.475  18.720  0.00  0.00    +0.000 A 
ATOM     22  C   UNL     1       5.988   5.220  19.236  0.00  0.00    +0.000 A 
ATOM     23  C   UNL     1       7.100   5.531  18.444  0.00  0.00    +0.000 A 
ATOM     24  C   UNL     1       7.167   5.081  17.128  0.00  0.00    +0.000 A 
ATOM     25  C   UNL     1       6.105   4.369  16.585  0.00  0.00    +0.000 A 
ATOM     26  C   UNL     1       4.977   4.101  17.365  0.00  0.00    +0.000 A 
ENDBRANCH  20  21
ENDBRANCH   5  16
TORSDOF 3
ENDMDL
MODEL 4
REMARK VINA RESULT:      -8.0      3.017      7.880
REMARK  Name = 
REMARK  4 active torsions:
REMARK  status: ('A' for Active; 'I' for Inactive)
REMARK    1  A    between atoms: C_1  and  C_2
REMARK    2  A    between atoms: C_8  and  C_10
REMARK    3  A    between atoms: C_14  and  N_15
REMARK    4  A    between atoms: C_19  and  C_20
REMARK                            x       y       z     vdW  Elec       q    Type
REMARK                         _______ _______ _______ _____ _____    ______ ____
ROOT
ATOM      1  C   UNL     1       1.850   8.482  19.132  0.00  0.00    +0.000 A 
ATOM      2  C   UNL     1       1.477   8.250  20.460  0.00  0.00    +0.000 A 
ATOM      3  C   UNL     1       1.650   6.992  21.043  0.00  0.00    +0.000 A 
ATOM      4  C   UNL     1       2.135   5.931  20.284  0.00  0.00    +0.000 A 
ATOM      5  C   UNL     1       2.491   6.134  18.945  0.00  0.00    +0.000 A 
ATOM      6  C   UNL     1       2.336   7.404  18.368  0.00  0.00    +0.000 A 
ENDROOT
BRANCH   1  14
ATOM      7  C   UNL     1      -0.815  11.141  20.734  0.00  0.00    +0.000 C 
ATOM      8  C   UNL     1       0.692  11.065  20.469  0.00  0.00    +0.000 C 
ATOM      9  C   UNL     1       1.402  12.348  20.954  0.00  0.00    +0.000 C 
ATOM     10  O   UNL     1       1.044  13.489  20.161  0.00  0.00    +0.000 OA
ATOM     11  C   UNL     1       1.418  13.283  18.788  0.00  0.00    +0.000 C 
ATOM     12  C   UNL     1       0.712  12.055  18.204  0.00  0.00    +0.000 C 
ATOM     13  N   UNL     1       0.960  10.858  19.027  0.00  0.00    +0.000 N 
ATOM     14  C   UNL     1       1.649   9.796  18.440  0.00  0.00    +0.000 C 
ATOM     15  O   UNL     1       2.119   9.891  17.303  0.00  0.00    +0.000 OA
ENDBRANCH   1  14
BRANCH   5  16
ATOM     16  N   UNL     1       2.983   5.027  18.196  0.00  0.00    +0.000 N 
ATOM     17  N   UNL     1       2.145   3.977  17.963  0.00  0.00    +0.000 NA
ATOM     18  C   UNL     1       2.774   3.240  17.055  0.00  0.00    +0.000 A 
ATOM     19  C   UNL     1       4.071   3.702  16.806  0.00  0.00    +0.000 A 
ATOM     20  C   UNL     1       4.240   4.814  17.619  0.00  0.00    +0.000 A 
BRANCH  20  21
ATOM     21  C   UNL     1       5.478   5.563  17.890  0.00  0.00    +0.000 A 
ATOM     22  C   UNL     1       6.333   5.169  18.928  0.00  0.00    +0.000 A 
ATOM     23  C   UNL     1       7.525   5.859  19.181  0.00  0.00    +0.000 A 
ATOM     24  C   UNL     1       7.890   6.940  18.383  0.00  0.00    +0.000 A 
ATOM     25  C   UNL     1       7.042   7.367  17.368  0.00  0.00    +0.000 A 
ATOM     26  C   UNL     1       5.831   6.705  17.150  0.00  0.00    +0.000 A 
ENDBRANCH  20  21
ENDBRANCH   5  16
TORSDOF 3
ENDMDL
MODEL 5
REMARK VINA RESULT:      -8.0      3.034      7.972
REMARK  Name = 
REMARK  4 active torsions:
REMARK  status: ('A' for Active; 'I' for Inactive)
REMARK    1  A    between atoms: C_1  and  C_2
REMARK    2  A    between atoms: C_8  and  C_10
REMARK    3  A    between atoms: C_14  and  N_15
REMARK    4  A    between atoms: C_19  and  C_20
REMARK                            x       y       z     vdW  Elec       q    Type
REMARK                         _______ _______ _______ _____ _____    ______ ____
ROOT
ATOM      1  C   UNL     1       0.925   9.201  19.212  0.00  0.00    +0.000 A 
ATOM      2  C   UNL     1       0.806   8.714  20.518  0.00  0.00    +0.000 A 
ATOM      3  C   UNL     1       1.572   7.629  20.950  0.00  0.00    +0.000 A 
ATOM      4  C   UNL     1       2.418   6.973  20.061  0.00  0.00    +0.000 A 
ATOM      5  C   UNL     1       2.534   7.426  18.742  0.00  0.00    +0.000 A 
ATOM      6  C   UNL     1       1.778   8.530  18.315  0.00  0.00    +0.000 A 
ENDROOT
BRANCH   1  14
ATOM      7  C   UNL     1       0.118  12.361  21.682  0.00  0.00    +0.000 C 
ATOM      8  C   UNL     1       0.879  12.107  20.376  0.00  0.00    +0.000 C 
ATOM      9  C   UNL     1       1.532  13.406  19.856  0.00  0.00    +0.000 C 
ATOM     10  O   UNL     1       0.552  14.359  19.418  0.00  0.00    +0.000 OA
ATOM     11  C   UNL     1      -0.233  13.812  18.345  0.00  0.00    +0.000 C 
ATOM     12  C   UNL     1      -0.967  12.543  18.791  0.00  0.00    +0.000 C 
ATOM     13  N   UNL     1      -0.026  11.552  19.343  0.00  0.00    +0.000 N 
ATOM     14  C   UNL     1       0.098  10.332  18.678  0.00  0.00    +0.000 C 
ATOM     15  O   UNL     1      -0.484  10.125  17.610  0.00  0.00    +0.000 OA
ENDBRANCH   1  14
BRANCH   5  16
ATOM     16  N   UNL     1       3.407   6.731  17.857  0.00  0.00    +0.000 N 
ATOM     17  N   UNL     1       4.101   7.452  16.932  0.00  0.00    +0.000 NA
ATOM     18  C   UNL     1       4.993   6.598  16.441  0.00  0.00    +0.000 A 
ATOM     19  C   UNL     1       4.794   5.297  16.913  0.00  0.00    +0.000 A 
ATOM     20  C   UNL     1       3.702   5.366  17.766  0.00  0.00    +0.000 A 
BRANCH  20  21
ATOM     21  C   UNL     1       2.954   4.256  18.380  0.00  0.00    +0.000 A 
ATOM     22  C   UNL     1       3.529   3.492  19.405  0.00  0.00    +0.000 A 
ATOM     23  C   UNL     1       2.819   2.450  20.012  0.00  0.00    +0.000 A 
ATOM     24  C   UNL     1       1.514   2.170  19.616  0.00  0.00    +0.000 A 
ATOM     25  C   UNL     1       0.935   2.893  18.579  0.00  0.00    +0.000 A 
ATOM     26  C   UNL     1       1.665   3.901  17.945  0.00  0.00    +0.000 A 
ENDBRANCH  20  21
ENDBRANCH   5  16
TORSDOF 3
ENDMDL
MODEL 6
REMARK VINA RESULT:      -7.9      3.018      7.648
REMARK  Name = 
REMARK  4 active torsions:
REMARK  status: ('A' for Active; 'I' for Inactive)
REMARK    1  A    between atoms: C_1  and  C_2
REMARK    2  A    between atoms: C_8  and  C_10
REMARK    3  A    between atoms: C_14  and  N_15
REMARK    4  A    between atoms: C_19  and  C_20
REMARK                            x       y       z     vdW  Elec       q    Type
REMARK                         _______ _______ _______ _____ _____    ______ ____
ROOT
ATOM      1  C   UNL     1       1.345   9.226  19.898  0.00  0.00    +0.000 A 
ATOM      2  C   UNL     1       1.631   9.568  18.573  0.00  0.00    +0.000 A 
ATOM      3  C   UNL     1       2.163   8.626  17.689  0.00  0.00    +0.000 A 
ATOM      4  C   UNL     1       2.478   7.347  18.137  0.00  0.00    +0.000 A 
ATOM      5  C   UNL     1       2.224   6.989  19.467  0.00  0.00    +0.000 A 
ATOM      6  C   UNL     1       1.671   7.932  20.348  0.00  0.00    +0.000 A 
ENDROOT
BRANCH   1  14
ATOM      7  C   UNL     1      -0.015  12.848  18.566  0.00  0.00    +0.000 C 
ATOM      8  C   UNL     1      -0.587  11.604  19.257  0.00  0.00    +0.000 C 
ATOM      9  C   UNL     1      -2.102  11.761  19.508  0.00  0.00    +0.000 C 
ATOM     10  O   UNL     1      -2.380  12.770  20.491  0.00  0.00    +0.000 OA
ATOM     11  C   UNL     1      -1.768  12.427  21.746  0.00  0.00    +0.000 C 
ATOM     12  C   UNL     1      -0.248  12.305  21.603  0.00  0.00    +0.000 C 
ATOM     13  N   UNL     1       0.110  11.351  20.539  0.00  0.00    +0.000 N 
ATOM     14  C   UNL     1       0.816  10.204  20.904  0.00  0.00    +0.000 C 
ATOM     15  O   UNL     1       1.048   9.947  22.088  0.00  0.00    +0.000 OA
ENDBRANCH   1  14
BRANCH   5  16
ATOM     16  N   UNL     1       2.561   5.674  19.895  0.00  0.00    +0.000 N 
ATOM     17  N   UNL     1       1.933   5.168  20.993  0.00  0.00    +0.000 NA
ATOM     18  C   UNL     1       2.249   3.877  20.997  0.00  0.00    +0.000 A 
ATOM     19  C   UNL     1       3.195   3.563  20.016  0.00  0.00    +0.000 A 
ATOM     20  C   UNL     1       3.467   4.753  19.356  0.00  0.00    +0.000 A 
BRANCH  20  21
ATOM     21  C   UNL     1       4.526   5.024  18.370  0.00  0.00    +0.000 A 
ATOM     22  C   UNL     1       4.361   4.650  17.029  0.00  0.00    +0.000 A 
ATOM     23  C   UNL     1       5.351   4.925  16.078  0.00  0.00    +0.000 A 
ATOM     24  C   UNL     1       6.510   5.599  16.450  0.00  0.00    +0.000 A 
ATOM     25  C   UNL     1       6.709   5.951  17.780  0.00  0.00    +0.000 A 
ATOM     26  C   UNL     1       5.740   5.633  18.735  0.00  0.00    +0.000 A 
ENDBRANCH  20  21
ENDBRANCH   5  16
TORSDOF 3
ENDMDL
MODEL 7
REMARK VINA RESULT:      -7.9      3.430      7.819
REMARK  Name = 
REMARK  4 active torsions:
REMARK  status: ('A' for Active; 'I' for Inactive)
REMARK    1  A    between atoms: C_1  and  C_2
REMARK    2  A    between atoms: C_8  and  C_10
REMARK    3  A    between atoms: C_14  and  N_15
REMARK    4  A    between atoms: C_19  and  C_20
REMARK                            x       y       z     vdW  Elec       q    Type
REMARK                         _______ _______ _______ _____ _____    ______ ____
ROOT
ATOM      1  C   UNL     1       2.549   7.040  18.990  0.00  0.00    +0.000 A 
ATOM      2  C   UNL     1       2.138   6.117  19.956  0.00  0.00    +0.000 A 
ATOM      3  C   UNL     1       2.672   4.827  19.987  0.00  0.00    +0.000 A 
ATOM      4  C   UNL     1       3.575   4.421  19.009  0.00  0.00    +0.000 A 
ATOM      5  C   UNL     1       3.982   5.320  18.016  0.00  0.00    +0.000 A 
ATOM      6  C   UNL     1       3.458   6.624  17.999  0.00  0.00    +0.000 A 
ENDROOT
BRANCH   1  14
ATOM      7  C   UNL     1      -0.467   8.117  21.537  0.00  0.00    +0.000 C 
ATOM      8  C   UNL     1       0.981   8.531  21.253  0.00  0.00    +0.000 C 
ATOM      9  C   UNL     1       1.427   9.664  22.203  0.00  0.00    +0.000 C 
ATOM     10  O   UNL     1       0.735  10.892  21.933  0.00  0.00    +0.000 OA
ATOM     11  C   UNL     1       0.997  11.329  20.589  0.00  0.00    +0.000 C 
ATOM     12  C   UNL     1       0.532  10.285  19.570  0.00  0.00    +0.000 C 
ATOM     13  N   UNL     1       1.134   8.968  19.846  0.00  0.00    +0.000 N 
ATOM     14  C   UNL     1       1.980   8.423  18.879  0.00  0.00    +0.000 C 
ATOM     15  O   UNL     1       2.292   9.062  17.871  0.00  0.00    +0.000 OA
ENDBRANCH   1  14
BRANCH   5  16
ATOM     16  N   UNL     1       4.905   4.873  17.028  0.00  0.00    +0.000 N 
ATOM     17  N   UNL     1       4.588   3.768  16.297  0.00  0.00    +0.000 NA
ATOM     18  C   UNL     1       5.485   3.745  15.317  0.00  0.00    +0.000 A 
ATOM     19  C   UNL     1       6.473   4.721  15.483  0.00  0.00    +0.000 A 
ATOM     20  C   UNL     1       6.146   5.397  16.649  0.00  0.00    +0.000 A 
BRANCH  20  21
ATOM     21  C   UNL     1       6.952   6.387  17.383  0.00  0.00    +0.000 A 
ATOM     22  C   UNL     1       7.672   6.011  18.525  0.00  0.00    +0.000 A 
ATOM     23  C   UNL     1       8.461   6.938  19.217  0.00  0.00    +0.000 A 
ATOM     24  C   UNL     1       8.557   8.250  18.763  0.00  0.00    +0.000 A 
ATOM     25  C   UNL     1       7.826   8.654  17.652  0.00  0.00    +0.000 A 
ATOM     26  C   UNL     1       7.004   7.737  16.992  0.00  0.00    +0.000 A 
ENDBRANCH  20  21
ENDBRANCH   5  16
TORSDOF 3
ENDMDL
MODEL 8
REMARK VINA RESULT:      -7.9      1.705      2.761
REMARK  Name = 
REMARK  4 active torsions:
REMARK  status: ('A' for Active; 'I' for Inactive)
REMARK    1  A    between atoms: C_1  and  C_2
REMARK    2  A    between atoms: C_8  and  C_10
REMARK    3  A    between atoms: C_14  and  N_15
REMARK    4  A    between atoms: C_19  and  C_20
REMARK                            x       y       z     vdW  Elec       q    Type
REMARK                         _______ _______ _______ _____ _____    ______ ____
ROOT
ATOM      1  C   UNL     1       1.849   7.874  19.590  0.00  0.00    +0.000 A 
ATOM      2  C   UNL     1       1.317   7.514  20.832  0.00  0.00    +0.000 A 
ATOM      3  C   UNL     1       0.565   8.423  21.580  0.00  0.00    +0.000 A 
ATOM      4  C   UNL     1       0.393   9.727  21.126  0.00  0.00    +0.000 A 
ATOM      5  C   UNL     1       0.938  10.118  19.897  0.00  0.00    +0.000 A 
ATOM      6  C   UNL     1       1.676   9.195  19.137  0.00  0.00    +0.000 A 
ENDROOT
BRANCH   1  14
ATOM      7  C   UNL     1       2.478   4.060  20.932  0.00  0.00    +0.000 C 
ATOM      8  C   UNL     1       1.802   4.747  19.740  0.00  0.00    +0.000 C 
ATOM      9  C   UNL     1       1.174   3.706  18.788  0.00  0.00    +0.000 C 
ATOM     10  O   UNL     1       2.173   2.922  18.119  0.00  0.00    +0.000 OA
ATOM     11  C   UNL     1       3.028   3.768  17.330  0.00  0.00    +0.000 C 
ATOM     12  C   UNL     1       3.740   4.801  18.207  0.00  0.00    +0.000 C 
ATOM     13  N   UNL     1       2.774   5.583  18.999  0.00  0.00    +0.000 N 
ATOM     14  C   UNL     1       2.699   6.956  18.763  0.00  0.00    +0.000 C 
ATOM     15  O   UNL     1       3.349   7.485  17.857  0.00  0.00    +0.000 OA
ENDBRANCH   1  14
BRANCH   5  16
ATOM     16  N   UNL     1       0.745  11.460  19.462  0.00  0.00    +0.000 N 
ATOM     17  N   UNL     1       1.655  12.402  19.840  0.00  0.00    +0.000 NA
ATOM     18  C   UNL     1       1.366  13.466  19.099  0.00  0.00    +0.000 A 
ATOM     19  C   UNL     1       0.192  13.290  18.359  0.00  0.00    +0.000 A 
ATOM     20  C   UNL     1      -0.263  12.016  18.666  0.00  0.00    +0.000 A 
BRANCH  20  21
ATOM     21  C   UNL     1      -1.554  11.401  18.314  0.00  0.00    +0.000 A 
ATOM     22  C   UNL     1      -2.753  11.939  18.798  0.00  0.00    +0.000 A 
ATOM     23  C   UNL     1      -3.988  11.378  18.451  0.00  0.00    +0.000 A 
ATOM     24  C   UNL     1      -4.040  10.282  17.594  0.00  0.00    +0.000 A 
ATOM     25  C   UNL     1      -2.862   9.711  17.128  0.00  0.00    +0.000 A 
ATOM     26  C   UNL     1      -1.631  10.246  17.515  0.00  0.00    +0.000 A 
ENDBRANCH  20  21
ENDBRANCH   5  16
TORSDOF 3
ENDMDL
MODEL 9
REMARK VINA RESULT:      -7.9      3.167      8.032
REMARK  Name = 
REMARK  4 active torsions:
REMARK  status: ('A' for Active; 'I' for Inactive)
REMARK    1  A    between atoms: C_1  and  C_2
REMARK    2  A    between atoms: C_8  and  C_10
REMARK    3  A    between atoms: C_14  and  N_15
REMARK    4  A    between atoms: C_19  and  C_20
REMARK                            x       y       z     vdW  Elec       q    Type
REMARK                         _______ _______ _______ _____ _____    ______ ____
ROOT
ATOM      1  C   UNL     1       0.570   9.719  19.583  0.00  0.00    +0.000 A 
ATOM      2  C   UNL     1       0.361   9.276  20.893  0.00  0.00    +0.000 A 
ATOM      3  C   UNL     1       1.037   8.158  21.387  0.00  0.00    +0.000 A 
ATOM      4  C   UNL     1       1.879   7.427  20.555  0.00  0.00    +0.000 A 
ATOM      5  C   UNL     1       2.083   7.836  19.232  0.00  0.00    +0.000 A 
ATOM      6  C   UNL     1       1.418   8.973  18.744  0.00  0.00    +0.000 A 
ENDROOT
BRANCH   1  14
ATOM      7  C   UNL     1      -0.036  13.038  21.898  0.00  0.00    +0.000 C 
ATOM      8  C   UNL     1       0.726  12.669  20.620  0.00  0.00    +0.000 C 
ATOM      9  C   UNL     1       1.485  13.891  20.058  0.00  0.00    +0.000 C 
ATOM     10  O   UNL     1       0.588  14.894  19.560  0.00  0.00    +0.000 OA
ATOM     11  C   UNL     1      -0.218  14.361  18.495  0.00  0.00    +0.000 C 
ATOM     12  C   UNL     1      -1.054  13.173  18.980  0.00  0.00    +0.000 C 
ATOM     13  N   UNL     1      -0.201  12.139  19.593  0.00  0.00    +0.000 N 
ATOM     14  C   UNL     1      -0.159  10.885  18.984  0.00  0.00    +0.000 C 
ATOM     15  O   UNL     1      -0.737  10.674  17.915  0.00  0.00    +0.000 OA
ENDBRANCH   1  14
BRANCH   5  16
ATOM     16  N   UNL     1       2.949   7.065  18.406  0.00  0.00    +0.000 N 
ATOM     17  N   UNL     1       3.614   7.694  17.396  0.00  0.00    +0.000 NA
ATOM     18  C   UNL     1       4.509   6.807  16.977  0.00  0.00    +0.000 A 
ATOM     19  C   UNL     1       4.340   5.559  17.586  0.00  0.00    +0.000 A 
ATOM     20  C   UNL     1       3.264   5.702  18.450  0.00  0.00    +0.000 A 
BRANCH  20  21
ATOM     21  C   UNL     1       2.546   4.651  19.192  0.00  0.00    +0.000 A 
ATOM     22  C   UNL     1       1.464   3.981  18.606  0.00  0.00    +0.000 A 
ATOM     23  C   UNL     1       0.789   2.964  19.291  0.00  0.00    +0.000 A 
ATOM     24  C   UNL     1       1.203   2.587  20.566  0.00  0.00    +0.000 A 
ATOM     25  C   UNL     1       2.253   3.259  21.179  0.00  0.00    +0.000 A 
ATOM     26  C   UNL     1       2.893   4.305  20.510  0.00  0.00    +0.000 A 
ENDBRANCH  20  21
ENDBRANCH   5  16
TORSDOF 3
ENDMDL
