MODEL 1
REMARK VINA RESULT:      -8.5      0.000      0.000
REMARK  Name = 
REMARK  7 active torsions:
REMARK  status: ('A' for Active; 'I' for Inactive)
REMARK    1  A    between atoms: C_1  and  C_2
REMARK    2  A    between atoms: C_5  and  C_6
REMARK    3  A    between atoms: C_6  and  N_7
REMARK    4  A    between atoms: C_11  and  N_12
REMARK    5  A    between atoms: C_13  and  C_15
REMARK    6  A    between atoms: C_19  and  C_20
REMARK    7  A    between atoms: C_20  and  N_21
REMARK                            x       y       z     vdW  Elec       q    Type
REMARK                         _______ _______ _______ _____ _____    ______ ____
ROOT
ATOM      1  N   UNL     1       4.075   6.501  18.434  0.00  0.00    +0.000 N 
ATOM      2  C   UNL     1       3.218   7.504  17.842  0.00  0.00    +0.000 C 
ATOM      3  O   UNL     1       3.362   7.856  16.681  0.00  0.00    +0.000 OA
ATOM      4  H   UNL     1       4.002   6.315  19.424  0.00  0.00    +0.000 HD
ENDROOT
BRANCH   2   5
ATOM      5  C   UNL     1       2.231   8.182  18.723  0.00  0.00    +0.000 A 
ATOM      6  C   UNL     1       1.986   7.615  19.984  0.00  0.00    +0.000 A 
ATOM      7  C   UNL     1       1.046   8.186  20.841  0.00  0.00    +0.000 A 
ATOM      8  C   UNL     1       0.346   9.327  20.449  0.00  0.00    +0.000 A 
ATOM      9  C   UNL     1       0.588   9.920  19.199  0.00  0.00    +0.000 A 
ATOM     10  C   UNL     1       1.554   9.350  18.344  0.00  0.00    +0.000 A 
BRANCH   9  11
ATOM     11  C   UNL     1      -0.194  11.147  18.778  0.00  0.00    +0.000 C 
BRANCH  11  12
ATOM     12  N   UNL     1      -1.471  10.845  18.168  0.00  0.00    +0.000 N 
ATOM     13  C   UNL     1      -1.654   9.806  17.184  0.00  0.00    +0.000 C 
ATOM     14  C   UNL     1      -3.056  10.062  16.658  0.00  0.00    +0.000 C 
ATOM     15  C   UNL     1      -3.780  10.699  17.838  0.00  0.00    +0.000 C 
ATOM     16  C   UNL     1      -2.670  11.414  18.568  0.00  0.00    +0.000 C 
ATOM     17  O   UNL     1      -2.807  12.291  19.407  0.00  0.00    +0.000 OA
ENDBRANCH  11  12
ENDBRANCH   9  11
ENDBRANCH   2   5
BRANCH   1  22
ATOM     18  N   UNL     1       4.865   4.703  16.890  0.00  0.00    +0.000 N 
ATOM     19  N   UNL     1       6.014   4.253  16.332  0.00  0.00    +0.000 NA
ATOM     20  C   UNL     1       6.939   5.105  16.773  0.00  0.00    +0.000 A 
ATOM     21  C   UNL     1       6.400   6.077  17.626  0.00  0.00    +0.000 A 
ATOM     22  C   UNL     1       5.047   5.807  17.704  0.00  0.00    +0.000 A 
BRANCH  18  23
ATOM     23  C   UNL     1       3.660   3.904  16.706  0.00  0.00    +0.000 C 
BRANCH  23  28
ATOM     24  C   UNL     1       1.288   2.658  21.881  0.00  0.00    +0.000 C 
ATOM     25  C   UNL     1       1.884   2.907  20.526  0.00  0.00    +0.000 A 
ATOM     26  C   UNL     1       3.183   2.491  20.224  0.00  0.00    +0.000 A 
ATOM     27  C   UNL     1       3.748   2.783  18.979  0.00  0.00    +0.000 A 
ATOM     28  C   UNL     1       3.022   3.492  18.008  0.00  0.00    +0.000 A 
ATOM     29  C   UNL     1       1.719   3.905  18.317  0.00  0.00    +0.000 A 
ATOM     30  C   UNL     1       1.155   3.611  19.561  0.00  0.00    +0.000 A 
ENDBRANCH  23  28
ENDBRANCH  18  23
ENDBRANCH   1  22
TORSDOF 6
ENDMDL
MODEL 2
REMARK VINA RESULT:      -8.3      1.257      1.514
REMARK  Name = 
REMARK  7 active torsions:
REMARK  status: ('A' for Active; 'I' for Inactive)
REMARK    1  A    between atoms: C_1  and  C_2
REMARK    2  A    between atoms: C_5  and  C_6
REMARK    3  A    between atoms: C_6  and  N_7
REMARK    4  A    between atoms: C_11  and  N_12
REMARK    5  A    between atoms: C_13  and  C_15
REMARK    6  A    between atoms: C_19  and  C_20
REMARK    7  A    between atoms: C_20  and  N_21
REMARK                            x       y       z     vdW  Elec       q    Type
REMARK                         _______ _______ _______ _____ _____    ______ ____
ROOT
ATOM      1  N   UNL     1       3.528   6.564  17.708  0.00  0.00    +0.000 N 
ATOM      2  C   UNL     1       3.231   6.618  19.121  0.00  0.00    +0.000 C 
ATOM      3  O   UNL     1       3.726   5.822  19.904  0.00  0.00    +0.000 OA
ATOM      4  H   UNL     1       3.017   7.163  17.075  0.00  0.00    +0.000 HD
ENDROOT
BRANCH   2   5
ATOM      5  C   UNL     1       2.211   7.598  19.580  0.00  0.00    +0.000 A 
ATOM      6  C   UNL     1       1.538   7.323  20.781  0.00  0.00    +0.000 A 
ATOM      7  C   UNL     1       0.547   8.187  21.246  0.00  0.00    +0.000 A 
ATOM      8  C   UNL     1       0.221   9.331  20.518  0.00  0.00    +0.000 A 
ATOM      9  C   UNL     1       0.894   9.635  19.324  0.00  0.00    +0.000 A 
ATOM     10  C   UNL     1       1.909   8.767  18.868  0.00  0.00    +0.000 A 
BRANCH   9  11
ATOM     11  C   UNL     1       0.516  10.870  18.533  0.00  0.00    +0.000 C 
BRANCH  11  12
ATOM     12  N   UNL     1      -0.890  11.205  18.610  0.00  0.00    +0.000 N 
ATOM     13  C   UNL     1      -1.403  12.298  19.399  0.00  0.00    +0.000 C 
ATOM     14  C   UNL     1      -2.905  12.071  19.383  0.00  0.00    +0.000 C 
ATOM     15  C   UNL     1      -3.154  11.366  18.055  0.00  0.00    +0.000 C 
ATOM     16  C   UNL     1      -1.867  10.612  17.827  0.00  0.00    +0.000 C 
ATOM     17  O   UNL     1      -1.702   9.689  17.045  0.00  0.00    +0.000 OA
ENDBRANCH  11  12
ENDBRANCH   9  11
ENDBRANCH   2   5
BRANCH   1  22
ATOM     18  N   UNL     1       4.220   4.420  16.630  0.00  0.00    +0.000 N 
ATOM     19  N   UNL     1       5.342   3.798  16.195  0.00  0.00    +0.000 NA
ATOM     20  C   UNL     1       6.310   4.684  16.426  0.00  0.00    +0.000 A 
ATOM     21  C   UNL     1       5.824   5.854  17.026  0.00  0.00    +0.000 A 
ATOM     22  C   UNL     1       4.461   5.674  17.162  0.00  0.00    +0.000 A 
BRANCH  18  23
ATOM     23  C   UNL     1       2.977   3.658  16.635  0.00  0.00    +0.000 C 
BRANCH  23  28
ATOM     24  C   UNL     1       1.340   2.535  22.114  0.00  0.00    +0.000 C 
ATOM     25  C   UNL     1       1.746   2.752  20.684  0.00  0.00    +0.000 A 
ATOM     26  C   UNL     1       3.001   2.349  20.225  0.00  0.00    +0.000 A 
ATOM     27  C   UNL     1       3.389   2.611  18.908  0.00  0.00    +0.000 A 
ATOM     28  C   UNL     1       2.526   3.276  18.022  0.00  0.00    +0.000 A 
ATOM     29  C   UNL     1       1.268   3.677  18.489  0.00  0.00    +0.000 A 
ATOM     30  C   UNL     1       0.881   3.413  19.806  0.00  0.00    +0.000 A 
ENDBRANCH  23  28
ENDBRANCH  18  23
ENDBRANCH   1  22
TORSDOF 6
ENDMDL
MODEL 3
REMARK VINA RESULT:      -8.3      2.440      8.447
REMARK  Name = 
REMARK  7 active torsions:
REMARK  status: ('A' for Active; 'I' for Inactive)
REMARK    1  A    between atoms: C_1  and  C_2
REMARK    2  A    between atoms: C_5  and  C_6
REMARK    3  A    between atoms: C_6  and  N_7
REMARK    4  A    between atoms: C_11  and  N_12
REMARK    5  A    between atoms: C_13  and  C_15
REMARK    6  A    between atoms: C_19  and  C_20
REMARK    7  A    between atoms: C_20  and  N_21
REMARK                            x       y       z     vdW  Elec       q    Type
REMARK                         _______ _______ _______ _____ _____    ______ ____
ROOT
ATOM      1  N   UNL     1       1.919   7.801  19.605  0.00  0.00    +0.000 N 
ATOM      2  C   UNL     1       1.982   6.370  19.798  0.00  0.00    +0.000 C 
ATOM      3  O   UNL     1       1.614   5.854  20.841  0.00  0.00    +0.000 OA
ATOM      4  H   UNL     1       2.334   8.204  18.778  0.00  0.00    +0.000 HD
ENDROOT
BRANCH   2   5
ATOM      5  C   UNL     1       2.621   5.553  18.732  0.00  0.00    +0.000 A 
ATOM      6  C   UNL     1       2.059   4.298  18.448  0.00  0.00    +0.000 A 
ATOM      7  C   UNL     1       2.634   3.471  17.484  0.00  0.00    +0.000 A 
ATOM      8  C   UNL     1       3.771   3.891  16.794  0.00  0.00    +0.000 A 
ATOM      9  C   UNL     1       4.340   5.149  17.049  0.00  0.00    +0.000 A 
ATOM     10  C   UNL     1       3.743   5.989  18.013  0.00  0.00    +0.000 A 
BRANCH   9  11
ATOM     11  C   UNL     1       5.587   5.583  16.307  0.00  0.00    +0.000 C 
BRANCH  11  12
ATOM     12  N   UNL     1       6.576   6.220  17.149  0.00  0.00    +0.000 N 
ATOM     13  C   UNL     1       6.738   7.650  17.240  0.00  0.00    +0.000 C 
ATOM     14  C   UNL     1       8.044   7.810  18.001  0.00  0.00    +0.000 C 
ATOM     15  C   UNL     1       8.112   6.565  18.877  0.00  0.00    +0.000 C 
ATOM     16  C   UNL     1       7.366   5.538  18.060  0.00  0.00    +0.000 C 
ATOM     17  O   UNL     1       7.403   4.327  18.219  0.00  0.00    +0.000 OA
ENDBRANCH  11  12
ENDBRANCH   9  11
ENDBRANCH   2   5
BRANCH   1  22
ATOM     18  N   UNL     1       0.730   9.882  20.309  0.00  0.00    +0.000 N 
ATOM     19  N   UNL     1       0.296  10.491  21.438  0.00  0.00    +0.000 NA
ATOM     20  C   UNL     1       0.620   9.637  22.408  0.00  0.00    +0.000 A 
ATOM     21  C   UNL     1       1.277   8.501  21.915  0.00  0.00    +0.000 A 
ATOM     22  C   UNL     1       1.351   8.668  20.546  0.00  0.00    +0.000 A 
BRANCH  18  23
ATOM     23  C   UNL     1       0.640  10.623  19.057  0.00  0.00    +0.000 C 
BRANCH  23  28
ATOM     24  C   UNL     1      -4.667  11.216  16.727  0.00  0.00    +0.000 C 
ATOM     25  C   UNL     1      -3.332  11.029  17.387  0.00  0.00    +0.000 A 
ATOM     26  C   UNL     1      -2.902  11.892  18.397  0.00  0.00    +0.000 A 
ATOM     27  C   UNL     1      -1.632  11.744  18.962  0.00  0.00    +0.000 A 
ATOM     28  C   UNL     1      -0.768  10.724  18.531  0.00  0.00    +0.000 A 
ATOM     29  C   UNL     1      -1.206   9.860  17.518  0.00  0.00    +0.000 A 
ATOM     30  C   UNL     1      -2.477  10.009  16.956  0.00  0.00    +0.000 A 
ENDBRANCH  23  28
ENDBRANCH  18  23
ENDBRANCH   1  22
TORSDOF 6
ENDMDL
MODEL 4
REMARK VINA RESULT:      -8.2      2.053      4.159
REMARK  Name = 
REMARK  7 active torsions:
REMARK  status: ('A' for Active; 'I' for Inactive)
REMARK    1  A    between atoms: C_1  and  C_2
REMARK    2  A    between atoms: C_5  and  C_6
REMARK    3  A    between atoms: C_6  and  N_7
REMARK    4  A    between atoms: C_11  and  N_12
REMARK    5  A    between atoms: C_13  and  C_15
REMARK    6  A    between atoms: C_19  and  C_20
REMARK    7  A    between atoms: C_20  and  N_21
REMARK                            x       y       z     vdW  Elec       q    Type
REMARK                         _______ _______ _______ _____ _____    ______ ____
ROOT
ATOM      1  N   UNL     1       2.184   5.081  18.371  0.00  0.00    +0.000 N 
ATOM      2  C   UNL     1       2.862   6.115  19.119  0.00  0.00    +0.000 C 
ATOM      3  O   UNL     1       3.821   5.858  19.830  0.00  0.00    +0.000 OA
ATOM      4  H   UNL     1       1.329   5.309  17.884  0.00  0.00    +0.000 HD
ENDROOT
BRANCH   2   5
ATOM      5  C   UNL     1       2.286   7.486  19.091  0.00  0.00    +0.000 A 
ATOM      6  C   UNL     1       2.395   8.214  17.895  0.00  0.00    +0.000 A 
ATOM      7  C   UNL     1       1.904   9.516  17.817  0.00  0.00    +0.000 A 
ATOM      8  C   UNL     1       1.299  10.102  18.929  0.00  0.00    +0.000 A 
ATOM      9  C   UNL     1       1.164   9.386  20.130  0.00  0.00    +0.000 A 
ATOM     10  C   UNL     1       1.645   8.062  20.197  0.00  0.00    +0.000 A 
BRANCH   9  11
ATOM     11  C   UNL     1       0.524  10.042  21.336  0.00  0.00    +0.000 C 
BRANCH  11  12
ATOM     12  N   UNL     1      -0.531  10.974  21.002  0.00  0.00    +0.000 N 
ATOM     13  C   UNL     1      -1.278  10.919  19.770  0.00  0.00    +0.000 C 
ATOM     14  C   UNL     1      -2.043  12.232  19.762  0.00  0.00    +0.000 C 
ATOM     15  C   UNL     1      -2.240  12.551  21.239  0.00  0.00    +0.000 C 
ATOM     16  C   UNL     1      -1.030  11.920  21.884  0.00  0.00    +0.000 C 
ATOM     17  O   UNL     1      -0.608  12.154  23.005  0.00  0.00    +0.000 OA
ENDBRANCH  11  12
ENDBRANCH   9  11
ENDBRANCH   2   5
BRANCH   1  22
ATOM     18  N   UNL     1       3.599   3.211  17.513  0.00  0.00    +0.000 N 
ATOM     19  N   UNL     1       3.792   1.886  17.713  0.00  0.00    +0.000 NA
ATOM     20  C   UNL     1       2.951   1.586  18.703  0.00  0.00    +0.000 A 
ATOM     21  C   UNL     1       2.207   2.698  19.119  0.00  0.00    +0.000 A 
ATOM     22  C   UNL     1       2.629   3.755  18.336  0.00  0.00    +0.000 A 
BRANCH  18  23
ATOM     23  C   UNL     1       4.288   3.837  16.390  0.00  0.00    +0.000 C 
BRANCH  23  28
ATOM     24  C   UNL     1       8.194   7.668  18.396  0.00  0.00    +0.000 C 
ATOM     25  C   UNL     1       7.225   6.681  17.813  0.00  0.00    +0.000 A 
ATOM     26  C   UNL     1       6.185   7.101  16.980  0.00  0.00    +0.000 A 
ATOM     27  C   UNL     1       5.254   6.179  16.492  0.00  0.00    +0.000 A 
ATOM     28  C   UNL     1       5.348   4.818  16.823  0.00  0.00    +0.000 A 
ATOM     29  C   UNL     1       6.394   4.403  17.658  0.00  0.00    +0.000 A 
ATOM     30  C   UNL     1       7.325   5.325  18.143  0.00  0.00    +0.000 A 
ENDBRANCH  23  28
ENDBRANCH  18  23
ENDBRANCH   1  22
TORSDOF 6
ENDMDL
MODEL 5
REMARK VINA RESULT:      -8.2      2.206      8.289
REMARK  Name = 
REMARK  7 active torsions:
REMARK  status: ('A' for Active; 'I' for Inactive)
REMARK    1  A    between atoms: C_1  and  C_2
REMARK    2  A    between atoms: C_5  and  C_6
REMARK    3  A    between atoms: C_6  and  N_7
REMARK    4  A    between atoms: C_11  and  N_12
REMARK    5  A    between atoms: C_13  and  C_15
REMARK    6  A    between atoms: C_19  and  C_20
REMARK    7  A    between atoms: C_20  and  N_21
REMARK                            x       y       z     vdW  Elec       q    Type
REMARK                         _______ _______ _______ _____ _____    ______ ____
ROOT
ATOM      1  N   UNL     1       1.908   7.349  19.508  0.00  0.00    +0.000 N 
ATOM      2  C   UNL     1       1.849   5.960  19.904  0.00  0.00    +0.000 C 
ATOM      3  O   UNL     1       1.482   5.634  21.022  0.00  0.00    +0.000 OA
ATOM      4  H   UNL     1       2.321   7.589  18.619  0.00  0.00    +0.000 HD
ENDROOT
BRANCH   2   5
ATOM      5  C   UNL     1       2.363   4.943  18.948  0.00  0.00    +0.000 A 
ATOM      6  C   UNL     1       1.628   3.755  18.805  0.00  0.00    +0.000 A 
ATOM      7  C   UNL     1       2.077   2.749  17.950  0.00  0.00    +0.000 A 
ATOM      8  C   UNL     1       3.259   2.921  17.230  0.00  0.00    +0.000 A 
ATOM      9  C   UNL     1       4.000   4.109  17.345  0.00  0.00    +0.000 A 
ATOM     10  C   UNL     1       3.531   5.130  18.197  0.00  0.00    +0.000 A 
BRANCH   9  11
ATOM     11  C   UNL     1       5.293   4.274  16.573  0.00  0.00    +0.000 C 
BRANCH  11  12
ATOM     12  N   UNL     1       6.221   5.204  17.179  0.00  0.00    +0.000 N 
ATOM     13  C   UNL     1       7.212   4.815  18.151  0.00  0.00    +0.000 C 
ATOM     14  C   UNL     1       7.727   6.142  18.681  0.00  0.00    +0.000 C 
ATOM     15  C   UNL     1       7.547   7.099  17.509  0.00  0.00    +0.000 C 
ATOM     16  C   UNL     1       6.352   6.526  16.787  0.00  0.00    +0.000 C 
ATOM     17  O   UNL     1       5.667   7.104  15.958  0.00  0.00    +0.000 OA
ENDBRANCH  11  12
ENDBRANCH   9  11
ENDBRANCH   2   5
BRANCH   1  22
ATOM     18  N   UNL     1       0.862   9.575  19.944  0.00  0.00    +0.000 N 
ATOM     19  N   UNL     1       0.563  10.389  20.984  0.00  0.00    +0.000 NA
ATOM     20  C   UNL     1       0.954   9.699  22.055  0.00  0.00    +0.000 A 
ATOM     21  C   UNL     1       1.522   8.465  21.710  0.00  0.00    +0.000 A 
ATOM     22  C   UNL     1       1.465   8.391  20.331  0.00  0.00    +0.000 A 
BRANCH  18  23
ATOM     23  C   UNL     1       0.672  10.095  18.595  0.00  0.00    +0.000 C 
BRANCH  23  28
ATOM     24  C   UNL     1      -4.796  11.363  17.034  0.00  0.00    +0.000 C 
ATOM     25  C   UNL     1      -3.415  10.997  17.496  0.00  0.00    +0.000 A 
ATOM     26  C   UNL     1      -2.796  11.696  18.534  0.00  0.00    +0.000 A 
ATOM     27  C   UNL     1      -1.487  11.385  18.914  0.00  0.00    +0.000 A 
ATOM     28  C   UNL     1      -0.773  10.364  18.266  0.00  0.00    +0.000 A 
ATOM     29  C   UNL     1      -1.401   9.666  17.225  0.00  0.00    +0.000 A 
ATOM     30  C   UNL     1      -2.710   9.977  16.849  0.00  0.00    +0.000 A 
ENDBRANCH  23  28
ENDBRANCH  18  23
ENDBRANCH   1  22
TORSDOF 6
ENDMDL
MODEL 6
REMARK VINA RESULT:      -8.1      1.920      2.498
REMARK  Name = 
REMARK  7 active torsions:
REMARK  status: ('A' for Active; 'I' for Inactive)
REMARK    1  A    between atoms: C_1  and  C_2
REMARK    2  A    between atoms: C_5  and  C_6
REMARK    3  A    between atoms: C_6  and  N_7
REMARK    4  A    between atoms: C_11  and  N_12
REMARK    5  A    between atoms: C_13  and  C_15
REMARK    6  A    between atoms: C_19  and  C_20
REMARK    7  A    between atoms: C_20  and  N_21
REMARK                            x       y       z     vdW  Elec       q    Type
REMARK                         _______ _______ _______ _____ _____    ______ ____
ROOT
ATOM      1  N   UNL     1       3.623   6.565  17.638  0.00  0.00    +0.000 N 
ATOM      2  C   UNL     1       3.307   6.596  19.048  0.00  0.00    +0.000 C 
ATOM      3  O   UNL     1       3.797   5.792  19.825  0.00  0.00    +0.000 OA
ATOM      4  H   UNL     1       3.116   7.170  17.008  0.00  0.00    +0.000 HD
ENDROOT
BRANCH   2   5
ATOM      5  C   UNL     1       2.274   7.562  19.508  0.00  0.00    +0.000 A 
ATOM      6  C   UNL     1       1.757   7.396  20.803  0.00  0.00    +0.000 A 
ATOM      7  C   UNL     1       0.762   8.248  21.279  0.00  0.00    +0.000 A 
ATOM      8  C   UNL     1       0.276   9.274  20.468  0.00  0.00    +0.000 A 
ATOM      9  C   UNL     1       0.791   9.469  19.176  0.00  0.00    +0.000 A 
ATOM     10  C   UNL     1       1.811   8.615  18.707  0.00  0.00    +0.000 A 
BRANCH   9  11
ATOM     11  C   UNL     1       0.239  10.574  18.299  0.00  0.00    +0.000 C 
BRANCH  11  12
ATOM     12  N   UNL     1       0.580  11.905  18.752  0.00  0.00    +0.000 N 
ATOM     13  C   UNL     1      -0.287  12.708  19.579  0.00  0.00    +0.000 C 
ATOM     14  C   UNL     1       0.366  14.080  19.547  0.00  0.00    +0.000 C 
ATOM     15  C   UNL     1       1.846  13.777  19.348  0.00  0.00    +0.000 C 
ATOM     16  C   UNL     1       1.824  12.488  18.566  0.00  0.00    +0.000 C 
ATOM     17  O   UNL     1       2.755  12.011  17.936  0.00  0.00    +0.000 OA
ENDBRANCH  11  12
ENDBRANCH   9  11
ENDBRANCH   2   5
BRANCH   1  22
ATOM     18  N   UNL     1       4.346   4.439  16.546  0.00  0.00    +0.000 N 
ATOM     19  N   UNL     1       5.477   3.833  16.114  0.00  0.00    +0.000 NA
ATOM     20  C   UNL     1       6.434   4.727  16.360  0.00  0.00    +0.000 A 
ATOM     21  C   UNL     1       5.931   5.885  16.968  0.00  0.00    +0.000 A 
ATOM     22  C   UNL     1       4.569   5.690  17.092  0.00  0.00    +0.000 A 
BRANCH  18  23
ATOM     23  C   UNL     1       3.111   3.663  16.535  0.00  0.00    +0.000 C 
BRANCH  23  28
ATOM     24  C   UNL     1       1.389   2.574  21.994  0.00  0.00    +0.000 C 
ATOM     25  C   UNL     1       1.816   2.782  20.570  0.00  0.00    +0.000 A 
ATOM     26  C   UNL     1       3.071   2.360  20.127  0.00  0.00    +0.000 A 
ATOM     27  C   UNL     1       3.480   2.614  18.814  0.00  0.00    +0.000 A 
ATOM     28  C   UNL     1       2.637   3.291  17.917  0.00  0.00    +0.000 A 
ATOM     29  C   UNL     1       1.379   3.710  18.367  0.00  0.00    +0.000 A 
ATOM     30  C   UNL     1       0.971   3.453  19.679  0.00  0.00    +0.000 A 
ENDBRANCH  23  28
ENDBRANCH  18  23
ENDBRANCH   1  22
TORSDOF 6
ENDMDL
MODEL 7
REMARK VINA RESULT:      -8.1      1.664      2.602
REMARK  Name = 
REMARK  7 active torsions:
REMARK  status: ('A' for Active; 'I' for Inactive)
REMARK    1  A    between atoms: C_1  and  C_2
REMARK    2  A    between atoms: C_5  and  C_6
REMARK    3  A    between atoms: C_6  and  N_7
REMARK    4  A    between atoms: C_11  and  N_12
REMARK    5  A    between atoms: C_13  and  C_15
REMARK    6  A    between atoms: C_19  and  C_20
REMARK    7  A    between atoms: C_20  and  N_21
REMARK                            x       y       z     vdW  Elec       q    Type
REMARK                         _______ _______ _______ _____ _____    ______ ____
ROOT
ATOM      1  N   UNL     1       4.239   6.366  18.269  0.00  0.00    +0.000 N 
ATOM      2  C   UNL     1       3.301   7.352  17.781  0.00  0.00    +0.000 C 
ATOM      3  O   UNL     1       3.330   7.734  16.621  0.00  0.00    +0.000 OA
ATOM      4  H   UNL     1       4.261   6.156  19.257  0.00  0.00    +0.000 HD
ENDROOT
BRANCH   2   5
ATOM      5  C   UNL     1       2.375   7.976  18.762  0.00  0.00    +0.000 A 
ATOM      6  C   UNL     1       2.129   7.283  19.958  0.00  0.00    +0.000 A 
ATOM      7  C   UNL     1       1.244   7.801  20.903  0.00  0.00    +0.000 A 
ATOM      8  C   UNL     1       0.600   9.015  20.663  0.00  0.00    +0.000 A 
ATOM      9  C   UNL     1       0.845   9.734  19.482  0.00  0.00    +0.000 A 
ATOM     10  C   UNL     1       1.756   9.214  18.539  0.00  0.00    +0.000 A 
BRANCH   9  11
ATOM     11  C   UNL     1       0.123  11.041  19.225  0.00  0.00    +0.000 C 
BRANCH  11  12
ATOM     12  N   UNL     1       0.921  12.214  19.506  0.00  0.00    +0.000 N 
ATOM     13  C   UNL     1       1.597  12.976  18.486  0.00  0.00    +0.000 C 
ATOM     14  C   UNL     1       2.502  13.904  19.279  0.00  0.00    +0.000 C 
ATOM     15  C   UNL     1       1.758  14.106  20.593  0.00  0.00    +0.000 C 
ATOM     16  C   UNL     1       1.001  12.810  20.754  0.00  0.00    +0.000 C 
ATOM     17  O   UNL     1       0.495  12.395  21.785  0.00  0.00    +0.000 OA
ENDBRANCH  11  12
ENDBRANCH   9  11
ENDBRANCH   2   5
BRANCH   1  22
ATOM     18  N   UNL     1       4.969   4.581  16.682  0.00  0.00    +0.000 N 
ATOM     19  N   UNL     1       6.070   4.199  15.993  0.00  0.00    +0.000 NA
ATOM     20  C   UNL     1       6.975   5.131  16.294  0.00  0.00    +0.000 A 
ATOM     21  C   UNL     1       6.472   6.088  17.185  0.00  0.00    +0.000 A 
ATOM     22  C   UNL     1       5.164   5.722  17.439  0.00  0.00    +0.000 A 
BRANCH  18  23
ATOM     23  C   UNL     1       3.815   3.689  16.670  0.00  0.00    +0.000 C 
BRANCH  23  28
ATOM     24  C   UNL     1       1.307   2.665  21.828  0.00  0.00    +0.000 C 
ATOM     25  C   UNL     1       1.963   3.001  20.521  0.00  0.00    +0.000 A 
ATOM     26  C   UNL     1       1.249   3.633  19.500  0.00  0.00    +0.000 A 
ATOM     27  C   UNL     1       1.855   3.886  18.266  0.00  0.00    +0.000 A 
ATOM     28  C   UNL     1       3.189   3.518  18.030  0.00  0.00    +0.000 A 
ATOM     29  C   UNL     1       3.900   2.886  19.059  0.00  0.00    +0.000 A 
ATOM     30  C   UNL     1       3.293   2.635  20.293  0.00  0.00    +0.000 A 
ENDBRANCH  23  28
ENDBRANCH  18  23
ENDBRANCH   1  22
TORSDOF 6
ENDMDL
MODEL 8
REMARK VINA RESULT:      -8.1      2.219      4.465
REMARK  Name = 
REMARK  7 active torsions:
REMARK  status: ('A' for Active; 'I' for Inactive)
REMARK    1  A    between atoms: C_1  and  C_2
REMARK    2  A    between atoms: C_5  and  C_6
REMARK    3  A    between atoms: C_6  and  N_7
REMARK    4  A    between atoms: C_11  and  N_12
REMARK    5  A    between atoms: C_13  and  C_15
REMARK    6  A    between atoms: C_19  and  C_20
REMARK    7  A    between atoms: C_20  and  N_21
REMARK                            x       y       z     vdW  Elec       q    Type
REMARK                         _______ _______ _______ _____ _____    ______ ____
ROOT
ATOM      1  N   UNL     1       2.446   5.967  20.470  0.00  0.00    +0.000 N 
ATOM      2  C   UNL     1       2.064   6.969  19.502  0.00  0.00    +0.000 C 
ATOM      3  O   UNL     1       2.249   6.800  18.307  0.00  0.00    +0.000 OA
ATOM      4  H   UNL     1       2.383   6.185  21.454  0.00  0.00    +0.000 HD
ENDROOT
BRANCH   2   5
ATOM      5  C   UNL     1       1.545   8.266  20.012  0.00  0.00    +0.000 A 
ATOM      6  C   UNL     1       1.416   8.415  21.402  0.00  0.00    +0.000 A 
ATOM      7  C   UNL     1       0.903   9.595  21.940  0.00  0.00    +0.000 A 
ATOM      8  C   UNL     1       0.518  10.636  21.095  0.00  0.00    +0.000 A 
ATOM      9  C   UNL     1       0.655  10.516  19.703  0.00  0.00    +0.000 A 
ATOM     10  C   UNL     1       1.192   9.327  19.166  0.00  0.00    +0.000 A 
BRANCH   9  11
ATOM     11  C   UNL     1       0.213  11.647  18.796  0.00  0.00    +0.000 C 
BRANCH  11  12
ATOM     12  N   UNL     1       1.150  12.748  18.738  0.00  0.00    +0.000 N 
ATOM     13  C   UNL     1       2.487  12.624  18.210  0.00  0.00    +0.000 C 
ATOM     14  C   UNL     1       3.149  13.930  18.617  0.00  0.00    +0.000 C 
ATOM     15  C   UNL     1       1.996  14.925  18.668  0.00  0.00    +0.000 C 
ATOM     16  C   UNL     1       0.819  14.058  19.042  0.00  0.00    +0.000 C 
ATOM     17  O   UNL     1      -0.254  14.449  19.474  0.00  0.00    +0.000 OA
ENDBRANCH  11  12
ENDBRANCH   9  11
ENDBRANCH   2   5
BRANCH   1  22
ATOM     18  N   UNL     1       4.236   4.421  19.668  0.00  0.00    +0.000 N 
ATOM     19  N   UNL     1       4.415   3.111  19.377  0.00  0.00    +0.000 NA
ATOM     20  C   UNL     1       3.238   2.555  19.664  0.00  0.00    +0.000 A 
ATOM     21  C   UNL     1       2.303   3.499  20.110  0.00  0.00    +0.000 A 
ATOM     22  C   UNL     1       2.958   4.716  20.105  0.00  0.00    +0.000 A 
BRANCH  18  23
ATOM     23  C   UNL     1       5.316   5.344  19.340  0.00  0.00    +0.000 C 
BRANCH  23  28
ATOM     24  C   UNL     1       6.863   4.606  13.771  0.00  0.00    +0.000 C 
ATOM     25  C   UNL     1       6.508   4.859  15.207  0.00  0.00    +0.000 A 
ATOM     26  C   UNL     1       7.381   4.503  16.237  0.00  0.00    +0.000 A 
ATOM     27  C   UNL     1       7.012   4.689  17.573  0.00  0.00    +0.000 A 
ATOM     28  C   UNL     1       5.764   5.241  17.904  0.00  0.00    +0.000 A 
ATOM     29  C   UNL     1       4.893   5.597  16.866  0.00  0.00    +0.000 A 
ATOM     30  C   UNL     1       5.265   5.412  15.532  0.00  0.00    +0.000 A 
ENDBRANCH  23  28
ENDBRANCH  18  23
ENDBRANCH   1  22
TORSDOF 6
ENDMDL
MODEL 9
REMARK VINA RESULT:      -8.0      0.855      1.184
REMARK  Name = 
REMARK  7 active torsions:
REMARK  status: ('A' for Active; 'I' for Inactive)
REMARK    1  A    between atoms: C_1  and  C_2
REMARK    2  A    between atoms: C_5  and  C_6
REMARK    3  A    between atoms: C_6  and  N_7
REMARK    4  A    between atoms: C_11  and  N_12
REMARK    5  A    between atoms: C_13  and  C_15
REMARK    6  A    between atoms: C_19  and  C_20
REMARK    7  A    between atoms: C_20  and  N_21
REMARK                            x       y       z     vdW  Elec       q    Type
REMARK                         _______ _______ _______ _____ _____    ______ ____
ROOT
ATOM      1  N   UNL     1       4.244   6.509  18.380  0.00  0.00    +0.000 N 
ATOM      2  C   UNL     1       3.366   7.456  17.731  0.00  0.00    +0.000 C 
ATOM      3  O   UNL     1       3.468   7.701  16.539  0.00  0.00    +0.000 OA
ATOM      4  H   UNL     1       4.207   6.414  19.385  0.00  0.00    +0.000 HD
ENDROOT
BRANCH   2   5
ATOM      5  C   UNL     1       2.412   8.216  18.582  0.00  0.00    +0.000 A 
ATOM      6  C   UNL     1       2.002   7.625  19.788  0.00  0.00    +0.000 A 
ATOM      7  C   UNL     1       1.083   8.272  20.612  0.00  0.00    +0.000 A 
ATOM      8  C   UNL     1       0.567   9.514  20.241  0.00  0.00    +0.000 A 
ATOM      9  C   UNL     1       0.976  10.131  19.048  0.00  0.00    +0.000 A 
ATOM     10  C   UNL     1       1.921   9.480  18.228  0.00  0.00    +0.000 A 
BRANCH   9  11
ATOM     11  C   UNL     1       0.392  11.471  18.647  0.00  0.00    +0.000 C 
BRANCH  11  12
ATOM     12  N   UNL     1      -1.054  11.509  18.674  0.00  0.00    +0.000 N 
ATOM     13  C   UNL     1      -1.808  12.445  19.471  0.00  0.00    +0.000 C 
ATOM     14  C   UNL     1      -3.230  11.917  19.386  0.00  0.00    +0.000 C 
ATOM     15  C   UNL     1      -3.282  11.222  18.030  0.00  0.00    +0.000 C 
ATOM     16  C   UNL     1      -1.860  10.756  17.836  0.00  0.00    +0.000 C 
ATOM     17  O   UNL     1      -1.482   9.913  17.037  0.00  0.00    +0.000 OA
ENDBRANCH  11  12
ENDBRANCH   9  11
ENDBRANCH   2   5
BRANCH   1  22
ATOM     18  N   UNL     1       4.960   4.641  16.884  0.00  0.00    +0.000 N 
ATOM     19  N   UNL     1       6.091   4.117  16.356  0.00  0.00    +0.000 NA
ATOM     20  C   UNL     1       7.055   4.923  16.800  0.00  0.00    +0.000 A 
ATOM     21  C   UNL     1       6.556   5.940  17.625  0.00  0.00    +0.000 A 
ATOM     22  C   UNL     1       5.189   5.748  17.682  0.00  0.00    +0.000 A 
BRANCH  18  23
ATOM     23  C   UNL     1       3.714   3.908  16.691  0.00  0.00    +0.000 C 
BRANCH  23  28
ATOM     24  C   UNL     1       1.289   2.682  21.845  0.00  0.00    +0.000 C 
ATOM     25  C   UNL     1       1.899   2.926  20.495  0.00  0.00    +0.000 A 
ATOM     26  C   UNL     1       3.198   2.504  20.206  0.00  0.00    +0.000 A 
ATOM     27  C   UNL     1       3.776   2.790  18.966  0.00  0.00    +0.000 A 
ATOM     28  C   UNL     1       3.062   3.501  17.987  0.00  0.00    +0.000 A 
ATOM     29  C   UNL     1       1.759   3.921  18.283  0.00  0.00    +0.000 A 
ATOM     30  C   UNL     1       1.182   3.632  19.523  0.00  0.00    +0.000 A 
ENDBRANCH  23  28
ENDBRANCH  18  23
ENDBRANCH   1  22
TORSDOF 6
ENDMDL
