MODEL 1
REMARK VINA RESULT:      -8.5      0.000      0.000
REMARK  Name = 
REMARK  1 active torsions:
REMARK  status: ('A' for Active; 'I' for Inactive)
REMARK    1  A    between atoms: C_2  and  C_13
REMARK                            x       y       z     vdW  Elec       q    Type
REMARK                         _______ _______ _______ _____ _____    ______ ____
ROOT
ATOM      1  C   UNL     1       2.069   7.349  19.779  0.00  0.00    +0.000 A 
ATOM      2  C   UNL     1       2.231   6.167  20.534  0.00  0.00    +0.000 A 
ATOM      3  C   UNL     1       3.075   5.144  20.120  0.00  0.00    +0.000 A 
ATOM      4  C   UNL     1       3.767   5.289  18.923  0.00  0.00    +0.000 A 
ATOM      5  C   UNL     1       4.907   4.387  18.638  0.00  0.00    +0.000 A 
ATOM      6  O   UNL     1       5.190   3.450  19.367  0.00  0.00    +0.000 OA
ATOM      7  N   UNL     1       5.642   4.779  17.556  0.00  0.00    +0.000 N 
ATOM      8  C   UNL     1       5.144   5.641  16.599  0.00  0.00    +0.000 A 
ATOM      9  N   UNL     1       4.142   6.433  16.777  0.00  0.00    +0.000 NA
ATOM     10  C   UNL     1       3.526   6.374  18.061  0.00  0.00    +0.000 A 
ATOM     11  C   UNL     1       2.687   7.424  18.512  0.00  0.00    +0.000 A 
ATOM     12  C   UNL     1       6.025   5.487  15.392  0.00  0.00    +0.000 C 
ATOM     13  C   UNL     1       7.363   5.304  16.109  0.00  0.00    +0.000 C 
ATOM     14  C   UNL     1       6.984   4.353  17.241  0.00  0.00    +0.000 C 
ENDROOT
BRANCH   1  16
ATOM     15  O   UNL     1       1.206   8.328  21.709  0.00  0.00    +0.000 OA
ATOM     16  C   UNL     1       1.298   8.439  20.488  0.00  0.00    +0.000 C 
ATOM     17  N   UNL     1       0.728   9.459  19.753  0.00  0.00    +0.000 N 
ATOM     18  C   UNL     1      -0.075  10.401  20.370  0.00  0.00    +0.000 A 
ATOM     19  N   UNL     1      -0.296  10.617  21.648  0.00  0.00    +0.000 NA
ATOM     20  C   UNL     1      -1.242  11.613  21.803  0.00  0.00    +0.000 A 
ATOM     21  C   UNL     1      -1.732  12.137  20.622  0.00  0.00    +0.000 A 
ATOM     22  S   UNL     1      -0.942  11.418  19.288  0.00  0.00    +0.000 S 
ATOM     23  C   UNL     1      -2.823  13.152  20.522  0.00  0.00    +0.000 C 
ATOM     24  C   UNL     1      -3.047  13.845  21.882  0.00  0.00    +0.000 C 
ATOM     25  C   UNL     1      -3.029  12.851  23.056  0.00  0.00    +0.000 C 
ATOM     26  C   UNL     1      -1.693  12.086  23.147  0.00  0.00    +0.000 C 
ATOM     27  H   UNL     1       0.773   9.490  18.748  0.00  0.00    +0.000 HD
ENDBRANCH   1  16
TORSDOF 1
ENDMDL
MODEL 2
REMARK VINA RESULT:      -8.4      1.977      2.938
REMARK  Name = 
REMARK  1 active torsions:
REMARK  status: ('A' for Active; 'I' for Inactive)
REMARK    1  A    between atoms: C_2  and  C_13
REMARK                            x       y       z     vdW  Elec       q    Type
REMARK                         _______ _______ _______ _____ _____    ______ ____
ROOT
ATOM      1  C   UNL     1       1.874   8.311  19.210  0.00  0.00    +0.000 A 
ATOM      2  C   UNL     1       2.604   8.500  18.017  0.00  0.00    +0.000 A 
ATOM      3  C   UNL     1       3.412   7.501  17.488  0.00  0.00    +0.000 A 
ATOM      4  C   UNL     1       3.510   6.290  18.163  0.00  0.00    +0.000 A 
ATOM      5  C   UNL     1       4.078   5.117  17.457  0.00  0.00    +0.000 A 
ATOM      6  O   UNL     1       4.565   5.206  16.341  0.00  0.00    +0.000 OA
ATOM      7  N   UNL     1       3.903   3.946  18.138  0.00  0.00    +0.000 N 
ATOM      8  C   UNL     1       3.626   3.914  19.491  0.00  0.00    +0.000 A 
ATOM      9  N   UNL     1       3.154   4.906  20.166  0.00  0.00    +0.000 NA
ATOM     10  C   UNL     1       2.927   6.105  19.429  0.00  0.00    +0.000 A 
ATOM     11  C   UNL     1       2.080   7.120  19.940  0.00  0.00    +0.000 A 
ATOM     12  C   UNL     1       3.936   2.518  19.951  0.00  0.00    +0.000 C 
ATOM     13  C   UNL     1       3.451   1.758  18.717  0.00  0.00    +0.000 C 
ATOM     14  C   UNL     1       4.000   2.618  17.583  0.00  0.00    +0.000 C 
ENDROOT
BRANCH   1  16
ATOM     15  O   UNL     1       0.621  10.173  18.582  0.00  0.00    +0.000 OA
ATOM     16  C   UNL     1       0.879   9.409  19.510  0.00  0.00    +0.000 C 
ATOM     17  N   UNL     1       0.346   9.517  20.778  0.00  0.00    +0.000 N 
ATOM     18  C   UNL     1      -0.477  10.580  21.103  0.00  0.00    +0.000 A 
ATOM     19  N   UNL     1      -1.013  11.501  20.333  0.00  0.00    +0.000 NA
ATOM     20  C   UNL     1      -1.699  12.422  21.102  0.00  0.00    +0.000 A 
ATOM     21  C   UNL     1      -1.665  12.182  22.462  0.00  0.00    +0.000 A 
ATOM     22  S   UNL     1      -0.815  10.735  22.782  0.00  0.00    +0.000 S 
ATOM     23  C   UNL     1      -2.247  13.079  23.505  0.00  0.00    +0.000 C 
ATOM     24  C   UNL     1      -3.239  14.076  22.873  0.00  0.00    +0.000 C 
ATOM     25  C   UNL     1      -2.713  14.672  21.556  0.00  0.00    +0.000 C 
ATOM     26  C   UNL     1      -2.423  13.583  20.502  0.00  0.00    +0.000 C 
ATOM     27  H   UNL     1       0.621   8.910  21.533  0.00  0.00    +0.000 HD
ENDBRANCH   1  16
TORSDOF 1
ENDMDL
MODEL 3
REMARK VINA RESULT:      -8.3      2.826      9.685
REMARK  Name = 
REMARK  1 active torsions:
REMARK  status: ('A' for Active; 'I' for Inactive)
REMARK    1  A    between atoms: C_2  and  C_13
REMARK                            x       y       z     vdW  Elec       q    Type
REMARK                         _______ _______ _______ _____ _____    ______ ____
ROOT
ATOM      1  C   UNL     1       0.794   9.440  21.082  0.00  0.00    +0.000 A 
ATOM      2  C   UNL     1       0.027   9.025  22.192  0.00  0.00    +0.000 A 
ATOM      3  C   UNL     1      -0.823   9.896  22.861  0.00  0.00    +0.000 A 
ATOM      4  C   UNL     1      -0.908  11.214  22.429  0.00  0.00    +0.000 A 
ATOM      5  C   UNL     1      -2.036  12.053  22.896  0.00  0.00    +0.000 A 
ATOM      6  O   UNL     1      -2.831  11.661  23.734  0.00  0.00    +0.000 OA
ATOM      7  N   UNL     1      -2.136  13.238  22.223  0.00  0.00    +0.000 N 
ATOM      8  C   UNL     1      -1.081  13.774  21.511  0.00  0.00    +0.000 A 
ATOM      9  N   UNL     1      -0.061  13.103  21.097  0.00  0.00    +0.000 NA
ATOM     10  C   UNL     1      -0.055  11.716  21.429  0.00  0.00    +0.000 A 
ATOM     11  C   UNL     1       0.783  10.808  20.735  0.00  0.00    +0.000 A 
ATOM     12  C   UNL     1      -1.409  15.224  21.299  0.00  0.00    +0.000 C 
ATOM     13  C   UNL     1      -2.916  15.089  21.085  0.00  0.00    +0.000 C 
ATOM     14  C   UNL     1      -3.299  14.091  22.174  0.00  0.00    +0.000 C 
ENDROOT
BRANCH   1  16
ATOM     15  O   UNL     1       1.909   8.583  19.223  0.00  0.00    +0.000 OA
ATOM     16  C   UNL     1       1.479   8.313  20.343  0.00  0.00    +0.000 C 
ATOM     17  N   UNL     1       1.563   7.066  20.930  0.00  0.00    +0.000 N 
ATOM     18  C   UNL     1       2.084   5.996  20.226  0.00  0.00    +0.000 A 
ATOM     19  N   UNL     1       2.703   5.967  19.066  0.00  0.00    +0.000 NA
ATOM     20  C   UNL     1       2.974   4.660  18.706  0.00  0.00    +0.000 A 
ATOM     21  C   UNL     1       2.546   3.708  19.611  0.00  0.00    +0.000 A 
ATOM     22  S   UNL     1       1.848   4.466  20.974  0.00  0.00    +0.000 S 
ATOM     23  C   UNL     1       2.636   2.231  19.408  0.00  0.00    +0.000 C 
ATOM     24  C   UNL     1       3.629   1.898  18.276  0.00  0.00    +0.000 C 
ATOM     25  C   UNL     1       3.470   2.830  17.063  0.00  0.00    +0.000 C 
ATOM     26  C   UNL     1       3.683   4.311  17.438  0.00  0.00    +0.000 C 
ATOM     27  H   UNL     1       1.150   6.862  21.824  0.00  0.00    +0.000 HD
ENDBRANCH   1  16
TORSDOF 1
ENDMDL
MODEL 4
REMARK VINA RESULT:      -8.2      2.692      9.868
REMARK  Name = 
REMARK  1 active torsions:
REMARK  status: ('A' for Active; 'I' for Inactive)
REMARK    1  A    between atoms: C_2  and  C_13
REMARK                            x       y       z     vdW  Elec       q    Type
REMARK                         _______ _______ _______ _____ _____    ______ ____
ROOT
ATOM      1  C   UNL     1       0.631   9.876  19.255  0.00  0.00    +0.000 A 
ATOM      2  C   UNL     1      -0.590   9.976  18.554  0.00  0.00    +0.000 A 
ATOM      3  C   UNL     1      -1.615  10.809  18.985  0.00  0.00    +0.000 A 
ATOM      4  C   UNL     1      -1.432  11.551  20.145  0.00  0.00    +0.000 A 
ATOM      5  C   UNL     1      -2.351  12.678  20.430  0.00  0.00    +0.000 A 
ATOM      6  O   UNL     1      -3.330  12.907  19.738  0.00  0.00    +0.000 OA
ATOM      7  N   UNL     1      -1.928  13.466  21.463  0.00  0.00    +0.000 N 
ATOM      8  C   UNL     1      -1.007  13.029  22.394  0.00  0.00    +0.000 A 
ATOM      9  N   UNL     1      -0.197  12.042  22.216  0.00  0.00    +0.000 NA
ATOM     10  C   UNL     1      -0.300  11.373  20.961  0.00  0.00    +0.000 A 
ATOM     11  C   UNL     1       0.750  10.545  20.492  0.00  0.00    +0.000 A 
ATOM     12  C   UNL     1      -1.127  13.954  23.572  0.00  0.00    +0.000 C 
ATOM     13  C   UNL     1      -1.383  15.256  22.814  0.00  0.00    +0.000 C 
ATOM     14  C   UNL     1      -2.376  14.808  21.746  0.00  0.00    +0.000 C 
ENDROOT
BRANCH   1  16
ATOM     15  O   UNL     1       2.143   9.628  17.499  0.00  0.00    +0.000 OA
ATOM     16  C   UNL     1       1.707   9.106  18.523  0.00  0.00    +0.000 C 
ATOM     17  N   UNL     1       2.115   7.879  19.006  0.00  0.00    +0.000 N 
ATOM     18  C   UNL     1       3.014   7.110  18.290  0.00  0.00    +0.000 A 
ATOM     19  N   UNL     1       3.727   7.411  17.228  0.00  0.00    +0.000 NA
ATOM     20  C   UNL     1       4.429   6.300  16.797  0.00  0.00    +0.000 A 
ATOM     21  C   UNL     1       4.229   5.160  17.550  0.00  0.00    +0.000 A 
ATOM     22  S   UNL     1       3.193   5.499  18.866  0.00  0.00    +0.000 S 
ATOM     23  C   UNL     1       4.797   3.815  17.236  0.00  0.00    +0.000 C 
ATOM     24  C   UNL     1       5.955   3.937  16.225  0.00  0.00    +0.000 C 
ATOM     25  C   UNL     1       5.638   4.920  15.086  0.00  0.00    +0.000 C 
ATOM     26  C   UNL     1       5.338   6.339  15.612  0.00  0.00    +0.000 C 
ATOM     27  H   UNL     1       1.697   7.452  19.816  0.00  0.00    +0.000 HD
ENDBRANCH   1  16
TORSDOF 1
ENDMDL
MODEL 5
REMARK VINA RESULT:      -8.2      2.087      3.005
REMARK  Name = 
REMARK  1 active torsions:
REMARK  status: ('A' for Active; 'I' for Inactive)
REMARK    1  A    between atoms: C_2  and  C_13
REMARK                            x       y       z     vdW  Elec       q    Type
REMARK                         _______ _______ _______ _____ _____    ______ ____
ROOT
ATOM      1  C   UNL     1       1.764   8.540  19.127  0.00  0.00    +0.000 A 
ATOM      2  C   UNL     1       2.510   8.751  17.947  0.00  0.00    +0.000 A 
ATOM      3  C   UNL     1       3.362   7.779  17.437  0.00  0.00    +0.000 A 
ATOM      4  C   UNL     1       3.488   6.574  18.117  0.00  0.00    +0.000 A 
ATOM      5  C   UNL     1       4.109   5.420  17.426  0.00  0.00    +0.000 A 
ATOM      6  O   UNL     1       4.614   5.522  16.320  0.00  0.00    +0.000 OA
ATOM      7  N   UNL     1       3.961   4.245  18.107  0.00  0.00    +0.000 N 
ATOM      8  C   UNL     1       3.660   4.207  19.455  0.00  0.00    +0.000 A 
ATOM      9  N   UNL     1       3.141   5.183  20.118  0.00  0.00    +0.000 NA
ATOM     10  C   UNL     1       2.888   6.372  19.373  0.00  0.00    +0.000 A 
ATOM     11  C   UNL     1       1.996   7.359  19.865  0.00  0.00    +0.000 A 
ATOM     12  C   UNL     1       4.009   2.823  19.925  0.00  0.00    +0.000 C 
ATOM     13  C   UNL     1       3.574   2.044  18.684  0.00  0.00    +0.000 C 
ATOM     14  C   UNL     1       4.115   2.920  17.558  0.00  0.00    +0.000 C 
ENDROOT
BRANCH   1  16
ATOM     15  O   UNL     1       0.895  10.270  20.425  0.00  0.00    +0.000 OA
ATOM     16  C   UNL     1       0.726   9.604  19.405  0.00  0.00    +0.000 C 
ATOM     17  N   UNL     1      -0.342   9.754  18.544  0.00  0.00    +0.000 N 
ATOM     18  C   UNL     1      -1.359  10.643  18.841  0.00  0.00    +0.000 A 
ATOM     19  N   UNL     1      -1.437  11.555  19.786  0.00  0.00    +0.000 NA
ATOM     20  C   UNL     1      -2.681  12.158  19.761  0.00  0.00    +0.000 A 
ATOM     21  C   UNL     1      -3.537  11.681  18.787  0.00  0.00    +0.000 A 
ATOM     22  S   UNL     1      -2.748  10.501  17.837  0.00  0.00    +0.000 S 
ATOM     23  C   UNL     1      -4.960  12.102  18.618  0.00  0.00    +0.000 C 
ATOM     24  C   UNL     1      -5.233  13.415  19.378  0.00  0.00    +0.000 C 
ATOM     25  C   UNL     1      -4.592  13.427  20.776  0.00  0.00    +0.000 C 
ATOM     26  C   UNL     1      -3.062  13.244  20.713  0.00  0.00    +0.000 C 
ATOM     27  H   UNL     1      -0.482   9.155  17.749  0.00  0.00    +0.000 HD
ENDBRANCH   1  16
TORSDOF 1
ENDMDL
MODEL 6
REMARK VINA RESULT:      -8.1      1.161      1.182
REMARK  Name = 
REMARK  1 active torsions:
REMARK  status: ('A' for Active; 'I' for Inactive)
REMARK    1  A    between atoms: C_2  and  C_13
REMARK                            x       y       z     vdW  Elec       q    Type
REMARK                         _______ _______ _______ _____ _____    ______ ____
ROOT
ATOM      1  C   UNL     1       1.505   7.564  20.207  0.00  0.00    +0.000 A 
ATOM      2  C   UNL     1       1.537   6.289  20.812  0.00  0.00    +0.000 A 
ATOM      3  C   UNL     1       2.390   5.288  20.364  0.00  0.00    +0.000 A 
ATOM      4  C   UNL     1       3.223   5.552  19.284  0.00  0.00    +0.000 A 
ATOM      5  C   UNL     1       4.359   4.640  19.013  0.00  0.00    +0.000 A 
ATOM      6  O   UNL     1       4.523   3.605  19.638  0.00  0.00    +0.000 OA
ATOM      7  N   UNL     1       5.230   5.132  18.082  0.00  0.00    +0.000 N 
ATOM      8  C   UNL     1       4.877   6.133  17.198  0.00  0.00    +0.000 A 
ATOM      9  N   UNL     1       3.888   6.942  17.365  0.00  0.00    +0.000 NA
ATOM     10  C   UNL     1       3.122   6.749  18.552  0.00  0.00    +0.000 A 
ATOM     11  C   UNL     1       2.271   7.772  19.040  0.00  0.00    +0.000 A 
ATOM     12  C   UNL     1       5.890   6.092  16.089  0.00  0.00    +0.000 C 
ATOM     13  C   UNL     1       7.126   5.754  16.922  0.00  0.00    +0.000 C 
ATOM     14  C   UNL     1       6.585   4.685  17.867  0.00  0.00    +0.000 C 
ENDROOT
BRANCH   1  16
ATOM     15  O   UNL     1      -0.252   8.155  21.620  0.00  0.00    +0.000 OA
ATOM     16  C   UNL     1       0.692   8.591  20.964  0.00  0.00    +0.000 C 
ATOM     17  N   UNL     1       1.019   9.927  20.863  0.00  0.00    +0.000 N 
ATOM     18  C   UNL     1       0.220  10.889  21.454  0.00  0.00    +0.000 A 
ATOM     19  N   UNL     1      -0.789  10.756  22.287  0.00  0.00    +0.000 NA
ATOM     20  C   UNL     1      -1.350  11.991  22.554  0.00  0.00    +0.000 A 
ATOM     21  C   UNL     1      -0.751  13.053  21.904  0.00  0.00    +0.000 A 
ATOM     22  S   UNL     1       0.587  12.505  20.993  0.00  0.00    +0.000 S 
ATOM     23  C   UNL     1      -1.228  14.467  21.953  0.00  0.00    +0.000 C 
ATOM     24  C   UNL     1      -2.203  14.671  23.131  0.00  0.00    +0.000 C 
ATOM     25  C   UNL     1      -3.211  13.517  23.264  0.00  0.00    +0.000 C 
ATOM     26  C   UNL     1      -2.511  12.159  23.479  0.00  0.00    +0.000 C 
ATOM     27  H   UNL     1       1.762  10.258  20.271  0.00  0.00    +0.000 HD
ENDBRANCH   1  16
TORSDOF 1
ENDMDL
MODEL 7
REMARK VINA RESULT:      -8.1      2.735      9.861
REMARK  Name = 
REMARK  1 active torsions:
REMARK  status: ('A' for Active; 'I' for Inactive)
REMARK    1  A    between atoms: C_2  and  C_13
REMARK                            x       y       z     vdW  Elec       q    Type
REMARK                         _______ _______ _______ _____ _____    ______ ____
ROOT
ATOM      1  C   UNL     1       0.392  10.688  19.024  0.00  0.00    +0.000 A 
ATOM      2  C   UNL     1       0.794  11.424  20.159  0.00  0.00    +0.000 A 
ATOM      3  C   UNL     1      -0.099  12.213  20.873  0.00  0.00    +0.000 A 
ATOM      4  C   UNL     1      -1.419  12.286  20.445  0.00  0.00    +0.000 A 
ATOM      5  C   UNL     1      -2.444  12.832  21.366  0.00  0.00    +0.000 A 
ATOM      6  O   UNL     1      -2.151  13.323  22.444  0.00  0.00    +0.000 OA
ATOM      7  N   UNL     1      -3.721  12.633  20.924  0.00  0.00    +0.000 N 
ATOM      8  C   UNL     1      -4.009  12.353  19.602  0.00  0.00    +0.000 A 
ATOM      9  N   UNL     1      -3.158  11.899  18.747  0.00  0.00    +0.000 NA
ATOM     10  C   UNL     1      -1.834  11.697  19.237  0.00  0.00    +0.000 A 
ATOM     11  C   UNL     1      -0.921  10.869  18.538  0.00  0.00    +0.000 A 
ATOM     12  C   UNL     1      -5.474  12.635  19.421  0.00  0.00    +0.000 C 
ATOM     13  C   UNL     1      -5.971  12.137  20.778  0.00  0.00    +0.000 C 
ATOM     14  C   UNL     1      -4.918  12.705  21.726  0.00  0.00    +0.000 C 
ENDROOT
BRANCH   1  16
ATOM     15  O   UNL     1       1.998  10.026  17.469  0.00  0.00    +0.000 OA
ATOM     16  C   UNL     1       1.431   9.714  18.515  0.00  0.00    +0.000 C 
ATOM     17  N   UNL     1       1.667   8.545  19.210  0.00  0.00    +0.000 N 
ATOM     18  C   UNL     1       2.529   7.591  18.701  0.00  0.00    +0.000 A 
ATOM     19  N   UNL     1       3.348   7.652  17.675  0.00  0.00    +0.000 NA
ATOM     20  C   UNL     1       3.957   6.427  17.480  0.00  0.00    +0.000 A 
ATOM     21  C   UNL     1       3.578   5.443  18.372  0.00  0.00    +0.000 A 
ATOM     22  S   UNL     1       2.488   6.081  19.523  0.00  0.00    +0.000 S 
ATOM     23  C   UNL     1       4.020   4.017  18.314  0.00  0.00    +0.000 C 
ATOM     24  C   UNL     1       5.258   3.868  17.406  0.00  0.00    +0.000 C 
ATOM     25  C   UNL     1       5.136   4.687  16.110  0.00  0.00    +0.000 C 
ATOM     26  C   UNL     1       4.952   6.192  16.390  0.00  0.00    +0.000 C 
ATOM     27  H   UNL     1       1.145   8.292  20.032  0.00  0.00    +0.000 HD
ENDBRANCH   1  16
TORSDOF 1
ENDMDL
MODEL 8
REMARK VINA RESULT:      -8.0      7.528     10.365
REMARK  Name = 
REMARK  1 active torsions:
REMARK  status: ('A' for Active; 'I' for Inactive)
REMARK    1  A    between atoms: C_2  and  C_13
REMARK                            x       y       z     vdW  Elec       q    Type
REMARK                         _______ _______ _______ _____ _____    ______ ____
ROOT
ATOM      1  C   UNL     1       9.152  10.196  18.378  0.00  0.00    +0.000 A 
ATOM      2  C   UNL     1       9.239  10.390  19.774  0.00  0.00    +0.000 A 
ATOM      3  C   UNL     1       9.898  11.484  20.321  0.00  0.00    +0.000 A 
ATOM      4  C   UNL     1      10.495  12.402  19.466  0.00  0.00    +0.000 A 
ATOM      5  C   UNL     1      10.896  13.725  20.000  0.00  0.00    +0.000 A 
ATOM      6  O   UNL     1      10.821  13.995  21.188  0.00  0.00    +0.000 OA
ATOM      7  N   UNL     1      11.250  14.612  19.022  0.00  0.00    +0.000 N 
ATOM      8  C   UNL     1      11.604  14.205  17.751  0.00  0.00    +0.000 A 
ATOM      9  N   UNL     1      11.307  13.061  17.238  0.00  0.00    +0.000 NA
ATOM     10  C   UNL     1      10.570  12.177  18.080  0.00  0.00    +0.000 A 
ATOM     11  C   UNL     1       9.866  11.074  17.534  0.00  0.00    +0.000 A 
ATOM     12  C   UNL     1      12.329  15.363  17.125  0.00  0.00    +0.000 C 
ATOM     13  C   UNL     1      11.497  16.500  17.717  0.00  0.00    +0.000 C 
ATOM     14  C   UNL     1      11.330  16.045  19.165  0.00  0.00    +0.000 C 
ENDROOT
BRANCH   1  16
ATOM     15  O   UNL     1       7.400   9.371  17.081  0.00  0.00    +0.000 OA
ATOM     16  C   UNL     1       8.211   9.088  17.961  0.00  0.00    +0.000 C 
ATOM     17  N   UNL     1       8.284   7.861  18.588  0.00  0.00    +0.000 N 
ATOM     18  C   UNL     1       7.359   6.874  18.302  0.00  0.00    +0.000 A 
ATOM     19  N   UNL     1       6.441   6.821  17.363  0.00  0.00    +0.000 NA
ATOM     20  C   UNL     1       5.681   5.675  17.505  0.00  0.00    +0.000 A 
ATOM     21  C   UNL     1       6.040   4.870  18.569  0.00  0.00    +0.000 A 
ATOM     22  S   UNL     1       7.401   5.525  19.369  0.00  0.00    +0.000 S 
ATOM     23  C   UNL     1       5.318   3.632  18.988  0.00  0.00    +0.000 C 
ATOM     24  C   UNL     1       4.391   3.135  17.860  0.00  0.00    +0.000 C 
ATOM     25  C   UNL     1       3.618   4.283  17.188  0.00  0.00    +0.000 C 
ATOM     26  C   UNL     1       4.563   5.336  16.573  0.00  0.00    +0.000 C 
ATOM     27  H   UNL     1       8.921   7.680  19.346  0.00  0.00    +0.000 HD
ENDBRANCH   1  16
TORSDOF 1
ENDMDL
MODEL 9
REMARK VINA RESULT:      -8.0      3.085      9.852
REMARK  Name = 
REMARK  1 active torsions:
REMARK  status: ('A' for Active; 'I' for Inactive)
REMARK    1  A    between atoms: C_2  and  C_13
REMARK                            x       y       z     vdW  Elec       q    Type
REMARK                         _______ _______ _______ _____ _____    ______ ____
ROOT
ATOM      1  C   UNL     1      -0.065  10.529  18.588  0.00  0.00    +0.000 A 
ATOM      2  C   UNL     1       0.119  11.407  19.678  0.00  0.00    +0.000 A 
ATOM      3  C   UNL     1      -0.924  12.172  20.184  0.00  0.00    +0.000 A 
ATOM      4  C   UNL     1      -2.177  12.074  19.590  0.00  0.00    +0.000 A 
ATOM      5  C   UNL     1      -3.358  12.606  20.311  0.00  0.00    +0.000 A 
ATOM      6  O   UNL     1      -3.254  13.225  21.357  0.00  0.00    +0.000 OA
ATOM      7  N   UNL     1      -4.543  12.242  19.737  0.00  0.00    +0.000 N 
ATOM      8  C   UNL     1      -4.627  11.809  18.428  0.00  0.00    +0.000 A 
ATOM      9  N   UNL     1      -3.634  11.358  17.741  0.00  0.00    +0.000 NA
ATOM     10  C   UNL     1      -2.376  11.334  18.411  0.00  0.00    +0.000 A 
ATOM     11  C   UNL     1      -1.311  10.534  17.925  0.00  0.00    +0.000 A 
ATOM     12  C   UNL     1      -6.072  11.929  18.036  0.00  0.00    +0.000 C 
ATOM     13  C   UNL     1      -6.704  11.520  19.367  0.00  0.00    +0.000 C 
ATOM     14  C   UNL     1      -5.838  12.276  20.371  0.00  0.00    +0.000 C 
ENDROOT
BRANCH   1  16
ATOM     15  O   UNL     1       1.774   9.867  17.317  0.00  0.00    +0.000 OA
ATOM     16  C   UNL     1       1.111   9.615  18.321  0.00  0.00    +0.000 C 
ATOM     17  N   UNL     1       1.359   8.559  19.174  0.00  0.00    +0.000 N 
ATOM     18  C   UNL     1       2.358   7.647  18.885  0.00  0.00    +0.000 A 
ATOM     19  N   UNL     1       3.290   7.678  17.959  0.00  0.00    +0.000 NA
ATOM     20  C   UNL     1       4.023   6.507  17.984  0.00  0.00    +0.000 A 
ATOM     21  C   UNL     1       3.623   5.593  18.939  0.00  0.00    +0.000 A 
ATOM     22  S   UNL     1       2.347   6.239  19.873  0.00  0.00    +0.000 S 
ATOM     23  C   UNL     1       4.192   4.221  19.103  0.00  0.00    +0.000 C 
ATOM     24  C   UNL     1       5.541   4.100  18.367  0.00  0.00    +0.000 C 
ATOM     25  C   UNL     1       5.511   4.756  16.976  0.00  0.00    +0.000 C 
ATOM     26  C   UNL     1       5.163   6.256  17.050  0.00  0.00    +0.000 C 
ATOM     27  H   UNL     1       0.763   8.345  19.956  0.00  0.00    +0.000 HD
ENDBRANCH   1  16
TORSDOF 1
ENDMDL
