MODEL 1
REMARK VINA RESULT:      -8.7      0.000      0.000
REMARK  Name = 
REMARK  4 active torsions:
REMARK  status: ('A' for Active; 'I' for Inactive)
REMARK    1  A    between atoms: C_1  and  C_2
REMARK    2  A    between atoms: C_8  and  C_9
REMARK    3  A    between atoms: N_11  and  C_12
REMARK    4  A    between atoms: C_17  and  N_18
REMARK                            x       y       z     vdW  Elec       q    Type
REMARK                         _______ _______ _______ _____ _____    ______ ____
ROOT
ATOM      1  C   UNL     1       1.612   7.792  20.289  0.00  0.00    +0.000 C 
ATOM      2  O   UNL     1       1.962   8.150  19.169  0.00  0.00    +0.000 OA
ATOM      3  N   UNL     1       1.742   6.523  20.824  0.00  0.00    +0.000 N 
ATOM      4  H   UNL     1       1.250   6.306  21.683  0.00  0.00    +0.000 HD
ENDROOT
BRANCH   1  12
ATOM      5  C   UNL     1      -1.932  12.256  19.643  0.00  0.00    +0.000 C 
ATOM      6  C   UNL     1      -1.359  11.829  20.942  0.00  0.00    +0.000 A 
ATOM      7  N   UNL     1      -1.617  12.500  22.071  0.00  0.00    +0.000 NA
ATOM      8  O   UNL     1      -0.920  11.830  23.074  0.00  0.00    +0.000 OA
ATOM      9  C   UNL     1      -0.255  10.765  22.542  0.00  0.00    +0.000 A 
ATOM     10  N   UNL     1       0.521   9.912  23.246  0.00  0.00    +0.000 NA
ATOM     11  C   UNL     1       1.095   8.952  22.473  0.00  0.00    +0.000 A 
ATOM     12  C   UNL     1       0.908   8.802  21.101  0.00  0.00    +0.000 A 
ATOM     13  C   UNL     1       0.085   9.709  20.424  0.00  0.00    +0.000 A 
ATOM     14  C   UNL     1      -0.509  10.726  21.180  0.00  0.00    +0.000 A 
ENDBRANCH   1  12
BRANCH   3  15
ATOM     15  C   UNL     1       2.320   5.420  20.143  0.00  0.00    +0.000 A 
ATOM     16  C   UNL     1       1.643   4.223  19.926  0.00  0.00    +0.000 A 
ATOM     17  C   UNL     1       2.302   3.161  19.331  0.00  0.00    +0.000 A 
ATOM     18  F   UNL     1       1.650   2.006  19.142  0.00  0.00    +0.000 F 
ATOM     19  C   UNL     1       3.624   3.272  18.926  0.00  0.00    +0.000 A 
ATOM     20  C   UNL     1       4.329   4.474  19.061  0.00  0.00    +0.000 A 
ATOM     21  C   UNL     1       3.647   5.540  19.686  0.00  0.00    +0.000 A 
BRANCH  20  22
ATOM     22  N   UNL     1       5.636   4.601  18.634  0.00  0.00    +0.000 N 
ATOM     23  C   UNL     1       6.628   5.405  19.349  0.00  0.00    +0.000 C 
ATOM     24  C   UNL     1       7.437   6.052  18.234  0.00  0.00    +0.000 C 
ATOM     25  C   UNL     1       7.439   4.996  17.145  0.00  0.00    +0.000 C 
ATOM     26  C   UNL     1       6.042   4.391  17.239  0.00  0.00    +0.000 C 
ENDBRANCH  20  22
ENDBRANCH   3  15
TORSDOF 3
ENDMDL
MODEL 2
REMARK VINA RESULT:      -8.3      3.487      8.964
REMARK  Name = 
REMARK  4 active torsions:
REMARK  status: ('A' for Active; 'I' for Inactive)
REMARK    1  A    between atoms: C_1  and  C_2
REMARK    2  A    between atoms: C_8  and  C_9
REMARK    3  A    between atoms: N_11  and  C_12
REMARK    4  A    between atoms: C_17  and  N_18
REMARK                            x       y       z     vdW  Elec       q    Type
REMARK                         _______ _______ _______ _____ _____    ______ ____
ROOT
ATOM      1  C   UNL     1       4.952   4.864  17.324  0.00  0.00    +0.000 C 
ATOM      2  O   UNL     1       5.193   3.911  18.056  0.00  0.00    +0.000 OA
ATOM      3  N   UNL     1       3.982   5.830  17.524  0.00  0.00    +0.000 N 
ATOM      4  H   UNL     1       3.756   6.457  16.761  0.00  0.00    +0.000 HD
ENDROOT
BRANCH   1  12
ATOM      5  C   UNL     1       4.775   2.838  11.961  0.00  0.00    +0.000 C 
ATOM      6  C   UNL     1       5.883   3.659  12.504  0.00  0.00    +0.000 A 
ATOM      7  N   UNL     1       6.958   3.958  11.763  0.00  0.00    +0.000 NA
ATOM      8  O   UNL     1       7.781   4.724  12.585  0.00  0.00    +0.000 OA
ATOM      9  C   UNL     1       7.196   4.881  13.807  0.00  0.00    +0.000 A 
ATOM     10  N   UNL     1       7.736   5.567  14.837  0.00  0.00    +0.000 NA
ATOM     11  C   UNL     1       6.964   5.548  15.956  0.00  0.00    +0.000 A 
ATOM     12  C   UNL     1       5.722   4.926  16.067  0.00  0.00    +0.000 A 
ATOM     13  C   UNL     1       5.204   4.237  14.963  0.00  0.00    +0.000 A 
ATOM     14  C   UNL     1       5.979   4.216  13.799  0.00  0.00    +0.000 A 
ENDBRANCH   1  12
BRANCH   3  15
ATOM     15  C   UNL     1       3.104   5.866  18.638  0.00  0.00    +0.000 A 
ATOM     16  C   UNL     1       2.586   4.720  19.235  0.00  0.00    +0.000 A 
ATOM     17  C   UNL     1       1.667   4.837  20.262  0.00  0.00    +0.000 A 
ATOM     18  F   UNL     1       1.158   3.730  20.820  0.00  0.00    +0.000 F 
ATOM     19  C   UNL     1       1.263   6.080  20.727  0.00  0.00    +0.000 A 
ATOM     20  C   UNL     1       1.803   7.263  20.207  0.00  0.00    +0.000 A 
ATOM     21  C   UNL     1       2.725   7.124  19.148  0.00  0.00    +0.000 A 
BRANCH  20  22
ATOM     22  N   UNL     1       1.428   8.504  20.684  0.00  0.00    +0.000 N 
ATOM     23  C   UNL     1       1.135   8.753  22.095  0.00  0.00    +0.000 C 
ATOM     24  C   UNL     1      -0.043   9.717  22.052  0.00  0.00    +0.000 C 
ATOM     25  C   UNL     1       0.227  10.545  20.810  0.00  0.00    +0.000 C 
ATOM     26  C   UNL     1       0.816   9.531  19.834  0.00  0.00    +0.000 C 
ENDBRANCH  20  22
ENDBRANCH   3  15
TORSDOF 3
ENDMDL
MODEL 3
REMARK VINA RESULT:      -8.3      0.747      1.074
REMARK  Name = 
REMARK  4 active torsions:
REMARK  status: ('A' for Active; 'I' for Inactive)
REMARK    1  A    between atoms: C_1  and  C_2
REMARK    2  A    between atoms: C_8  and  C_9
REMARK    3  A    between atoms: N_11  and  C_12
REMARK    4  A    between atoms: C_17  and  N_18
REMARK                            x       y       z     vdW  Elec       q    Type
REMARK                         _______ _______ _______ _____ _____    ______ ____
ROOT
ATOM      1  C   UNL     1       1.638   7.919  20.194  0.00  0.00    +0.000 C 
ATOM      2  O   UNL     1       1.891   8.288  19.053  0.00  0.00    +0.000 OA
ATOM      3  N   UNL     1       1.886   6.666  20.726  0.00  0.00    +0.000 N 
ATOM      4  H   UNL     1       1.465   6.424  21.616  0.00  0.00    +0.000 HD
ENDROOT
BRANCH   1  12
ATOM      5  C   UNL     1      -2.020  12.312  19.724  0.00  0.00    +0.000 C 
ATOM      6  C   UNL     1      -1.421  11.861  21.003  0.00  0.00    +0.000 A 
ATOM      7  N   UNL     1      -1.680  12.492  22.155  0.00  0.00    +0.000 NA
ATOM      8  O   UNL     1      -0.955  11.810  23.129  0.00  0.00    +0.000 OA
ATOM      9  C   UNL     1      -0.271  10.777  22.557  0.00  0.00    +0.000 A 
ATOM     10  N   UNL     1       0.533   9.923  23.226  0.00  0.00    +0.000 NA
ATOM     11  C   UNL     1       1.121   9.000  22.419  0.00  0.00    +0.000 A 
ATOM     12  C   UNL     1       0.920   8.887  21.045  0.00  0.00    +0.000 A 
ATOM     13  C   UNL     1       0.067   9.794  20.405  0.00  0.00    +0.000 A 
ATOM     14  C   UNL     1      -0.542  10.772  21.198  0.00  0.00    +0.000 A 
ENDBRANCH   1  12
BRANCH   3  15
ATOM     15  C   UNL     1       2.492   5.598  20.016  0.00  0.00    +0.000 A 
ATOM     16  C   UNL     1       2.112   4.268  20.175  0.00  0.00    +0.000 A 
ATOM     17  C   UNL     1       2.809   3.272  19.513  0.00  0.00    +0.000 A 
ATOM     18  F   UNL     1       2.450   1.993  19.684  0.00  0.00    +0.000 F 
ATOM     19  C   UNL     1       3.870   3.574  18.672  0.00  0.00    +0.000 A 
ATOM     20  C   UNL     1       4.249   4.900  18.426  0.00  0.00    +0.000 A 
ATOM     21  C   UNL     1       3.540   5.900  19.124  0.00  0.00    +0.000 A 
BRANCH  20  22
ATOM     22  N   UNL     1       5.287   5.211  17.569  0.00  0.00    +0.000 N 
ATOM     23  C   UNL     1       5.074   5.831  16.261  0.00  0.00    +0.000 C 
ATOM     24  C   UNL     1       6.099   5.147  15.368  0.00  0.00    +0.000 C 
ATOM     25  C   UNL     1       7.268   4.898  16.303  0.00  0.00    +0.000 C 
ATOM     26  C   UNL     1       6.592   4.541  17.623  0.00  0.00    +0.000 C 
ENDBRANCH  20  22
ENDBRANCH   3  15
TORSDOF 3
ENDMDL
MODEL 4
REMARK VINA RESULT:      -8.2      3.482      8.778
REMARK  Name = 
REMARK  4 active torsions:
REMARK  status: ('A' for Active; 'I' for Inactive)
REMARK    1  A    between atoms: C_1  and  C_2
REMARK    2  A    between atoms: C_8  and  C_9
REMARK    3  A    between atoms: N_11  and  C_12
REMARK    4  A    between atoms: C_17  and  N_18
REMARK                            x       y       z     vdW  Elec       q    Type
REMARK                         _______ _______ _______ _____ _____    ______ ____
ROOT
ATOM      1  C   UNL     1       2.024   8.407  18.302  0.00  0.00    +0.000 C 
ATOM      2  O   UNL     1       2.233   9.097  17.310  0.00  0.00    +0.000 OA
ATOM      3  N   UNL     1       1.241   8.748  19.390  0.00  0.00    +0.000 N 
ATOM      4  H   UNL     1       1.295   8.177  20.225  0.00  0.00    +0.000 HD
ENDROOT
BRANCH   1  12
ATOM      5  C   UNL     1       2.045   3.505  21.281  0.00  0.00    +0.000 C 
ATOM      6  C   UNL     1       3.034   3.845  20.230  0.00  0.00    +0.000 A 
ATOM      7  N   UNL     1       4.041   3.016  19.926  0.00  0.00    +0.000 NA
ATOM      8  O   UNL     1       4.760   3.651  18.917  0.00  0.00    +0.000 OA
ATOM      9  C   UNL     1       4.180   4.850  18.621  0.00  0.00    +0.000 A 
ATOM     10  N   UNL     1       4.635   5.717  17.690  0.00  0.00    +0.000 NA
ATOM     11  C   UNL     1       3.893   6.853  17.611  0.00  0.00    +0.000 A 
ATOM     12  C   UNL     1       2.755   7.127  18.366  0.00  0.00    +0.000 A 
ATOM     13  C   UNL     1       2.322   6.188  19.310  0.00  0.00    +0.000 A 
ATOM     14  C   UNL     1       3.071   5.013  19.437  0.00  0.00    +0.000 A 
ENDBRANCH   1  12
BRANCH   3  15
ATOM     15  C   UNL     1       0.540   9.975  19.521  0.00  0.00    +0.000 A 
ATOM     16  C   UNL     1       0.905  10.964  20.430  0.00  0.00    +0.000 A 
ATOM     17  C   UNL     1       0.120  12.097  20.562  0.00  0.00    +0.000 A 
ATOM     18  F   UNL     1       0.467  13.037  21.451  0.00  0.00    +0.000 F 
ATOM     19  C   UNL     1      -1.017  12.278  19.788  0.00  0.00    +0.000 A 
ATOM     20  C   UNL     1      -1.390  11.344  18.813  0.00  0.00    +0.000 A 
ATOM     21  C   UNL     1      -0.589  10.188  18.706  0.00  0.00    +0.000 A 
BRANCH  20  22
ATOM     22  N   UNL     1      -2.505  11.530  18.019  0.00  0.00    +0.000 N 
ATOM     23  C   UNL     1      -3.845  11.731  18.571  0.00  0.00    +0.000 C 
ATOM     24  C   UNL     1      -4.746  10.958  17.618  0.00  0.00    +0.000 C 
ATOM     25  C   UNL     1      -4.060  11.125  16.275  0.00  0.00    +0.000 C 
ATOM     26  C   UNL     1      -2.577  11.068  16.628  0.00  0.00    +0.000 C 
ENDBRANCH  20  22
ENDBRANCH   3  15
TORSDOF 3
ENDMDL
MODEL 5
REMARK VINA RESULT:      -8.1      3.140      4.423
REMARK  Name = 
REMARK  4 active torsions:
REMARK  status: ('A' for Active; 'I' for Inactive)
REMARK    1  A    between atoms: C_1  and  C_2
REMARK    2  A    between atoms: C_8  and  C_9
REMARK    3  A    between atoms: N_11  and  C_12
REMARK    4  A    between atoms: C_17  and  N_18
REMARK                            x       y       z     vdW  Elec       q    Type
REMARK                         _______ _______ _______ _____ _____    ______ ____
ROOT
ATOM      1  C   UNL     1       2.971   7.048  18.184  0.00  0.00    +0.000 C 
ATOM      2  O   UNL     1       2.610   5.924  18.516  0.00  0.00    +0.000 OA
ATOM      3  N   UNL     1       4.151   7.376  17.542  0.00  0.00    +0.000 N 
ATOM      4  H   UNL     1       4.420   8.351  17.488  0.00  0.00    +0.000 HD
ENDROOT
BRANCH   1  12
ATOM      5  C   UNL     1       0.491   9.183  22.894  0.00  0.00    +0.000 C 
ATOM      6  C   UNL     1       0.276   9.714  21.527  0.00  0.00    +0.000 A 
ATOM      7  N   UNL     1      -0.561  10.734  21.299  0.00  0.00    +0.000 NA
ATOM      8  O   UNL     1      -0.518  10.956  19.924  0.00  0.00    +0.000 OA
ATOM      9  C   UNL     1       0.343  10.073  19.341  0.00  0.00    +0.000 A 
ATOM     10  N   UNL     1       0.609  10.018  18.018  0.00  0.00    +0.000 NA
ATOM     11  C   UNL     1       1.481   9.028  17.690  0.00  0.00    +0.000 A 
ATOM     12  C   UNL     1       2.089   8.157  18.592  0.00  0.00    +0.000 A 
ATOM     13  C   UNL     1       1.784   8.267  19.954  0.00  0.00    +0.000 A 
ATOM     14  C   UNL     1       0.874   9.261  20.330  0.00  0.00    +0.000 A 
ENDBRANCH   1  12
BRANCH   3  15
ATOM     15  C   UNL     1       5.143   6.437  17.156  0.00  0.00    +0.000 A 
ATOM     16  C   UNL     1       6.068   5.900  18.048  0.00  0.00    +0.000 A 
ATOM     17  C   UNL     1       7.060   5.056  17.581  0.00  0.00    +0.000 A 
ATOM     18  F   UNL     1       7.959   4.558  18.441  0.00  0.00    +0.000 F 
ATOM     19  C   UNL     1       7.142   4.716  16.238  0.00  0.00    +0.000 A 
ATOM     20  C   UNL     1       6.197   5.175  15.312  0.00  0.00    +0.000 A 
ATOM     21  C   UNL     1       5.204   6.049  15.804  0.00  0.00    +0.000 A 
BRANCH  20  22
ATOM     22  N   UNL     1       6.254   4.818  13.979  0.00  0.00    +0.000 N 
ATOM     23  C   UNL     1       5.307   3.885  13.369  0.00  0.00    +0.000 C 
ATOM     24  C   UNL     1       6.168   3.075  12.410  0.00  0.00    +0.000 C 
ATOM     25  C   UNL     1       7.201   4.078  11.935  0.00  0.00    +0.000 C 
ATOM     26  C   UNL     1       7.482   4.910  13.182  0.00  0.00    +0.000 C 
ENDBRANCH  20  22
ENDBRANCH   3  15
TORSDOF 3
ENDMDL
MODEL 6
REMARK VINA RESULT:      -8.1      1.928      2.432
REMARK  Name = 
REMARK  4 active torsions:
REMARK  status: ('A' for Active; 'I' for Inactive)
REMARK    1  A    between atoms: C_1  and  C_2
REMARK    2  A    between atoms: C_8  and  C_9
REMARK    3  A    between atoms: N_11  and  C_12
REMARK    4  A    between atoms: C_17  and  N_18
REMARK                            x       y       z     vdW  Elec       q    Type
REMARK                         _______ _______ _______ _____ _____    ______ ____
ROOT
ATOM      1  C   UNL     1       2.153   8.240  18.298  0.00  0.00    +0.000 C 
ATOM      2  O   UNL     1       2.431   8.407  17.116  0.00  0.00    +0.000 OA
ATOM      3  N   UNL     1       2.148   7.036  18.979  0.00  0.00    +0.000 N 
ATOM      4  H   UNL     1       1.723   7.000  19.898  0.00  0.00    +0.000 HD
ENDROOT
BRANCH   1  12
ATOM      5  C   UNL     1      -0.464   9.655  23.202  0.00  0.00    +0.000 C 
ATOM      6  C   UNL     1      -0.081  10.629  22.152  0.00  0.00    +0.000 A 
ATOM      7  N   UNL     1      -0.360  11.933  22.275  0.00  0.00    +0.000 NA
ATOM      8  O   UNL     1       0.133  12.534  21.119  0.00  0.00    +0.000 OA
ATOM      9  C   UNL     1       0.705  11.591  20.316  0.00  0.00    +0.000 A 
ATOM     10  N   UNL     1       1.273  11.843  19.117  0.00  0.00    +0.000 NA
ATOM     11  C   UNL     1       1.744  10.725  18.504  0.00  0.00    +0.000 A 
ATOM     12  C   UNL     1       1.699   9.437  19.032  0.00  0.00    +0.000 A 
ATOM     13  C   UNL     1       1.108   9.235  20.284  0.00  0.00    +0.000 A 
ATOM     14  C   UNL     1       0.592  10.358  20.939  0.00  0.00    +0.000 A 
ENDBRANCH   1  12
BRANCH   3  15
ATOM     15  C   UNL     1       2.478   5.784  18.398  0.00  0.00    +0.000 A 
ATOM     16  C   UNL     1       1.664   4.659  18.505  0.00  0.00    +0.000 A 
ATOM     17  C   UNL     1       2.094   3.451  17.986  0.00  0.00    +0.000 A 
ATOM     18  F   UNL     1       1.315   2.368  18.109  0.00  0.00    +0.000 F 
ATOM     19  C   UNL     1       3.317   3.339  17.340  0.00  0.00    +0.000 A 
ATOM     20  C   UNL     1       4.142   4.454  17.148  0.00  0.00    +0.000 A 
ATOM     21  C   UNL     1       3.696   5.674  17.699  0.00  0.00    +0.000 A 
BRANCH  20  22
ATOM     22  N   UNL     1       5.348   4.358  16.480  0.00  0.00    +0.000 N 
ATOM     23  C   UNL     1       6.625   4.716  17.098  0.00  0.00    +0.000 C 
ATOM     24  C   UNL     1       7.394   5.387  15.969  0.00  0.00    +0.000 C 
ATOM     25  C   UNL     1       6.929   4.638  14.735  0.00  0.00    +0.000 C 
ATOM     26  C   UNL     1       5.452   4.380  15.017  0.00  0.00    +0.000 C 
ENDBRANCH  20  22
ENDBRANCH   3  15
TORSDOF 3
ENDMDL
MODEL 7
REMARK VINA RESULT:      -8.1      3.447      8.982
REMARK  Name = 
REMARK  4 active torsions:
REMARK  status: ('A' for Active; 'I' for Inactive)
REMARK    1  A    between atoms: C_1  and  C_2
REMARK    2  A    between atoms: C_8  and  C_9
REMARK    3  A    between atoms: N_11  and  C_12
REMARK    4  A    between atoms: C_17  and  N_18
REMARK                            x       y       z     vdW  Elec       q    Type
REMARK                         _______ _______ _______ _____ _____    ______ ____
ROOT
ATOM      1  C   UNL     1       1.908   8.689  18.463  0.00  0.00    +0.000 C 
ATOM      2  O   UNL     1       2.055   9.372  17.455  0.00  0.00    +0.000 OA
ATOM      3  N   UNL     1       1.141   9.011  19.568  0.00  0.00    +0.000 N 
ATOM      4  H   UNL     1       1.246   8.457  20.410  0.00  0.00    +0.000 HD
ENDROOT
BRANCH   1  12
ATOM      5  C   UNL     1       5.550   5.637  15.251  0.00  0.00    +0.000 C 
ATOM      6  C   UNL     1       5.053   5.209  16.580  0.00  0.00    +0.000 A 
ATOM      7  N   UNL     1       5.410   4.033  17.112  0.00  0.00    +0.000 NA
ATOM      8  O   UNL     1       4.761   3.964  18.343  0.00  0.00    +0.000 OA
ATOM      9  C   UNL     1       4.024   5.096  18.540  0.00  0.00    +0.000 A 
ATOM     10  N   UNL     1       3.270   5.343  19.633  0.00  0.00    +0.000 NA
ATOM     11  C   UNL     1       2.612   6.530  19.571  0.00  0.00    +0.000 A 
ATOM     12  C   UNL     1       2.700   7.447  18.525  0.00  0.00    +0.000 A 
ATOM     13  C   UNL     1       3.506   7.144  17.421  0.00  0.00    +0.000 A 
ATOM     14  C   UNL     1       4.184   5.920  17.438  0.00  0.00    +0.000 A 
ENDBRANCH   1  12
BRANCH   3  15
ATOM     15  C   UNL     1       0.386  10.205  19.702  0.00  0.00    +0.000 A 
ATOM     16  C   UNL     1       0.700  11.203  20.620  0.00  0.00    +0.000 A 
ATOM     17  C   UNL     1      -0.133  12.300  20.753  0.00  0.00    +0.000 A 
ATOM     18  F   UNL     1       0.164  13.248  21.652  0.00  0.00    +0.000 F 
ATOM     19  C   UNL     1      -1.271  12.437  19.971  0.00  0.00    +0.000 A 
ATOM     20  C   UNL     1      -1.595  11.495  18.986  0.00  0.00    +0.000 A 
ATOM     21  C   UNL     1      -0.744  10.375  18.879  0.00  0.00    +0.000 A 
BRANCH  20  22
ATOM     22  N   UNL     1      -2.711  11.639  18.184  0.00  0.00    +0.000 N 
ATOM     23  C   UNL     1      -4.053  11.854  18.725  0.00  0.00    +0.000 C 
ATOM     24  C   UNL     1      -4.947  11.033  17.806  0.00  0.00    +0.000 C 
ATOM     25  C   UNL     1      -4.261  11.147  16.458  0.00  0.00    +0.000 C 
ATOM     26  C   UNL     1      -2.778  11.117  16.814  0.00  0.00    +0.000 C 
ENDBRANCH  20  22
ENDBRANCH   3  15
TORSDOF 3
ENDMDL
MODEL 8
REMARK VINA RESULT:      -8.0      2.857      8.646
REMARK  Name = 
REMARK  4 active torsions:
REMARK  status: ('A' for Active; 'I' for Inactive)
REMARK    1  A    between atoms: C_1  and  C_2
REMARK    2  A    between atoms: C_8  and  C_9
REMARK    3  A    between atoms: N_11  and  C_12
REMARK    4  A    between atoms: C_17  and  N_18
REMARK                            x       y       z     vdW  Elec       q    Type
REMARK                         _______ _______ _______ _____ _____    ______ ____
ROOT
ATOM      1  C   UNL     1       2.294   6.229  19.667  0.00  0.00    +0.000 C 
ATOM      2  O   UNL     1       1.602   5.580  20.443  0.00  0.00    +0.000 OA
ATOM      3  N   UNL     1       2.278   7.602  19.502  0.00  0.00    +0.000 N 
ATOM      4  H   UNL     1       2.759   8.001  18.705  0.00  0.00    +0.000 HD
ENDROOT
BRANCH   1  12
ATOM      5  C   UNL     1       7.449   6.542  17.170  0.00  0.00    +0.000 C 
ATOM      6  C   UNL     1       6.477   5.447  16.938  0.00  0.00    +0.000 A 
ATOM      7  N   UNL     1       6.739   4.453  16.080  0.00  0.00    +0.000 NA
ATOM      8  O   UNL     1       5.620   3.624  16.112  0.00  0.00    +0.000 OA
ATOM      9  C   UNL     1       4.700   4.123  16.987  0.00  0.00    +0.000 A 
ATOM     10  N   UNL     1       3.500   3.560  17.247  0.00  0.00    +0.000 NA
ATOM     11  C   UNL     1       2.758   4.272  18.137  0.00  0.00    +0.000 A 
ATOM     12  C   UNL     1       3.163   5.447  18.766  0.00  0.00    +0.000 A 
ATOM     13  C   UNL     1       4.422   5.981  18.466  0.00  0.00    +0.000 A 
ATOM     14  C   UNL     1       5.208   5.289  17.539  0.00  0.00    +0.000 A 
ENDBRANCH   1  12
BRANCH   3  15
ATOM     15  C   UNL     1       1.442   8.488  20.230  0.00  0.00    +0.000 A 
ATOM     16  C   UNL     1       1.411   8.531  21.622  0.00  0.00    +0.000 A 
ATOM     17  C   UNL     1       0.506   9.360  22.261  0.00  0.00    +0.000 A 
ATOM     18  F   UNL     1       0.469   9.383  23.601  0.00  0.00    +0.000 F 
ATOM     19  C   UNL     1      -0.361  10.169  21.542  0.00  0.00    +0.000 A 
ATOM     20  C   UNL     1      -0.324  10.213  20.143  0.00  0.00    +0.000 A 
ATOM     21  C   UNL     1       0.592   9.347  19.508  0.00  0.00    +0.000 A 
BRANCH  20  22
ATOM     22  N   UNL     1      -1.165  11.037  19.420  0.00  0.00    +0.000 N 
ATOM     23  C   UNL     1      -1.956  12.100  20.039  0.00  0.00    +0.000 C 
ATOM     24  C   UNL     1      -3.276  12.052  19.284  0.00  0.00    +0.000 C 
ATOM     25  C   UNL     1      -2.862  11.648  17.881  0.00  0.00    +0.000 C 
ATOM     26  C   UNL     1      -1.731  10.653  18.121  0.00  0.00    +0.000 C 
ENDBRANCH  20  22
ENDBRANCH   3  15
TORSDOF 3
ENDMDL
MODEL 9
REMARK VINA RESULT:      -8.0      3.750      9.143
REMARK  Name = 
REMARK  4 active torsions:
REMARK  status: ('A' for Active; 'I' for Inactive)
REMARK    1  A    between atoms: C_1  and  C_2
REMARK    2  A    between atoms: C_8  and  C_9
REMARK    3  A    between atoms: N_11  and  C_12
REMARK    4  A    between atoms: C_17  and  N_18
REMARK                            x       y       z     vdW  Elec       q    Type
REMARK                         _______ _______ _______ _____ _____    ______ ____
ROOT
ATOM      1  C   UNL     1       2.091   7.921  18.765  0.00  0.00    +0.000 C 
ATOM      2  O   UNL     1       1.935   7.988  19.979  0.00  0.00    +0.000 OA
ATOM      3  N   UNL     1       1.667   8.848  17.830  0.00  0.00    +0.000 N 
ATOM      4  H   UNL     1       1.689   8.594  16.849  0.00  0.00    +0.000 HD
ENDROOT
BRANCH   1  12
ATOM      5  C   UNL     1       1.231   2.250  18.751  0.00  0.00    +0.000 C 
ATOM      6  C   UNL     1       2.427   2.912  18.176  0.00  0.00    +0.000 A 
ATOM      7  N   UNL     1       3.423   2.202  17.631  0.00  0.00    +0.000 NA
ATOM      8  O   UNL     1       4.364   3.137  17.207  0.00  0.00    +0.000 OA
ATOM      9  C   UNL     1       3.926   4.397  17.496  0.00  0.00    +0.000 A 
ATOM     10  N   UNL     1       4.607   5.530  17.221  0.00  0.00    +0.000 NA
ATOM     11  C   UNL     1       3.964   6.653  17.638  0.00  0.00    +0.000 A 
ATOM     12  C   UNL     1       2.717   6.685  18.259  0.00  0.00    +0.000 A 
ATOM     13  C   UNL     1       2.052   5.480  18.511  0.00  0.00    +0.000 A 
ATOM     14  C   UNL     1       2.690   4.299  18.115  0.00  0.00    +0.000 A 
ENDBRANCH   1  12
BRANCH   3  15
ATOM     15  C   UNL     1       0.977  10.048  18.144  0.00  0.00    +0.000 A 
ATOM     16  C   UNL     1       1.627  11.218  18.528  0.00  0.00    +0.000 A 
ATOM     17  C   UNL     1       0.883  12.323  18.904  0.00  0.00    +0.000 A 
ATOM     18  F   UNL     1       1.513  13.440  19.290  0.00  0.00    +0.000 F 
ATOM     19  C   UNL     1      -0.504  12.296  18.887  0.00  0.00    +0.000 A 
ATOM     20  C   UNL     1      -1.205  11.166  18.445  0.00  0.00    +0.000 A 
ATOM     21  C   UNL     1      -0.430  10.044  18.084  0.00  0.00    +0.000 A 
BRANCH  20  22
ATOM     22  N   UNL     1      -2.585  11.140  18.398  0.00  0.00    +0.000 N 
ATOM     23  C   UNL     1      -3.327  10.596  17.261  0.00  0.00    +0.000 C 
ATOM     24  C   UNL     1      -4.511  11.542  17.119  0.00  0.00    +0.000 C 
ATOM     25  C   UNL     1      -4.810  11.946  18.551  0.00  0.00    +0.000 C 
ATOM     26  C   UNL     1      -3.425  12.053  19.182  0.00  0.00    +0.000 C 
ENDBRANCH  20  22
ENDBRANCH   3  15
TORSDOF 3
ENDMDL
