MODEL 1
REMARK VINA RESULT:      -8.6      0.000      0.000
REMARK  Name = 
REMARK  4 active torsions:
REMARK  status: ('A' for Active; 'I' for Inactive)
REMARK    1  A    between atoms: C_2  and  C_17
REMARK    2  A    between atoms: N_3  and  C_4
REMARK    3  A    between atoms: C_9  and  C_10
REMARK    4  A    between atoms: C_10  and  C_11
REMARK                            x       y       z     vdW  Elec       q    Type
REMARK                         _______ _______ _______ _____ _____    ______ ____
ROOT
ATOM      1  O   UNL     1       2.328   8.283  17.088  0.00  0.00    +0.000 OA
ATOM      2  C   UNL     1       2.504   7.949  18.243  0.00  0.00    +0.000 C 
ATOM      3  N   UNL     1       3.367   6.929  18.648  0.00  0.00    +0.000 N 
ATOM      4  H   UNL     1       3.121   6.516  19.541  0.00  0.00    +0.000 HD
ENDROOT
BRANCH   2   5
ATOM      5  C   UNL     1       1.732   8.580  19.329  0.00  0.00    +0.000 A 
ATOM      6  C   UNL     1       1.066   9.788  19.194  0.00  0.00    +0.000 A 
ATOM      7  N   UNL     1       0.453  10.024  20.391  0.00  0.00    +0.000 N 
ATOM      8  C   UNL     1      -0.385  11.073  20.763  0.00  0.00    +0.000 A 
ATOM      9  C   UNL     1      -0.849  11.124  22.024  0.00  0.00    +0.000 A 
ATOM     10  C   UNL     1      -0.433  10.091  22.963  0.00  0.00    +0.000 A 
ATOM     11  C   UNL     1       0.361   9.067  22.585  0.00  0.00    +0.000 A 
ATOM     12  C   UNL     1       0.817   8.980  21.237  0.00  0.00    +0.000 A 
ATOM     13  N   UNL     1       1.544   8.073  20.604  0.00  0.00    +0.000 NA
ENDBRANCH   2   5
BRANCH   3  14
ATOM     14  C   UNL     1       4.072   6.136  17.698  0.00  0.00    +0.000 A 
ATOM     15  C   UNL     1       5.211   6.712  17.100  0.00  0.00    +0.000 A 
ATOM     16  C   UNL     1       5.986   6.005  16.176  0.00  0.00    +0.000 A 
ATOM     17  C   UNL     1       5.647   4.703  15.842  0.00  0.00    +0.000 A 
ATOM     18  C   UNL     1       4.515   4.126  16.408  0.00  0.00    +0.000 A 
ATOM     19  C   UNL     1       3.682   4.835  17.307  0.00  0.00    +0.000 A 
BRANCH  19  20
ATOM     20  C   UNL     1       2.401   4.108  17.685  0.00  0.00    +0.000 C 
BRANCH  20  21
ATOM     21  C   UNL     1       2.280   3.619  19.113  0.00  0.00    +0.000 A 
ATOM     22  C   UNL     1       3.392   3.079  19.782  0.00  0.00    +0.000 A 
ATOM     23  C   UNL     1       3.258   2.532  21.057  0.00  0.00    +0.000 A 
ATOM     24  C   UNL     1       2.017   2.542  21.690  0.00  0.00    +0.000 A 
ATOM     25  C   UNL     1       0.923   3.142  21.069  0.00  0.00    +0.000 A 
ATOM     26  C   UNL     1       1.053   3.683  19.789  0.00  0.00    +0.000 A 
ENDBRANCH  20  21
ENDBRANCH  19  20
ENDBRANCH   3  14
TORSDOF 4
ENDMDL
MODEL 2
REMARK VINA RESULT:      -8.5      0.562      1.202
REMARK  Name = 
REMARK  4 active torsions:
REMARK  status: ('A' for Active; 'I' for Inactive)
REMARK    1  A    between atoms: C_2  and  C_17
REMARK    2  A    between atoms: N_3  and  C_4
REMARK    3  A    between atoms: C_9  and  C_10
REMARK    4  A    between atoms: C_10  and  C_11
REMARK                            x       y       z     vdW  Elec       q    Type
REMARK                         _______ _______ _______ _____ _____    ______ ____
ROOT
ATOM      1  O   UNL     1       2.238   8.598  17.158  0.00  0.00    +0.000 OA
ATOM      2  C   UNL     1       2.351   8.220  18.308  0.00  0.00    +0.000 C 
ATOM      3  N   UNL     1       3.143   7.144  18.712  0.00  0.00    +0.000 N 
ATOM      4  H   UNL     1       2.841   6.717  19.582  0.00  0.00    +0.000 HD
ENDROOT
BRANCH   2   5
ATOM      5  C   UNL     1       1.569   8.858  19.383  0.00  0.00    +0.000 A 
ATOM      6  C   UNL     1       1.419   8.313  20.649  0.00  0.00    +0.000 A 
ATOM      7  N   UNL     1       0.661   9.197  21.360  0.00  0.00    +0.000 N 
ATOM      8  C   UNL     1       0.269   9.151  22.696  0.00  0.00    +0.000 A 
ATOM      9  C   UNL     1      -0.521  10.124  23.181  0.00  0.00    +0.000 A 
ATOM     10  C   UNL     1      -0.960  11.180  22.279  0.00  0.00    +0.000 A 
ATOM     11  C   UNL     1      -0.555  11.228  20.992  0.00  0.00    +0.000 A 
ATOM     12  C   UNL     1       0.321  10.225  20.484  0.00  0.00    +0.000 A 
ATOM     13  N   UNL     1       0.900  10.068  19.304  0.00  0.00    +0.000 NA
ENDBRANCH   2   5
BRANCH   3  14
ATOM     14  C   UNL     1       3.844   6.345  17.765  0.00  0.00    +0.000 A 
ATOM     15  C   UNL     1       4.965   6.925  17.140  0.00  0.00    +0.000 A 
ATOM     16  C   UNL     1       5.736   6.213  16.215  0.00  0.00    +0.000 A 
ATOM     17  C   UNL     1       5.410   4.901  15.909  0.00  0.00    +0.000 A 
ATOM     18  C   UNL     1       4.295   4.319  16.503  0.00  0.00    +0.000 A 
ATOM     19  C   UNL     1       3.466   5.031  17.402  0.00  0.00    +0.000 A 
BRANCH  19  20
ATOM     20  C   UNL     1       2.201   4.294  17.813  0.00  0.00    +0.000 C 
BRANCH  20  21
ATOM     21  C   UNL     1       2.166   3.708  19.209  0.00  0.00    +0.000 A 
ATOM     22  C   UNL     1       3.350   3.292  19.841  0.00  0.00    +0.000 A 
ATOM     23  C   UNL     1       3.309   2.656  21.081  0.00  0.00    +0.000 A 
ATOM     24  C   UNL     1       2.086   2.452  21.716  0.00  0.00    +0.000 A 
ATOM     25  C   UNL     1       0.911   2.927  21.135  0.00  0.00    +0.000 A 
ATOM     26  C   UNL     1       0.950   3.556  19.890  0.00  0.00    +0.000 A 
ENDBRANCH  20  21
ENDBRANCH  19  20
ENDBRANCH   3  14
TORSDOF 4
ENDMDL
MODEL 3
REMARK VINA RESULT:      -8.5      1.158      1.573
REMARK  Name = 
REMARK  4 active torsions:
REMARK  status: ('A' for Active; 'I' for Inactive)
REMARK    1  A    between atoms: C_2  and  C_17
REMARK    2  A    between atoms: N_3  and  C_4
REMARK    3  A    between atoms: C_9  and  C_10
REMARK    4  A    between atoms: C_10  and  C_11
REMARK                            x       y       z     vdW  Elec       q    Type
REMARK                         _______ _______ _______ _____ _____    ______ ____
ROOT
ATOM      1  O   UNL     1       3.933   5.832  19.886  0.00  0.00    +0.000 OA
ATOM      2  C   UNL     1       3.174   6.446  19.162  0.00  0.00    +0.000 C 
ATOM      3  N   UNL     1       3.144   6.334  17.770  0.00  0.00    +0.000 N 
ATOM      4  H   UNL     1       2.768   7.152  17.302  0.00  0.00    +0.000 HD
ENDROOT
BRANCH   2   5
ATOM      5  C   UNL     1       2.246   7.442  19.727  0.00  0.00    +0.000 A 
ATOM      6  C   UNL     1       1.836   8.580  19.050  0.00  0.00    +0.000 A 
ATOM      7  N   UNL     1       0.968   9.230  19.880  0.00  0.00    +0.000 N 
ATOM      8  C   UNL     1       0.234  10.392  19.656  0.00  0.00    +0.000 A 
ATOM      9  C   UNL     1      -0.538  10.879  20.643  0.00  0.00    +0.000 A 
ATOM     10  C   UNL     1      -0.555  10.183  21.923  0.00  0.00    +0.000 A 
ATOM     11  C   UNL     1       0.142   9.045  22.121  0.00  0.00    +0.000 A 
ATOM     12  C   UNL     1       0.925   8.496  21.063  0.00  0.00    +0.000 A 
ATOM     13  N   UNL     1       1.645   7.389  20.975  0.00  0.00    +0.000 NA
ENDBRANCH   2   5
BRANCH   3  14
ATOM     14  C   UNL     1       4.079   5.516  17.074  0.00  0.00    +0.000 A 
ATOM     15  C   UNL     1       5.202   6.158  16.515  0.00  0.00    +0.000 A 
ATOM     16  C   UNL     1       6.190   5.439  15.835  0.00  0.00    +0.000 A 
ATOM     17  C   UNL     1       6.084   4.062  15.715  0.00  0.00    +0.000 A 
ATOM     18  C   UNL     1       4.972   3.415  16.245  0.00  0.00    +0.000 A 
ATOM     19  C   UNL     1       3.931   4.122  16.892  0.00  0.00    +0.000 A 
BRANCH  19  20
ATOM     20  C   UNL     1       2.720   3.274  17.250  0.00  0.00    +0.000 C 
BRANCH  20  21
ATOM     21  C   UNL     1       2.412   3.096  18.722  0.00  0.00    +0.000 A 
ATOM     22  C   UNL     1       1.183   3.525  19.253  0.00  0.00    +0.000 A 
ATOM     23  C   UNL     1       0.939   3.459  20.624  0.00  0.00    +0.000 A 
ATOM     24  C   UNL     1       1.910   2.941  21.478  0.00  0.00    +0.000 A 
ATOM     25  C   UNL     1       3.103   2.444  20.956  0.00  0.00    +0.000 A 
ATOM     26  C   UNL     1       3.352   2.516  19.585  0.00  0.00    +0.000 A 
ENDBRANCH  20  21
ENDBRANCH  19  20
ENDBRANCH   3  14
TORSDOF 4
ENDMDL
MODEL 4
REMARK VINA RESULT:      -8.5      0.399      1.041
REMARK  Name = 
REMARK  4 active torsions:
REMARK  status: ('A' for Active; 'I' for Inactive)
REMARK    1  A    between atoms: C_2  and  C_17
REMARK    2  A    between atoms: N_3  and  C_4
REMARK    3  A    between atoms: C_9  and  C_10
REMARK    4  A    between atoms: C_10  and  C_11
REMARK                            x       y       z     vdW  Elec       q    Type
REMARK                         _______ _______ _______ _____ _____    ______ ____
ROOT
ATOM      1  O   UNL     1       2.780   8.092  16.963  0.00  0.00    +0.000 OA
ATOM      2  C   UNL     1       2.836   7.705  18.114  0.00  0.00    +0.000 C 
ATOM      3  N   UNL     1       3.611   6.627  18.548  0.00  0.00    +0.000 N 
ATOM      4  H   UNL     1       3.267   6.193  19.398  0.00  0.00    +0.000 HD
ENDROOT
BRANCH   2   5
ATOM      5  C   UNL     1       2.000   8.331  19.154  0.00  0.00    +0.000 A 
ATOM      6  C   UNL     1       1.260   9.485  18.951  0.00  0.00    +0.000 A 
ATOM      7  N   UNL     1       0.605   9.733  20.123  0.00  0.00    +0.000 N 
ATOM      8  C   UNL     1      -0.308  10.739  20.430  0.00  0.00    +0.000 A 
ATOM      9  C   UNL     1      -0.804  10.815  21.677  0.00  0.00    +0.000 A 
ATOM     10  C   UNL     1      -0.344   9.854  22.671  0.00  0.00    +0.000 A 
ATOM     11  C   UNL     1       0.524   8.869  22.356  0.00  0.00    +0.000 A 
ATOM     12  C   UNL     1       1.016   8.752  21.023  0.00  0.00    +0.000 A 
ATOM     13  N   UNL     1       1.815   7.868  20.447  0.00  0.00    +0.000 NA
ENDBRANCH   2   5
BRANCH   3  14
ATOM     14  C   UNL     1       4.361   5.839  17.631  0.00  0.00    +0.000 A 
ATOM     15  C   UNL     1       5.539   6.407  17.108  0.00  0.00    +0.000 A 
ATOM     16  C   UNL     1       6.360   5.703  16.221  0.00  0.00    +0.000 A 
ATOM     17  C   UNL     1       6.026   4.409  15.851  0.00  0.00    +0.000 A 
ATOM     18  C   UNL     1       4.856   3.839  16.342  0.00  0.00    +0.000 A 
ATOM     19  C   UNL     1       3.980   4.547  17.200  0.00  0.00    +0.000 A 
BRANCH  19  20
ATOM     20  C   UNL     1       2.671   3.831  17.493  0.00  0.00    +0.000 C 
BRANCH  20  21
ATOM     21  C   UNL     1       2.420   3.409  18.926  0.00  0.00    +0.000 A 
ATOM     22  C   UNL     1       1.181   3.664  19.541  0.00  0.00    +0.000 A 
ATOM     23  C   UNL     1       0.984   3.372  20.890  0.00  0.00    +0.000 A 
ATOM     24  C   UNL     1       2.014   2.799  21.634  0.00  0.00    +0.000 A 
ATOM     25  C   UNL     1       3.221   2.473  21.018  0.00  0.00    +0.000 A 
ATOM     26  C   UNL     1       3.423   2.771  19.670  0.00  0.00    +0.000 A 
ENDBRANCH  20  21
ENDBRANCH  19  20
ENDBRANCH   3  14
TORSDOF 4
ENDMDL
MODEL 5
REMARK VINA RESULT:      -8.4      1.240      1.910
REMARK  Name = 
REMARK  4 active torsions:
REMARK  status: ('A' for Active; 'I' for Inactive)
REMARK    1  A    between atoms: C_2  and  C_17
REMARK    2  A    between atoms: N_3  and  C_4
REMARK    3  A    between atoms: C_9  and  C_10
REMARK    4  A    between atoms: C_10  and  C_11
REMARK                            x       y       z     vdW  Elec       q    Type
REMARK                         _______ _______ _______ _____ _____    ______ ____
ROOT
ATOM      1  O   UNL     1       3.897   5.952  19.876  0.00  0.00    +0.000 OA
ATOM      2  C   UNL     1       3.175   6.551  19.102  0.00  0.00    +0.000 C 
ATOM      3  N   UNL     1       3.208   6.403  17.714  0.00  0.00    +0.000 N 
ATOM      4  H   UNL     1       2.857   7.210  17.208  0.00  0.00    +0.000 HD
ENDROOT
BRANCH   2   5
ATOM      5  C   UNL     1       2.228   7.566  19.599  0.00  0.00    +0.000 A 
ATOM      6  C   UNL     1       1.626   7.509  20.846  0.00  0.00    +0.000 A 
ATOM      7  N   UNL     1       0.849   8.626  20.950  0.00  0.00    +0.000 N 
ATOM      8  C   UNL     1       0.081   9.073  22.022  0.00  0.00    +0.000 A 
ATOM      9  C   UNL     1      -0.646  10.195  21.885  0.00  0.00    +0.000 A 
ATOM     10  C   UNL     1      -0.622  10.890  20.605  0.00  0.00    +0.000 A 
ATOM     11  C   UNL     1       0.145  10.461  19.580  0.00  0.00    +0.000 A 
ATOM     12  C   UNL     1       0.955   9.298  19.734  0.00  0.00    +0.000 A 
ATOM     13  N   UNL     1       1.819   8.706  18.926  0.00  0.00    +0.000 NA
ENDBRANCH   2   5
BRANCH   3  14
ATOM     14  C   UNL     1       4.168   5.563  17.083  0.00  0.00    +0.000 A 
ATOM     15  C   UNL     1       5.326   6.181  16.572  0.00  0.00    +0.000 A 
ATOM     16  C   UNL     1       6.340   5.440  15.958  0.00  0.00    +0.000 A 
ATOM     17  C   UNL     1       6.224   4.062  15.857  0.00  0.00    +0.000 A 
ATOM     18  C   UNL     1       5.079   3.437  16.339  0.00  0.00    +0.000 A 
ATOM     19  C   UNL     1       4.013   4.167  16.918  0.00  0.00    +0.000 A 
BRANCH  19  20
ATOM     20  C   UNL     1       2.776   3.338  17.226  0.00  0.00    +0.000 C 
BRANCH  20  21
ATOM     21  C   UNL     1       2.410   3.159  18.685  0.00  0.00    +0.000 A 
ATOM     22  C   UNL     1       1.151   3.565  19.162  0.00  0.00    +0.000 A 
ATOM     23  C   UNL     1       0.852   3.499  20.522  0.00  0.00    +0.000 A 
ATOM     24  C   UNL     1       1.797   3.003  21.418  0.00  0.00    +0.000 A 
ATOM     25  C   UNL     1       3.020   2.527  20.948  0.00  0.00    +0.000 A 
ATOM     26  C   UNL     1       3.324   2.600  19.588  0.00  0.00    +0.000 A 
ENDBRANCH  20  21
ENDBRANCH  19  20
ENDBRANCH   3  14
TORSDOF 4
ENDMDL
MODEL 6
REMARK VINA RESULT:      -8.4      2.707      7.914
REMARK  Name = 
REMARK  4 active torsions:
REMARK  status: ('A' for Active; 'I' for Inactive)
REMARK    1  A    between atoms: C_2  and  C_17
REMARK    2  A    between atoms: N_3  and  C_4
REMARK    3  A    between atoms: C_9  and  C_10
REMARK    4  A    between atoms: C_10  and  C_11
REMARK                            x       y       z     vdW  Elec       q    Type
REMARK                         _______ _______ _______ _____ _____    ______ ____
ROOT
ATOM      1  O   UNL     1       5.400   3.936  18.353  0.00  0.00    +0.000 OA
ATOM      2  C   UNL     1       4.763   4.170  17.345  0.00  0.00    +0.000 C 
ATOM      3  N   UNL     1       3.373   4.295  17.300  0.00  0.00    +0.000 N 
ATOM      4  H   UNL     1       2.974   4.097  16.388  0.00  0.00    +0.000 HD
ENDROOT
BRANCH   2   5
ATOM      5  C   UNL     1       5.441   4.270  16.040  0.00  0.00    +0.000 A 
ATOM      6  C   UNL     1       6.408   5.220  15.749  0.00  0.00    +0.000 A 
ATOM      7  N   UNL     1       6.812   4.977  14.468  0.00  0.00    +0.000 N 
ATOM      8  C   UNL     1       7.801   5.609  13.717  0.00  0.00    +0.000 A 
ATOM      9  C   UNL     1       8.004   5.225  12.445  0.00  0.00    +0.000 A 
ATOM     10  C   UNL     1       7.160   4.175  11.891  0.00  0.00    +0.000 A 
ATOM     11  C   UNL     1       6.221   3.552  12.634  0.00  0.00    +0.000 A 
ATOM     12  C   UNL     1       6.033   3.922  13.999  0.00  0.00    +0.000 A 
ATOM     13  N   UNL     1       5.238   3.447  14.944  0.00  0.00    +0.000 NA
ENDBRANCH   2   5
BRANCH   3  14
ATOM     14  C   UNL     1       2.573   4.082  18.458  0.00  0.00    +0.000 A 
ATOM     15  C   UNL     1       1.764   2.930  18.477  0.00  0.00    +0.000 A 
ATOM     16  C   UNL     1       0.963   2.617  19.580  0.00  0.00    +0.000 A 
ATOM     17  C   UNL     1       0.967   3.444  20.692  0.00  0.00    +0.000 A 
ATOM     18  C   UNL     1       1.745   4.597  20.683  0.00  0.00    +0.000 A 
ATOM     19  C   UNL     1       2.526   4.966  19.561  0.00  0.00    +0.000 A 
BRANCH  19  20
ATOM     20  C   UNL     1       3.169   6.340  19.665  0.00  0.00    +0.000 C 
BRANCH  20  21
ATOM     21  C   UNL     1       2.293   7.537  19.363  0.00  0.00    +0.000 A 
ATOM     22  C   UNL     1       2.193   8.041  18.055  0.00  0.00    +0.000 A 
ATOM     23  C   UNL     1       1.471   9.205  17.794  0.00  0.00    +0.000 A 
ATOM     24  C   UNL     1       0.820   9.865  18.833  0.00  0.00    +0.000 A 
ATOM     25  C   UNL     1       0.849   9.336  20.122  0.00  0.00    +0.000 A 
ATOM     26  C   UNL     1       1.576   8.175  20.387  0.00  0.00    +0.000 A 
ENDBRANCH  20  21
ENDBRANCH  19  20
ENDBRANCH   3  14
TORSDOF 4
ENDMDL
MODEL 7
REMARK VINA RESULT:      -8.3      2.682      7.934
REMARK  Name = 
REMARK  4 active torsions:
REMARK  status: ('A' for Active; 'I' for Inactive)
REMARK    1  A    between atoms: C_2  and  C_17
REMARK    2  A    between atoms: N_3  and  C_4
REMARK    3  A    between atoms: C_9  and  C_10
REMARK    4  A    between atoms: C_10  and  C_11
REMARK                            x       y       z     vdW  Elec       q    Type
REMARK                         _______ _______ _______ _____ _____    ______ ____
ROOT
ATOM      1  O   UNL     1       5.424   4.100  18.348  0.00  0.00    +0.000 OA
ATOM      2  C   UNL     1       4.806   4.310  17.323  0.00  0.00    +0.000 C 
ATOM      3  N   UNL     1       3.415   4.394  17.242  0.00  0.00    +0.000 N 
ATOM      4  H   UNL     1       3.045   4.179  16.322  0.00  0.00    +0.000 HD
ENDROOT
BRANCH   2   5
ATOM      5  C   UNL     1       5.513   4.423  16.035  0.00  0.00    +0.000 A 
ATOM      6  C   UNL     1       5.298   3.569  14.964  0.00  0.00    +0.000 A 
ATOM      7  N   UNL     1       6.108   4.006  13.955  0.00  0.00    +0.000 N 
ATOM      8  C   UNL     1       6.231   3.531  12.652  0.00  0.00    +0.000 A 
ATOM      9  C   UNL     1       7.134   4.096  11.831  0.00  0.00    +0.000 A 
ATOM     10  C   UNL     1       7.970   5.171  12.349  0.00  0.00    +0.000 A 
ATOM     11  C   UNL     1       7.825   5.639  13.606  0.00  0.00    +0.000 A 
ATOM     12  C   UNL     1       6.837   5.076  14.467  0.00  0.00    +0.000 A 
ATOM     13  N   UNL     1       6.459   5.378  15.698  0.00  0.00    +0.000 NA
ENDBRANCH   2   5
BRANCH   3  14
ATOM     14  C   UNL     1       2.592   4.164  18.382  0.00  0.00    +0.000 A 
ATOM     15  C   UNL     1       1.797   3.002  18.376  0.00  0.00    +0.000 A 
ATOM     16  C   UNL     1       0.975   2.673  19.459  0.00  0.00    +0.000 A 
ATOM     17  C   UNL     1       0.946   3.492  20.577  0.00  0.00    +0.000 A 
ATOM     18  C   UNL     1       1.711   4.654  20.592  0.00  0.00    +0.000 A 
ATOM     19  C   UNL     1       2.511   5.039  19.490  0.00  0.00    +0.000 A 
BRANCH  19  20
ATOM     20  C   UNL     1       3.136   6.419  19.617  0.00  0.00    +0.000 C 
BRANCH  20  21
ATOM     21  C   UNL     1       2.240   7.611  19.352  0.00  0.00    +0.000 A 
ATOM     22  C   UNL     1       2.114   8.139  18.056  0.00  0.00    +0.000 A 
ATOM     23  C   UNL     1       1.373   9.298  17.828  0.00  0.00    +0.000 A 
ATOM     24  C   UNL     1       0.728   9.929  18.890  0.00  0.00    +0.000 A 
ATOM     25  C   UNL     1       0.782   9.373  20.167  0.00  0.00    +0.000 A 
ATOM     26  C   UNL     1       1.529   8.218  20.398  0.00  0.00    +0.000 A 
ENDBRANCH  20  21
ENDBRANCH  19  20
ENDBRANCH   3  14
TORSDOF 4
ENDMDL
MODEL 8
REMARK VINA RESULT:      -8.3      1.136      1.454
REMARK  Name = 
REMARK  4 active torsions:
REMARK  status: ('A' for Active; 'I' for Inactive)
REMARK    1  A    between atoms: C_2  and  C_17
REMARK    2  A    between atoms: N_3  and  C_4
REMARK    3  A    between atoms: C_9  and  C_10
REMARK    4  A    between atoms: C_10  and  C_11
REMARK                            x       y       z     vdW  Elec       q    Type
REMARK                         _______ _______ _______ _____ _____    ______ ____
ROOT
ATOM      1  O   UNL     1       1.919   6.049  17.628  0.00  0.00    +0.000 OA
ATOM      2  C   UNL     1       2.586   6.879  18.212  0.00  0.00    +0.000 C 
ATOM      3  N   UNL     1       3.975   6.990  18.115  0.00  0.00    +0.000 N 
ATOM      4  H   UNL     1       4.408   7.433  18.918  0.00  0.00    +0.000 HD
ENDROOT
BRANCH   2   5
ATOM      5  C   UNL     1       1.951   7.817  19.157  0.00  0.00    +0.000 A 
ATOM      6  C   UNL     1       1.526   9.088  18.806  0.00  0.00    +0.000 A 
ATOM      7  N   UNL     1       0.973   9.632  19.929  0.00  0.00    +0.000 N 
ATOM      8  C   UNL     1       0.349  10.866  20.099  0.00  0.00    +0.000 A 
ATOM      9  C   UNL     1      -0.092  11.214  21.320  0.00  0.00    +0.000 A 
ATOM     10  C   UNL     1       0.123  10.294  22.428  0.00  0.00    +0.000 A 
ATOM     11  C   UNL     1       0.708   9.090  22.247  0.00  0.00    +0.000 A 
ATOM     12  C   UNL     1       1.135   8.694  20.946  0.00  0.00    +0.000 A 
ATOM     13  N   UNL     1       1.674   7.575  20.492  0.00  0.00    +0.000 NA
ENDBRANCH   2   5
BRANCH   3  14
ATOM     14  C   UNL     1       4.738   6.062  17.350  0.00  0.00    +0.000 A 
ATOM     15  C   UNL     1       5.008   6.402  16.010  0.00  0.00    +0.000 A 
ATOM     16  C   UNL     1       5.772   5.571  15.185  0.00  0.00    +0.000 A 
ATOM     17  C   UNL     1       6.295   4.390  15.689  0.00  0.00    +0.000 A 
ATOM     18  C   UNL     1       6.023   4.029  17.005  0.00  0.00    +0.000 A 
ATOM     19  C   UNL     1       5.210   4.825  17.847  0.00  0.00    +0.000 A 
BRANCH  19  20
ATOM     20  C   UNL     1       4.880   4.189  19.188  0.00  0.00    +0.000 C 
BRANCH  20  21
ATOM     21  C   UNL     1       3.472   3.663  19.376  0.00  0.00    +0.000 A 
ATOM     22  C   UNL     1       2.905   2.783  18.438  0.00  0.00    +0.000 A 
ATOM     23  C   UNL     1       1.575   2.381  18.552  0.00  0.00    +0.000 A 
ATOM     24  C   UNL     1       0.803   2.834  19.619  0.00  0.00    +0.000 A 
ATOM     25  C   UNL     1       1.374   3.647  20.597  0.00  0.00    +0.000 A 
ATOM     26  C   UNL     1       2.702   4.056  20.480  0.00  0.00    +0.000 A 
ENDBRANCH  20  21
ENDBRANCH  19  20
ENDBRANCH   3  14
TORSDOF 4
ENDMDL
MODEL 9
REMARK VINA RESULT:      -8.2      1.229      1.736
REMARK  Name = 
REMARK  4 active torsions:
REMARK  status: ('A' for Active; 'I' for Inactive)
REMARK    1  A    between atoms: C_2  and  C_17
REMARK    2  A    between atoms: N_3  and  C_4
REMARK    3  A    between atoms: C_9  and  C_10
REMARK    4  A    between atoms: C_10  and  C_11
REMARK                            x       y       z     vdW  Elec       q    Type
REMARK                         _______ _______ _______ _____ _____    ______ ____
ROOT
ATOM      1  O   UNL     1       3.743   6.253  19.708  0.00  0.00    +0.000 OA
ATOM      2  C   UNL     1       3.151   6.849  18.829  0.00  0.00    +0.000 C 
ATOM      3  N   UNL     1       3.364   6.658  17.463  0.00  0.00    +0.000 N 
ATOM      4  H   UNL     1       3.112   7.460  16.894  0.00  0.00    +0.000 HD
ENDROOT
BRANCH   2   5
ATOM      5  C   UNL     1       2.182   7.908  19.168  0.00  0.00    +0.000 A 
ATOM      6  C   UNL     1       1.639   8.075  20.432  0.00  0.00    +0.000 A 
ATOM      7  N   UNL     1       0.817   9.162  20.357  0.00  0.00    +0.000 N 
ATOM      8  C   UNL     1       0.078   9.782  21.362  0.00  0.00    +0.000 A 
ATOM      9  C   UNL     1      -0.704  10.830  21.047  0.00  0.00    +0.000 A 
ATOM     10  C   UNL     1      -0.767  11.260  19.657  0.00  0.00    +0.000 A 
ATOM     11  C   UNL     1      -0.028  10.667  18.696  0.00  0.00    +0.000 A 
ATOM     12  C   UNL     1       0.840   9.586  19.031  0.00  0.00    +0.000 A 
ATOM     13  N   UNL     1       1.694   8.879  18.309  0.00  0.00    +0.000 NA
ENDBRANCH   2   5
BRANCH   3  14
ATOM     14  C   UNL     1       4.370   5.770  16.988  0.00  0.00    +0.000 A 
ATOM     15  C   UNL     1       5.578   6.345  16.547  0.00  0.00    +0.000 A 
ATOM     16  C   UNL     1       6.638   5.557  16.087  0.00  0.00    +0.000 A 
ATOM     17  C   UNL     1       6.516   4.176  16.075  0.00  0.00    +0.000 A 
ATOM     18  C   UNL     1       5.323   3.592  16.489  0.00  0.00    +0.000 A 
ATOM     19  C   UNL     1       4.216   4.367  16.910  0.00  0.00    +0.000 A 
BRANCH  19  20
ATOM     20  C   UNL     1       2.945   3.568  17.157  0.00  0.00    +0.000 C 
BRANCH  20  21
ATOM     21  C   UNL     1       2.517   3.382  18.598  0.00  0.00    +0.000 A 
ATOM     22  C   UNL     1       3.408   2.853  19.547  0.00  0.00    +0.000 A 
ATOM     23  C   UNL     1       2.983   2.582  20.848  0.00  0.00    +0.000 A 
ATOM     24  C   UNL     1       1.670   2.860  21.221  0.00  0.00    +0.000 A 
ATOM     25  C   UNL     1       0.798   3.454  20.311  0.00  0.00    +0.000 A 
ATOM     26  C   UNL     1       1.219   3.719  19.007  0.00  0.00    +0.000 A 
ENDBRANCH  20  21
ENDBRANCH  19  20
ENDBRANCH   3  14
TORSDOF 4
ENDMDL
