MODEL 1
REMARK VINA RESULT:     -10.0      0.000      0.000
REMARK  Name = 
REMARK  2 active torsions:
REMARK  status: ('A' for Active; 'I' for Inactive)
REMARK    1  A    between atoms: S_2  and  C_4
REMARK    2  A    between atoms: S_2  and  N_15
REMARK                            x       y       z     vdW  Elec       q    Type
REMARK                         _______ _______ _______ _____ _____    ______ ____
ROOT
ATOM      1  O   UNL     1       5.571   4.024  18.993  0.00  0.00    +0.000 OA
ATOM      2  S   UNL     1       5.241   5.231  18.261  0.00  0.00    +0.000 S 
ATOM      3  O   UNL     1       5.744   6.517  18.698  0.00  0.00    +0.000 OA
ENDROOT
BRANCH   2   4
ATOM      4  N   UNL     1       3.536   5.315  18.161  0.00  0.00    +0.000 N 
ATOM      5  C   UNL     1       2.910   6.637  18.000  0.00  0.00    +0.000 C 
ATOM      6  C   UNL     1       2.401   7.180  19.347  0.00  0.00    +0.000 C 
ATOM      7  C   UNL     1       2.516   6.234  20.563  0.00  0.00    +0.000 C 
ATOM      8  C   UNL     1       2.238   4.818  20.147  0.00  0.00    +0.000 A 
ATOM      9  C   UNL     1       1.371   4.012  20.897  0.00  0.00    +0.000 A 
ATOM     10  C   UNL     1       0.765   2.914  20.294  0.00  0.00    +0.000 A 
ATOM     11  C   UNL     1       1.056   2.619  18.964  0.00  0.00    +0.000 A 
ATOM     12  F   UNL     1       0.319   1.689  18.339  0.00  0.00    +0.000 F 
ATOM     13  C   UNL     1       2.037   3.330  18.269  0.00  0.00    +0.000 A 
ATOM     14  F   UNL     1       2.222   3.079  16.963  0.00  0.00    +0.000 F 
ATOM     15  C   UNL     1       2.691   4.401  18.883  0.00  0.00    +0.000 A 
ENDBRANCH   2   4
BRANCH   2  16
ATOM     16  C   UNL     1       5.888   4.964  16.627  0.00  0.00    +0.000 A 
ATOM     17  C   UNL     1       6.987   5.688  16.205  0.00  0.00    +0.000 A 
ATOM     18  N   UNL     1       7.591   5.522  14.998  0.00  0.00    +0.000 NA
ATOM     19  C   UNL     1       6.993   4.731  14.095  0.00  0.00    +0.000 A 
ATOM     20  C   UNL     1       7.574   4.563  12.842  0.00  0.00    +0.000 A 
ATOM     21  C   UNL     1       6.916   3.891  11.812  0.00  0.00    +0.000 A 
ATOM     22  C   UNL     1       5.663   3.344  12.060  0.00  0.00    +0.000 A 
ATOM     23  F   UNL     1       4.987   2.772  11.057  0.00  0.00    +0.000 F 
ATOM     24  C   UNL     1       5.095   3.402  13.330  0.00  0.00    +0.000 A 
ATOM     25  C   UNL     1       5.767   4.079  14.371  0.00  0.00    +0.000 A 
ATOM     26  C   UNL     1       5.243   4.165  15.680  0.00  0.00    +0.000 A 
ENDBRANCH   2  16
TORSDOF 2
ENDMDL
MODEL 2
REMARK VINA RESULT:      -8.9      1.811      2.169
REMARK  Name = 
REMARK  2 active torsions:
REMARK  status: ('A' for Active; 'I' for Inactive)
REMARK    1  A    between atoms: S_2  and  C_4
REMARK    2  A    between atoms: S_2  and  N_15
REMARK                            x       y       z     vdW  Elec       q    Type
REMARK                         _______ _______ _______ _____ _____    ______ ____
ROOT
ATOM      1  O   UNL     1       6.434   4.508  19.348  0.00  0.00    +0.000 OA
ATOM      2  S   UNL     1       5.320   4.799  18.468  0.00  0.00    +0.000 S 
ATOM      3  O   UNL     1       4.592   6.045  18.591  0.00  0.00    +0.000 OA
ENDROOT
BRANCH   2   4
ATOM      4  N   UNL     1       4.213   3.503  18.602  0.00  0.00    +0.000 N 
ATOM      5  C   UNL     1       3.777   2.827  17.370  0.00  0.00    +0.000 C 
ATOM      6  C   UNL     1       2.406   3.349  16.905  0.00  0.00    +0.000 C 
ATOM      7  C   UNL     1       1.696   4.357  17.835  0.00  0.00    +0.000 C 
ATOM      8  C   UNL     1       1.936   3.994  19.273  0.00  0.00    +0.000 A 
ATOM      9  C   UNL     1       0.874   3.965  20.187  0.00  0.00    +0.000 A 
ATOM     10  C   UNL     1       0.994   3.210  21.350  0.00  0.00    +0.000 A 
ATOM     11  C   UNL     1       2.180   2.523  21.598  0.00  0.00    +0.000 A 
ATOM     12  F   UNL     1       2.211   1.644  22.610  0.00  0.00    +0.000 F 
ATOM     13  C   UNL     1       3.289   2.680  20.763  0.00  0.00    +0.000 A 
ATOM     14  F   UNL     1       4.381   1.929  20.980  0.00  0.00    +0.000 F 
ATOM     15  C   UNL     1       3.197   3.480  19.621  0.00  0.00    +0.000 A 
ENDBRANCH   2   4
BRANCH   2  16
ATOM     16  C   UNL     1       6.014   4.779  16.832  0.00  0.00    +0.000 A 
ATOM     17  C   UNL     1       6.978   5.709  16.492  0.00  0.00    +0.000 A 
ATOM     18  N   UNL     1       7.610   5.746  15.288  0.00  0.00    +0.000 NA
ATOM     19  C   UNL     1       7.160   4.942  14.312  0.00  0.00    +0.000 A 
ATOM     20  C   UNL     1       7.769   4.978  13.062  0.00  0.00    +0.000 A 
ATOM     21  C   UNL     1       7.241   4.292  11.969  0.00  0.00    +0.000 A 
ATOM     22  C   UNL     1       6.097   3.524  12.147  0.00  0.00    +0.000 A 
ATOM     23  F   UNL     1       5.534   2.931  11.088  0.00  0.00    +0.000 F 
ATOM     24  C   UNL     1       5.519   3.382  13.405  0.00  0.00    +0.000 A 
ATOM     25  C   UNL     1       6.060   4.074  14.510  0.00  0.00    +0.000 A 
ATOM     26  C   UNL     1       5.520   3.964  15.811  0.00  0.00    +0.000 A 
ENDBRANCH   2  16
TORSDOF 2
ENDMDL
MODEL 3
REMARK VINA RESULT:      -8.4      3.790      6.207
REMARK  Name = 
REMARK  2 active torsions:
REMARK  status: ('A' for Active; 'I' for Inactive)
REMARK    1  A    between atoms: S_2  and  C_4
REMARK    2  A    between atoms: S_2  and  N_15
REMARK                            x       y       z     vdW  Elec       q    Type
REMARK                         _______ _______ _______ _____ _____    ______ ____
ROOT
ATOM      1  O   UNL     1       5.533   5.440  17.119  0.00  0.00    +0.000 OA
ATOM      2  S   UNL     1       4.934   5.344  18.436  0.00  0.00    +0.000 S 
ATOM      3  O   UNL     1       5.741   5.525  19.625  0.00  0.00    +0.000 OA
ENDROOT
BRANCH   2   4
ATOM      4  N   UNL     1       4.151   3.827  18.530  0.00  0.00    +0.000 N 
ATOM      5  C   UNL     1       3.932   3.076  17.283  0.00  0.00    +0.000 C 
ATOM      6  C   UNL     1       2.498   3.271  16.761  0.00  0.00    +0.000 C 
ATOM      7  C   UNL     1       1.538   4.083  17.659  0.00  0.00    +0.000 C 
ATOM      8  C   UNL     1       1.797   3.777  19.106  0.00  0.00    +0.000 A 
ATOM      9  C   UNL     1       0.735   3.498  19.976  0.00  0.00    +0.000 A 
ATOM     10  C   UNL     1       0.979   2.785  21.146  0.00  0.00    +0.000 A 
ATOM     11  C   UNL     1       2.280   2.387  21.444  0.00  0.00    +0.000 A 
ATOM     12  F   UNL     1       2.472   1.533  22.460  0.00  0.00    +0.000 F 
ATOM     13  C   UNL     1       3.356   2.800  20.654  0.00  0.00    +0.000 A 
ATOM     14  F   UNL     1       4.582   2.320  20.918  0.00  0.00    +0.000 F 
ATOM     15  C   UNL     1       3.128   3.565  19.507  0.00  0.00    +0.000 A 
ENDBRANCH   2   4
BRANCH   2  16
ATOM     16  C   UNL     1       3.696   6.619  18.467  0.00  0.00    +0.000 A 
ATOM     17  C   UNL     1       3.609   7.507  17.412  0.00  0.00    +0.000 A 
ATOM     18  N   UNL     1       2.666   8.482  17.313  0.00  0.00    +0.000 NA
ATOM     19  C   UNL     1       1.876   8.709  18.373  0.00  0.00    +0.000 A 
ATOM     20  C   UNL     1       0.920   9.718  18.310  0.00  0.00    +0.000 A 
ATOM     21  C   UNL     1       0.189  10.107  19.432  0.00  0.00    +0.000 A 
ATOM     22  C   UNL     1       0.398   9.441  20.634  0.00  0.00    +0.000 A 
ATOM     23  F   UNL     1      -0.235   9.861  21.735  0.00  0.00    +0.000 F 
ATOM     24  C   UNL     1       1.270   8.358  20.710  0.00  0.00    +0.000 A 
ATOM     25  C   UNL     1       2.004   7.965  19.570  0.00  0.00    +0.000 A 
ATOM     26  C   UNL     1       2.898   6.871  19.586  0.00  0.00    +0.000 A 
ENDBRANCH   2  16
TORSDOF 2
ENDMDL
MODEL 4
REMARK VINA RESULT:      -8.2      4.915      7.500
REMARK  Name = 
REMARK  2 active torsions:
REMARK  status: ('A' for Active; 'I' for Inactive)
REMARK    1  A    between atoms: S_2  and  C_4
REMARK    2  A    between atoms: S_2  and  N_15
REMARK                            x       y       z     vdW  Elec       q    Type
REMARK                         _______ _______ _______ _____ _____    ______ ____
ROOT
ATOM      1  O   UNL     1      -0.557   8.701  21.699  0.00  0.00    +0.000 OA
ATOM      2  S   UNL     1       0.780   9.133  21.337  0.00  0.00    +0.000 S 
ATOM      3  O   UNL     1       1.719   9.547  22.358  0.00  0.00    +0.000 OA
ENDROOT
BRANCH   2   4
ATOM      4  N   UNL     1       0.614  10.399  20.199  0.00  0.00    +0.000 N 
ATOM      5  C   UNL     1       1.380  11.637  20.415  0.00  0.00    +0.000 C 
ATOM      6  C   UNL     1       0.507  12.724  21.067  0.00  0.00    +0.000 C 
ATOM      7  C   UNL     1      -0.988  12.389  21.259  0.00  0.00    +0.000 C 
ATOM      8  C   UNL     1      -1.495  11.588  20.094  0.00  0.00    +0.000 A 
ATOM      9  C   UNL     1      -2.704  11.925  19.470  0.00  0.00    +0.000 A 
ATOM     10  C   UNL     1      -2.938  11.510  18.163  0.00  0.00    +0.000 A 
ATOM     11  C   UNL     1      -1.977  10.741  17.510  0.00  0.00    +0.000 A 
ATOM     12  F   UNL     1      -2.120  10.520  16.195  0.00  0.00    +0.000 F 
ATOM     13  C   UNL     1      -0.846  10.278  18.186  0.00  0.00    +0.000 A 
ATOM     14  F   UNL     1       0.102   9.620  17.499  0.00  0.00    +0.000 F 
ATOM     15  C   UNL     1      -0.629  10.643  19.517  0.00  0.00    +0.000 A 
ENDBRANCH   2   4
BRANCH   2  16
ATOM     16  C   UNL     1       1.506   7.732  20.520  0.00  0.00    +0.000 A 
ATOM     17  C   UNL     1       2.187   7.916  19.332  0.00  0.00    +0.000 A 
ATOM     18  N   UNL     1       2.823   6.922  18.656  0.00  0.00    +0.000 NA
ATOM     19  C   UNL     1       2.644   5.659  19.072  0.00  0.00    +0.000 A 
ATOM     20  C   UNL     1       3.260   4.619  18.384  0.00  0.00    +0.000 A 
ATOM     21  C   UNL     1       2.977   3.283  18.667  0.00  0.00    +0.000 A 
ATOM     22  C   UNL     1       2.083   2.987  19.689  0.00  0.00    +0.000 A 
ATOM     23  F   UNL     1       1.740   1.714  19.911  0.00  0.00    +0.000 F 
ATOM     24  C   UNL     1       1.526   3.998  20.467  0.00  0.00    +0.000 A 
ATOM     25  C   UNL     1       1.819   5.349  20.180  0.00  0.00    +0.000 A 
ATOM     26  C   UNL     1       1.288   6.416  20.938  0.00  0.00    +0.000 A 
ENDBRANCH   2  16
TORSDOF 2
ENDMDL
MODEL 5
REMARK VINA RESULT:      -8.1      5.629      7.806
REMARK  Name = 
REMARK  2 active torsions:
REMARK  status: ('A' for Active; 'I' for Inactive)
REMARK    1  A    between atoms: S_2  and  C_4
REMARK    2  A    between atoms: S_2  and  N_15
REMARK                            x       y       z     vdW  Elec       q    Type
REMARK                         _______ _______ _______ _____ _____    ______ ____
ROOT
ATOM      1  O   UNL     1      -0.763  10.204  21.520  0.00  0.00    +0.000 OA
ATOM      2  S   UNL     1       0.368  10.587  20.698  0.00  0.00    +0.000 S 
ATOM      3  O   UNL     1       1.425  11.414  21.241  0.00  0.00    +0.000 OA
ENDROOT
BRANCH   2   4
ATOM      4  N   UNL     1      -0.256  11.343  19.297  0.00  0.00    +0.000 N 
ATOM      5  C   UNL     1       0.182  12.715  18.991  0.00  0.00    +0.000 C 
ATOM      6  C   UNL     1      -0.859  13.748  19.457  0.00  0.00    +0.000 C 
ATOM      7  C   UNL     1      -2.181  13.190  20.027  0.00  0.00    +0.000 C 
ATOM      8  C   UNL     1      -2.599  11.965  19.267  0.00  0.00    +0.000 A 
ATOM      9  C   UNL     1      -3.919  11.817  18.821  0.00  0.00    +0.000 A 
ATOM     10  C   UNL     1      -4.192  10.956  17.762  0.00  0.00    +0.000 A 
ATOM     11  C   UNL     1      -3.150  10.234  17.186  0.00  0.00    +0.000 A 
ATOM     12  F   UNL     1      -3.387   9.568  16.045  0.00  0.00    +0.000 F 
ATOM     13  C   UNL     1      -1.865  10.266  17.732  0.00  0.00    +0.000 A 
ATOM     14  F   UNL     1      -0.868   9.632  17.093  0.00  0.00    +0.000 F 
ATOM     15  C   UNL     1      -1.593  11.085  18.831  0.00  0.00    +0.000 A 
ENDBRANCH   2   4
BRANCH   2  16
ATOM     16  C   UNL     1       1.124   9.051  20.219  0.00  0.00    +0.000 A 
ATOM     17  C   UNL     1       1.188   8.013  21.128  0.00  0.00    +0.000 A 
ATOM     18  N   UNL     1       1.696   6.783  20.846  0.00  0.00    +0.000 NA
ATOM     19  C   UNL     1       2.323   6.611  19.672  0.00  0.00    +0.000 A 
ATOM     20  C   UNL     1       2.875   5.371  19.367  0.00  0.00    +0.000 A 
ATOM     21  C   UNL     1       3.679   5.183  18.243  0.00  0.00    +0.000 A 
ATOM     22  C   UNL     1       3.899   6.255  17.388  0.00  0.00    +0.000 A 
ATOM     23  F   UNL     1       4.736   6.108  16.354  0.00  0.00    +0.000 F 
ATOM     24  C   UNL     1       3.279   7.482  17.604  0.00  0.00    +0.000 A 
ATOM     25  C   UNL     1       2.463   7.668  18.741  0.00  0.00    +0.000 A 
ATOM     26  C   UNL     1       1.804   8.888  19.009  0.00  0.00    +0.000 A 
ENDBRANCH   2  16
TORSDOF 2
ENDMDL
MODEL 6
REMARK VINA RESULT:      -8.1      5.310      7.759
REMARK  Name = 
REMARK  2 active torsions:
REMARK  status: ('A' for Active; 'I' for Inactive)
REMARK    1  A    between atoms: S_2  and  C_4
REMARK    2  A    between atoms: S_2  and  N_15
REMARK                            x       y       z     vdW  Elec       q    Type
REMARK                         _______ _______ _______ _____ _____    ______ ____
ROOT
ATOM      1  O   UNL     1      -0.691   9.379  21.292  0.00  0.00    +0.000 OA
ATOM      2  S   UNL     1       0.497   9.920  20.659  0.00  0.00    +0.000 S 
ATOM      3  O   UNL     1       1.439  10.712  21.421  0.00  0.00    +0.000 OA
ENDROOT
BRANCH   2   4
ATOM      4  N   UNL     1      -0.018  10.831  19.307  0.00  0.00    +0.000 N 
ATOM      5  C   UNL     1       0.622  12.133  19.058  0.00  0.00    +0.000 C 
ATOM      6  C   UNL     1      -0.244  13.289  19.591  0.00  0.00    +0.000 C 
ATOM      7  C   UNL     1      -1.630  12.912  20.157  0.00  0.00    +0.000 C 
ATOM      8  C   UNL     1      -2.238  11.803  19.348  0.00  0.00    +0.000 A 
ATOM      9  C   UNL     1      -3.570  11.881  18.919  0.00  0.00    +0.000 A 
ATOM     10  C   UNL     1      -3.982  11.125  17.826  0.00  0.00    +0.000 A 
ATOM     11  C   UNL     1      -3.069  10.282  17.197  0.00  0.00    +0.000 A 
ATOM     12  F   UNL     1      -3.417   9.717  16.031  0.00  0.00    +0.000 F 
ATOM     13  C   UNL     1      -1.789  10.090  17.722  0.00  0.00    +0.000 A 
ATOM     14  F   UNL     1      -0.907   9.344  17.036  0.00  0.00    +0.000 F 
ATOM     15  C   UNL     1      -1.383  10.803  18.853  0.00  0.00    +0.000 A 
ENDBRANCH   2   4
BRANCH   2  16
ATOM     16  C   UNL     1       1.389   8.498  20.074  0.00  0.00    +0.000 A 
ATOM     17  C   UNL     1       1.910   8.503  18.794  0.00  0.00    +0.000 A 
ATOM     18  N   UNL     1       2.652   7.491  18.270  0.00  0.00    +0.000 NA
ATOM     19  C   UNL     1       2.748   6.349  18.968  0.00  0.00    +0.000 A 
ATOM     20  C   UNL     1       3.479   5.287  18.445  0.00  0.00    +0.000 A 
ATOM     21  C   UNL     1       3.474   4.028  19.044  0.00  0.00    +0.000 A 
ATOM     22  C   UNL     1       2.749   3.844  20.215  0.00  0.00    +0.000 A 
ATOM     23  F   UNL     1       2.669   2.621  20.750  0.00  0.00    +0.000 F 
ATOM     24  C   UNL     1       2.091   4.908  20.824  0.00  0.00    +0.000 A 
ATOM     25  C   UNL     1       2.102   6.183  20.217  0.00  0.00    +0.000 A 
ATOM     26  C   UNL     1       1.457   7.301  20.791  0.00  0.00    +0.000 A 
ENDBRANCH   2  16
TORSDOF 2
ENDMDL
MODEL 7
REMARK VINA RESULT:      -8.0      5.033      7.169
REMARK  Name = 
REMARK  2 active torsions:
REMARK  status: ('A' for Active; 'I' for Inactive)
REMARK    1  A    between atoms: S_2  and  C_4
REMARK    2  A    between atoms: S_2  and  N_15
REMARK                            x       y       z     vdW  Elec       q    Type
REMARK                         _______ _______ _______ _____ _____    ______ ____
ROOT
ATOM      1  O   UNL     1      -0.655   8.583  21.581  0.00  0.00    +0.000 OA
ATOM      2  S   UNL     1       0.675   9.064  21.262  0.00  0.00    +0.000 S 
ATOM      3  O   UNL     1       1.581   9.474  22.315  0.00  0.00    +0.000 OA
ENDROOT
BRANCH   2   4
ATOM      4  N   UNL     1       0.497  10.358  20.159  0.00  0.00    +0.000 N 
ATOM      5  C   UNL     1       1.259  11.594  20.403  0.00  0.00    +0.000 C 
ATOM      6  C   UNL     1       0.385  12.660  21.088  0.00  0.00    +0.000 C 
ATOM      7  C   UNL     1      -1.108  12.312  21.281  0.00  0.00    +0.000 C 
ATOM      8  C   UNL     1      -1.619  11.540  20.099  0.00  0.00    +0.000 A 
ATOM      9  C   UNL     1      -2.832  11.888  19.491  0.00  0.00    +0.000 A 
ATOM     10  C   UNL     1      -3.072  11.506  18.174  0.00  0.00    +0.000 A 
ATOM     11  C   UNL     1      -2.112  10.759  17.495  0.00  0.00    +0.000 A 
ATOM     12  F   UNL     1      -2.263  10.572  16.176  0.00  0.00    +0.000 F 
ATOM     13  C   UNL     1      -0.975  10.284  18.152  0.00  0.00    +0.000 A 
ATOM     14  F   UNL     1      -0.029   9.649  17.442  0.00  0.00    +0.000 F 
ATOM     15  C   UNL     1      -0.752  10.615  19.491  0.00  0.00    +0.000 A 
ENDBRANCH   2   4
BRANCH   2  16
ATOM     16  C   UNL     1       1.460   7.710  20.420  0.00  0.00    +0.000 A 
ATOM     17  C   UNL     1       1.479   6.462  21.011  0.00  0.00    +0.000 A 
ATOM     18  N   UNL     1       2.004   5.350  20.429  0.00  0.00    +0.000 NA
ATOM     19  C   UNL     1       2.692   5.500  19.287  0.00  0.00    +0.000 A 
ATOM     20  C   UNL     1       3.264   4.384  18.682  0.00  0.00    +0.000 A 
ATOM     21  C   UNL     1       4.125   4.501  17.592  0.00  0.00    +0.000 A 
ATOM     22  C   UNL     1       4.387   5.765  17.076  0.00  0.00    +0.000 A 
ATOM     23  F   UNL     1       5.277   5.896  16.086  0.00  0.00    +0.000 F 
ATOM     24  C   UNL     1       3.753   6.893  17.588  0.00  0.00    +0.000 A 
ATOM     25  C   UNL     1       2.878   6.769  18.689  0.00  0.00    +0.000 A 
ATOM     26  C   UNL     1       2.202   7.877  19.248  0.00  0.00    +0.000 A 
ENDBRANCH   2  16
TORSDOF 2
ENDMDL
MODEL 8
REMARK VINA RESULT:      -8.0      4.055      7.542
REMARK  Name = 
REMARK  2 active torsions:
REMARK  status: ('A' for Active; 'I' for Inactive)
REMARK    1  A    between atoms: S_2  and  C_4
REMARK    2  A    between atoms: S_2  and  N_15
REMARK                            x       y       z     vdW  Elec       q    Type
REMARK                         _______ _______ _______ _____ _____    ______ ____
ROOT
ATOM      1  O   UNL     1       2.076   6.104  17.183  0.00  0.00    +0.000 OA
ATOM      2  S   UNL     1       3.037   6.781  18.032  0.00  0.00    +0.000 S 
ATOM      3  O   UNL     1       4.177   7.462  17.454  0.00  0.00    +0.000 OA
ENDROOT
BRANCH   2   4
ATOM      4  N   UNL     1       3.602   5.640  19.173  0.00  0.00    +0.000 N 
ATOM      5  C   UNL     1       5.055   5.504  19.364  0.00  0.00    +0.000 C 
ATOM      6  C   UNL     1       5.610   4.306  18.573  0.00  0.00    +0.000 C 
ATOM      7  C   UNL     1       4.576   3.416  17.846  0.00  0.00    +0.000 C 
ATOM      8  C   UNL     1       3.332   3.282  18.676  0.00  0.00    +0.000 A 
ATOM      9  C   UNL     1       2.745   2.027  18.882  0.00  0.00    +0.000 A 
ATOM     10  C   UNL     1       1.911   1.834  19.979  0.00  0.00    +0.000 A 
ATOM     11  C   UNL     1       1.652   2.901  20.835  0.00  0.00    +0.000 A 
ATOM     12  F   UNL     1       1.018   2.656  21.991  0.00  0.00    +0.000 F 
ATOM     13  C   UNL     1       2.113   4.186  20.541  0.00  0.00    +0.000 A 
ATOM     14  F   UNL     1       1.925   5.169  21.437  0.00  0.00    +0.000 F 
ATOM     15  C   UNL     1       2.906   4.403  19.411  0.00  0.00    +0.000 A 
ENDBRANCH   2   4
BRANCH   2  16
ATOM     16  C   UNL     1       2.093   8.017  18.892  0.00  0.00    +0.000 A 
ATOM     17  C   UNL     1       1.929   9.265  18.323  0.00  0.00    +0.000 A 
ATOM     18  N   UNL     1       1.182  10.261  18.872  0.00  0.00    +0.000 NA
ATOM     19  C   UNL     1       0.712  10.087  20.116  0.00  0.00    +0.000 A 
ATOM     20  C   UNL     1      -0.032  11.100  20.713  0.00  0.00    +0.000 A 
ATOM     21  C   UNL     1      -0.402  11.043  22.057  0.00  0.00    +0.000 A 
ATOM     22  C   UNL     1      -0.048   9.927  22.804  0.00  0.00    +0.000 A 
ATOM     23  F   UNL     1      -0.323   9.901  24.113  0.00  0.00    +0.000 F 
ATOM     24  C   UNL     1       0.606   8.849  22.215  0.00  0.00    +0.000 A 
ATOM     25  C   UNL     1       0.974   8.908  20.854  0.00  0.00    +0.000 A 
ATOM     26  C   UNL     1       1.633   7.843  20.201  0.00  0.00    +0.000 A 
ENDBRANCH   2  16
TORSDOF 2
ENDMDL
MODEL 9
REMARK VINA RESULT:      -7.9      3.973      7.745
REMARK  Name = 
REMARK  2 active torsions:
REMARK  status: ('A' for Active; 'I' for Inactive)
REMARK    1  A    between atoms: S_2  and  C_4
REMARK    2  A    between atoms: S_2  and  N_15
REMARK                            x       y       z     vdW  Elec       q    Type
REMARK                         _______ _______ _______ _____ _____    ______ ____
ROOT
ATOM      1  O   UNL     1       1.610   6.544  17.442  0.00  0.00    +0.000 OA
ATOM      2  S   UNL     1       2.671   7.066  18.282  0.00  0.00    +0.000 S 
ATOM      3  O   UNL     1       3.748   7.844  17.707  0.00  0.00    +0.000 OA
ENDROOT
BRANCH   2   4
ATOM      4  N   UNL     1       3.343   5.744  19.133  0.00  0.00    +0.000 N 
ATOM      5  C   UNL     1       4.803   5.564  19.104  0.00  0.00    +0.000 C 
ATOM      6  C   UNL     1       5.213   4.511  18.059  0.00  0.00    +0.000 C 
ATOM      7  C   UNL     1       4.068   3.766  17.340  0.00  0.00    +0.000 C 
ATOM      8  C   UNL     1       2.938   3.506  18.294  0.00  0.00    +0.000 A 
ATOM      9  C   UNL     1       2.343   2.239  18.366  0.00  0.00    +0.000 A 
ATOM     10  C   UNL     1       1.653   1.872  19.517  0.00  0.00    +0.000 A 
ATOM     11  C   UNL     1       1.541   2.783  20.565  0.00  0.00    +0.000 A 
ATOM     12  F   UNL     1       1.054   2.352  21.738  0.00  0.00    +0.000 F 
ATOM     13  C   UNL     1       2.000   4.095  20.428  0.00  0.00    +0.000 A 
ATOM     14  F   UNL     1       1.959   4.915  21.491  0.00  0.00    +0.000 F 
ATOM     15  C   UNL     1       2.645   4.491  19.254  0.00  0.00    +0.000 A 
ENDBRANCH   2   4
BRANCH   2  16
ATOM     16  C   UNL     1       1.848   8.126  19.447  0.00  0.00    +0.000 A 
ATOM     17  C   UNL     1       1.751   7.737  20.769  0.00  0.00    +0.000 A 
ATOM     18  N   UNL     1       1.191   8.497  21.749  0.00  0.00    +0.000 NA
ATOM     19  C   UNL     1       0.546   9.616  21.389  0.00  0.00    +0.000 A 
ATOM     20  C   UNL     1      -0.060  10.400  22.367  0.00  0.00    +0.000 A 
ATOM     21  C   UNL     1      -0.882  11.477  22.038  0.00  0.00    +0.000 A 
ATOM     22  C   UNL     1      -1.068  11.796  20.699  0.00  0.00    +0.000 A 
ATOM     23  F   UNL     1      -1.920  12.773  20.369  0.00  0.00    +0.000 F 
ATOM     24  C   UNL     1      -0.396  11.100  19.697  0.00  0.00    +0.000 A 
ATOM     25  C   UNL     1       0.439  10.013  20.035  0.00  0.00    +0.000 A 
ATOM     26  C   UNL     1       1.150   9.274  19.063  0.00  0.00    +0.000 A 
ENDBRANCH   2  16
TORSDOF 2
ENDMDL
