MODEL 1
REMARK VINA RESULT:      -8.5      0.000      0.000
REMARK  Name = 
REMARK  4 active torsions:
REMARK  status: ('A' for Active; 'I' for Inactive)
REMARK    1  A    between atoms: C_2  and  C_15
REMARK    2  A    between atoms: N_3  and  C_4
REMARK    3  A    between atoms: C_19  and  N_20
REMARK    4  A    between atoms: C_24  and  C_25
REMARK                            x       y       z     vdW  Elec       q    Type
REMARK                         _______ _______ _______ _____ _____    ______ ____
ROOT
ATOM      1  O   UNL     1       2.602   9.296  17.091  0.00  0.00    +0.000 OA
ATOM      2  C   UNL     1       2.146   8.747  18.090  0.00  0.00    +0.000 C 
ATOM      3  N   UNL     1       1.164   9.291  18.887  0.00  0.00    +0.000 N 
ATOM      4  H   UNL     1       0.861   8.779  19.702  0.00  0.00    +0.000 HD
ENDROOT
BRANCH   3   5
ATOM      5  C   UNL     1       0.449  10.512  18.535  0.00  0.00    +0.000 C 
ATOM      6  C   UNL     1       1.101  11.721  19.213  0.00  0.00    +0.000 C 
ATOM      7  C   UNL     1       0.911  11.708  20.734  0.00  0.00    +0.000 C 
ATOM      8  C   UNL     1      -0.574  11.611  21.164  0.00  0.00    +0.000 C 
ATOM      9  C   UNL     1      -0.648  11.391  22.695  0.00  0.00    +0.000 C 
ATOM     10  C   UNL     1      -2.069  11.546  23.231  0.00  0.00    +0.000 C 
ATOM     11  O   UNL     1      -2.601  12.825  22.892  0.00  0.00    +0.000 OA
ATOM     12  C   UNL     1      -2.676  13.029  21.484  0.00  0.00    +0.000 C 
ATOM     13  C   UNL     1      -1.292  12.948  20.851  0.00  0.00    +0.000 C 
ATOM     14  C   UNL     1      -1.236  10.408  20.439  0.00  0.00    +0.000 C 
ATOM     15  C   UNL     1      -1.032  10.409  18.922  0.00  0.00    +0.000 C 
ENDBRANCH   3   5
BRANCH   2  16
ATOM     16  C   UNL     1       2.678   7.429  18.528  0.00  0.00    +0.000 A 
ATOM     17  C   UNL     1       2.141   6.843  19.677  0.00  0.00    +0.000 A 
ATOM     18  C   UNL     1       2.619   5.608  20.125  0.00  0.00    +0.000 A 
ATOM     19  C   UNL     1       3.633   4.951  19.420  0.00  0.00    +0.000 A 
ATOM     20  C   UNL     1       4.163   5.519  18.256  0.00  0.00    +0.000 A 
ATOM     21  C   UNL     1       3.705   6.778  17.829  0.00  0.00    +0.000 A 
BRANCH  20  22
ATOM     22  N   UNL     1       5.201   4.879  17.519  0.00  0.00    +0.000 N 
ATOM     23  N   UNL     1       4.848   3.976  16.559  0.00  0.00    +0.000 NA
ATOM     24  C   UNL     1       5.958   3.774  15.853  0.00  0.00    +0.000 A 
ATOM     25  C   UNL     1       7.065   4.403  16.430  0.00  0.00    +0.000 A 
ATOM     26  C   UNL     1       6.573   5.024  17.563  0.00  0.00    +0.000 A 
BRANCH  26  27
ATOM     27  C   UNL     1       7.325   5.645  18.665  0.00  0.00    +0.000 C 
ATOM     28  F   UNL     1       8.524   5.076  18.925  0.00  0.00    +0.000 F 
ATOM     29  F   UNL     1       7.587   6.951  18.391  0.00  0.00    +0.000 F 
ATOM     30  F   UNL     1       6.612   5.628  19.819  0.00  0.00    +0.000 F 
ENDBRANCH  26  27
ENDBRANCH  20  22
ENDBRANCH   2  16
TORSDOF 4
ENDMDL
MODEL 2
REMARK VINA RESULT:      -8.2      3.366      4.366
REMARK  Name = 
REMARK  4 active torsions:
REMARK  status: ('A' for Active; 'I' for Inactive)
REMARK    1  A    between atoms: C_2  and  C_15
REMARK    2  A    between atoms: N_3  and  C_4
REMARK    3  A    between atoms: C_19  and  N_20
REMARK    4  A    between atoms: C_24  and  C_25
REMARK                            x       y       z     vdW  Elec       q    Type
REMARK                         _______ _______ _______ _____ _____    ______ ____
ROOT
ATOM      1  O   UNL     1       1.037   8.169  21.507  0.00  0.00    +0.000 OA
ATOM      2  C   UNL     1       1.189   8.483  20.331  0.00  0.00    +0.000 C 
ATOM      3  N   UNL     1       0.572   9.560  19.736  0.00  0.00    +0.000 N 
ATOM      4  H   UNL     1       0.739   9.736  18.756  0.00  0.00    +0.000 HD
ENDROOT
BRANCH   3   5
ATOM      5  C   UNL     1      -0.209  10.536  20.487  0.00  0.00    +0.000 C 
ATOM      6  C   UNL     1      -1.165  11.282  19.551  0.00  0.00    +0.000 C 
ATOM      7  C   UNL     1      -0.425  12.201  18.574  0.00  0.00    +0.000 C 
ATOM      8  C   UNL     1       0.508  13.218  19.279  0.00  0.00    +0.000 C 
ATOM      9  C   UNL     1       1.363  13.949  18.213  0.00  0.00    +0.000 C 
ATOM     10  C   UNL     1       2.113  15.142  18.798  0.00  0.00    +0.000 C 
ATOM     11  O   UNL     1       1.209  16.057  19.415  0.00  0.00    +0.000 OA
ATOM     12  C   UNL     1       0.486  15.467  20.492  0.00  0.00    +0.000 C 
ATOM     13  C   UNL     1      -0.347  14.288  20.003  0.00  0.00    +0.000 C 
ATOM     14  C   UNL     1       1.444  12.457  20.255  0.00  0.00    +0.000 C 
ATOM     15  C   UNL     1       0.709  11.523  21.220  0.00  0.00    +0.000 C 
ENDBRANCH   3   5
BRANCH   2  16
ATOM     16  C   UNL     1       2.057   7.664  19.443  0.00  0.00    +0.000 A 
ATOM     17  C   UNL     1       2.612   8.268  18.312  0.00  0.00    +0.000 A 
ATOM     18  C   UNL     1       3.427   7.529  17.450  0.00  0.00    +0.000 A 
ATOM     19  C   UNL     1       3.695   6.183  17.720  0.00  0.00    +0.000 A 
ATOM     20  C   UNL     1       3.162   5.574  18.860  0.00  0.00    +0.000 A 
ATOM     21  C   UNL     1       2.313   6.310  19.707  0.00  0.00    +0.000 A 
BRANCH  20  22
ATOM     22  N   UNL     1       3.410   4.203  19.160  0.00  0.00    +0.000 N 
ATOM     23  N   UNL     1       4.704   3.802  19.321  0.00  0.00    +0.000 NA
ATOM     24  C   UNL     1       4.622   2.593  19.873  0.00  0.00    +0.000 A 
ATOM     25  C   UNL     1       3.304   2.132  19.927  0.00  0.00    +0.000 A 
ATOM     26  C   UNL     1       2.548   3.144  19.364  0.00  0.00    +0.000 A 
BRANCH  26  27
ATOM     27  C   UNL     1       1.133   3.113  18.964  0.00  0.00    +0.000 C 
ATOM     28  F   UNL     1       0.850   3.787  17.826  0.00  0.00    +0.000 F 
ATOM     29  F   UNL     1       0.722   1.835  18.749  0.00  0.00    +0.000 F 
ATOM     30  F   UNL     1       0.334   3.617  19.938  0.00  0.00    +0.000 F 
ENDBRANCH  26  27
ENDBRANCH  20  22
ENDBRANCH   2  16
TORSDOF 4
ENDMDL
MODEL 3
REMARK VINA RESULT:      -8.1      1.614      1.988
REMARK  Name = 
REMARK  4 active torsions:
REMARK  status: ('A' for Active; 'I' for Inactive)
REMARK    1  A    between atoms: C_2  and  C_15
REMARK    2  A    between atoms: N_3  and  C_4
REMARK    3  A    between atoms: C_19  and  N_20
REMARK    4  A    between atoms: C_24  and  C_25
REMARK                            x       y       z     vdW  Elec       q    Type
REMARK                         _______ _______ _______ _____ _____    ______ ____
ROOT
ATOM      1  O   UNL     1       2.448   9.256  17.050  0.00  0.00    +0.000 OA
ATOM      2  C   UNL     1       2.071   8.758  18.106  0.00  0.00    +0.000 C 
ATOM      3  N   UNL     1       1.107   9.311  18.918  0.00  0.00    +0.000 N 
ATOM      4  H   UNL     1       0.871   8.844  19.781  0.00  0.00    +0.000 HD
ENDROOT
BRANCH   3   5
ATOM      5  C   UNL     1       0.318  10.472  18.526  0.00  0.00    +0.000 C 
ATOM      6  C   UNL     1       0.923  11.749  19.119  0.00  0.00    +0.000 C 
ATOM      7  C   UNL     1       0.780  11.809  20.644  0.00  0.00    +0.000 C 
ATOM      8  C   UNL     1      -0.685  11.657  21.126  0.00  0.00    +0.000 C 
ATOM      9  C   UNL     1      -0.702  11.517  22.668  0.00  0.00    +0.000 C 
ATOM     10  C   UNL     1      -2.112  11.626  23.241  0.00  0.00    +0.000 C 
ATOM     11  O   UNL     1      -2.722  12.856  22.853  0.00  0.00    +0.000 OA
ATOM     12  C   UNL     1      -2.849  12.980  21.439  0.00  0.00    +0.000 C 
ATOM     13  C   UNL     1      -1.482  12.936  20.766  0.00  0.00    +0.000 C 
ATOM     14  C   UNL     1      -1.302  10.384  20.486  0.00  0.00    +0.000 C 
ATOM     15  C   UNL     1      -1.143  10.314  18.966  0.00  0.00    +0.000 C 
ENDBRANCH   3   5
BRANCH   2  16
ATOM     16  C   UNL     1       2.687   7.497  18.601  0.00  0.00    +0.000 A 
ATOM     17  C   UNL     1       1.979   6.729  19.528  0.00  0.00    +0.000 A 
ATOM     18  C   UNL     1       2.527   5.542  20.021  0.00  0.00    +0.000 A 
ATOM     19  C   UNL     1       3.785   5.115  19.583  0.00  0.00    +0.000 A 
ATOM     20  C   UNL     1       4.494   5.865  18.640  0.00  0.00    +0.000 A 
ATOM     21  C   UNL     1       3.956   7.078  18.172  0.00  0.00    +0.000 A 
BRANCH  20  22
ATOM     22  N   UNL     1       5.780   5.462  18.178  0.00  0.00    +0.000 N 
ATOM     23  N   UNL     1       6.863   5.747  18.958  0.00  0.00    +0.000 NA
ATOM     24  C   UNL     1       7.853   5.015  18.450  0.00  0.00    +0.000 A 
ATOM     25  C   UNL     1       7.478   4.384  17.261  0.00  0.00    +0.000 A 
ATOM     26  C   UNL     1       6.168   4.771  17.048  0.00  0.00    +0.000 A 
BRANCH  26  27
ATOM     27  C   UNL     1       5.345   4.586  15.843  0.00  0.00    +0.000 C 
ATOM     28  F   UNL     1       5.025   5.728  15.194  0.00  0.00    +0.000 F 
ATOM     29  F   UNL     1       5.993   3.811  14.933  0.00  0.00    +0.000 F 
ATOM     30  F   UNL     1       4.182   3.949  16.134  0.00  0.00    +0.000 F 
ENDBRANCH  26  27
ENDBRANCH  20  22
ENDBRANCH   2  16
TORSDOF 4
ENDMDL
MODEL 4
REMARK VINA RESULT:      -8.0      2.691      3.840
REMARK  Name = 
REMARK  4 active torsions:
REMARK  status: ('A' for Active; 'I' for Inactive)
REMARK    1  A    between atoms: C_2  and  C_15
REMARK    2  A    between atoms: N_3  and  C_4
REMARK    3  A    between atoms: C_19  and  N_20
REMARK    4  A    between atoms: C_24  and  C_25
REMARK                            x       y       z     vdW  Elec       q    Type
REMARK                         _______ _______ _______ _____ _____    ______ ____
ROOT
ATOM      1  O   UNL     1       2.970   9.870  17.382  0.00  0.00    +0.000 OA
ATOM      2  C   UNL     1       2.338   8.936  17.865  0.00  0.00    +0.000 C 
ATOM      3  N   UNL     1       1.052   9.043  18.346  0.00  0.00    +0.000 N 
ATOM      4  H   UNL     1       0.613   8.227  18.745  0.00  0.00    +0.000 HD
ENDROOT
BRANCH   3   5
ATOM      5  C   UNL     1       0.248  10.249  18.187  0.00  0.00    +0.000 C 
ATOM      6  C   UNL     1       0.956  11.446  18.827  0.00  0.00    +0.000 C 
ATOM      7  C   UNL     1       1.012  11.342  20.355  0.00  0.00    +0.000 C 
ATOM      8  C   UNL     1      -0.382  11.155  21.005  0.00  0.00    +0.000 C 
ATOM      9  C   UNL     1      -0.204  10.847  22.513  0.00  0.00    +0.000 C 
ATOM     10  C   UNL     1      -1.526  10.910  23.273  0.00  0.00    +0.000 C 
ATOM     11  O   UNL     1      -2.151  12.181  23.101  0.00  0.00    +0.000 OA
ATOM     12  C   UNL     1      -2.455  12.459  21.737  0.00  0.00    +0.000 C 
ATOM     13  C   UNL     1      -1.187  12.474  20.891  0.00  0.00    +0.000 C 
ATOM     14  C   UNL     1      -1.108   9.966  20.320  0.00  0.00    +0.000 C 
ATOM     15  C   UNL     1      -1.148  10.059  18.793  0.00  0.00    +0.000 C 
ENDBRANCH   3   5
BRANCH   2  16
ATOM     16  C   UNL     1       2.966   7.594  17.993  0.00  0.00    +0.000 A 
ATOM     17  C   UNL     1       4.098   7.312  17.224  0.00  0.00    +0.000 A 
ATOM     18  C   UNL     1       4.713   6.060  17.311  0.00  0.00    +0.000 A 
ATOM     19  C   UNL     1       4.200   5.086  18.174  0.00  0.00    +0.000 A 
ATOM     20  C   UNL     1       3.080   5.364  18.964  0.00  0.00    +0.000 A 
ATOM     21  C   UNL     1       2.442   6.612  18.847  0.00  0.00    +0.000 A 
BRANCH  20  22
ATOM     22  N   UNL     1       2.529   4.391  19.847  0.00  0.00    +0.000 N 
ATOM     23  N   UNL     1       2.912   4.419  21.156  0.00  0.00    +0.000 NA
ATOM     24  C   UNL     1       2.044   3.627  21.784  0.00  0.00    +0.000 A 
ATOM     25  C   UNL     1       1.205   2.959  20.888  0.00  0.00    +0.000 A 
ATOM     26  C   UNL     1       1.605   3.387  19.636  0.00  0.00    +0.000 A 
BRANCH  26  27
ATOM     27  C   UNL     1       1.221   2.851  18.321  0.00  0.00    +0.000 C 
ATOM     28  F   UNL     1       2.180   2.125  17.702  0.00  0.00    +0.000 F 
ATOM     29  F   UNL     1       0.147   2.025  18.434  0.00  0.00    +0.000 F 
ATOM     30  F   UNL     1       0.857   3.844  17.471  0.00  0.00    +0.000 F 
ENDBRANCH  26  27
ENDBRANCH  20  22
ENDBRANCH   2  16
TORSDOF 4
ENDMDL
MODEL 5
REMARK VINA RESULT:      -7.9      2.469      2.924
REMARK  Name = 
REMARK  4 active torsions:
REMARK  status: ('A' for Active; 'I' for Inactive)
REMARK    1  A    between atoms: C_2  and  C_15
REMARK    2  A    between atoms: N_3  and  C_4
REMARK    3  A    between atoms: C_19  and  N_20
REMARK    4  A    between atoms: C_24  and  C_25
REMARK                            x       y       z     vdW  Elec       q    Type
REMARK                         _______ _______ _______ _____ _____    ______ ____
ROOT
ATOM      1  O   UNL     1       2.039  10.395  17.457  0.00  0.00    +0.000 OA
ATOM      2  C   UNL     1       1.457   9.904  18.420  0.00  0.00    +0.000 C 
ATOM      3  N   UNL     1       0.474  10.549  19.135  0.00  0.00    +0.000 N 
ATOM      4  H   UNL     1       0.061  10.078  19.927  0.00  0.00    +0.000 HD
ENDROOT
BRANCH   3   5
ATOM      5  C   UNL     1      -0.091  11.829  18.725  0.00  0.00    +0.000 C 
ATOM      6  C   UNL     1       0.710  12.982  19.337  0.00  0.00    +0.000 C 
ATOM      7  C   UNL     1       0.535  13.069  20.857  0.00  0.00    +0.000 C 
ATOM      8  C   UNL     1      -0.946  13.176  21.297  0.00  0.00    +0.000 C 
ATOM      9  C   UNL     1      -1.031  13.044  22.838  0.00  0.00    +0.000 C 
ATOM     10  C   UNL     1      -2.417  13.398  23.371  0.00  0.00    +0.000 C 
ATOM     11  O   UNL     1      -2.793  14.714  22.969  0.00  0.00    +0.000 OA
ATOM     12  C   UNL     1      -2.856  14.854  21.552  0.00  0.00    +0.000 C 
ATOM     13  C   UNL     1      -1.499  14.573  20.919  0.00  0.00    +0.000 C 
ATOM     14  C   UNL     1      -1.757  12.028  20.637  0.00  0.00    +0.000 C 
ATOM     15  C   UNL     1      -1.569  11.927  19.122  0.00  0.00    +0.000 C 
ENDBRANCH   3   5
BRANCH   2  16
ATOM     16  C   UNL     1       1.824   8.546  18.903  0.00  0.00    +0.000 A 
ATOM     17  C   UNL     1       1.460   8.181  20.202  0.00  0.00    +0.000 A 
ATOM     18  C   UNL     1       1.793   6.916  20.695  0.00  0.00    +0.000 A 
ATOM     19  C   UNL     1       2.485   6.008  19.887  0.00  0.00    +0.000 A 
ATOM     20  C   UNL     1       2.835   6.355  18.577  0.00  0.00    +0.000 A 
ATOM     21  C   UNL     1       2.531   7.642  18.097  0.00  0.00    +0.000 A 
BRANCH  20  22
ATOM     22  N   UNL     1       3.547   5.457  17.731  0.00  0.00    +0.000 N 
ATOM     23  N   UNL     1       4.567   5.955  16.975  0.00  0.00    +0.000 NA
ATOM     24  C   UNL     1       5.222   4.882  16.535  0.00  0.00    +0.000 A 
ATOM     25  C   UNL     1       4.557   3.696  16.856  0.00  0.00    +0.000 A 
ATOM     26  C   UNL     1       3.422   4.096  17.537  0.00  0.00    +0.000 A 
BRANCH  26  27
ATOM     27  C   UNL     1       2.253   3.289  17.918  0.00  0.00    +0.000 C 
ATOM     28  F   UNL     1       1.057   3.861  17.650  0.00  0.00    +0.000 F 
ATOM     29  F   UNL     1       2.252   2.102  17.254  0.00  0.00    +0.000 F 
ATOM     30  F   UNL     1       2.269   2.991  19.241  0.00  0.00    +0.000 F 
ENDBRANCH  26  27
ENDBRANCH  20  22
ENDBRANCH   2  16
TORSDOF 4
ENDMDL
MODEL 6
REMARK VINA RESULT:      -7.7      3.279      3.980
REMARK  Name = 
REMARK  4 active torsions:
REMARK  status: ('A' for Active; 'I' for Inactive)
REMARK    1  A    between atoms: C_2  and  C_15
REMARK    2  A    between atoms: N_3  and  C_4
REMARK    3  A    between atoms: C_19  and  N_20
REMARK    4  A    between atoms: C_24  and  C_25
REMARK                            x       y       z     vdW  Elec       q    Type
REMARK                         _______ _______ _______ _____ _____    ______ ____
ROOT
ATOM      1  O   UNL     1       2.009   9.837  17.159  0.00  0.00    +0.000 OA
ATOM      2  C   UNL     1       1.686   9.902  18.341  0.00  0.00    +0.000 C 
ATOM      3  N   UNL     1       1.294  11.062  18.970  0.00  0.00    +0.000 N 
ATOM      4  H   UNL     1       1.064  11.029  19.952  0.00  0.00    +0.000 HD
ENDROOT
BRANCH   3   5
ATOM      5  C   UNL     1       1.068  12.311  18.252  0.00  0.00    +0.000 C 
ATOM      6  C   UNL     1       2.336  13.170  18.273  0.00  0.00    +0.000 C 
ATOM      7  C   UNL     1       2.656  13.702  19.675  0.00  0.00    +0.000 C 
ATOM      8  C   UNL     1       1.484  14.490  20.311  0.00  0.00    +0.000 C 
ATOM      9  C   UNL     1       1.821  14.798  21.792  0.00  0.00    +0.000 C 
ATOM     10  C   UNL     1       0.842  15.792  22.410  0.00  0.00    +0.000 C 
ATOM     11  O   UNL     1       0.800  17.000  21.654  0.00  0.00    +0.000 OA
ATOM     12  C   UNL     1       0.369  16.790  20.312  0.00  0.00    +0.000 C 
ATOM     13  C   UNL     1       1.316  15.846  19.580  0.00  0.00    +0.000 C 
ATOM     14  C   UNL     1       0.195  13.627  20.246  0.00  0.00    +0.000 C 
ATOM     15  C   UNL     1      -0.116  13.080  18.851  0.00  0.00    +0.000 C 
ENDBRANCH   3   5
BRANCH   2  16
ATOM     16  C   UNL     1       1.739   8.688  19.199  0.00  0.00    +0.000 A 
ATOM     17  C   UNL     1       1.029   8.691  20.403  0.00  0.00    +0.000 A 
ATOM     18  C   UNL     1       1.060   7.573  21.239  0.00  0.00    +0.000 A 
ATOM     19  C   UNL     1       1.796   6.442  20.872  0.00  0.00    +0.000 A 
ATOM     20  C   UNL     1       2.493   6.419  19.659  0.00  0.00    +0.000 A 
ATOM     21  C   UNL     1       2.490   7.560  18.837  0.00  0.00    +0.000 A 
BRANCH  20  22
ATOM     22  N   UNL     1       3.258   5.285  19.258  0.00  0.00    +0.000 N 
ATOM     23  N   UNL     1       4.618   5.398  19.244  0.00  0.00    +0.000 NA
ATOM     24  C   UNL     1       5.064   4.148  19.131  0.00  0.00    +0.000 A 
ATOM     25  C   UNL     1       4.024   3.241  18.911  0.00  0.00    +0.000 A 
ATOM     26  C   UNL     1       2.875   4.011  18.891  0.00  0.00    +0.000 A 
BRANCH  26  27
ATOM     27  C   UNL     1       1.519   3.619  18.481  0.00  0.00    +0.000 C 
ATOM     28  F   UNL     1       0.590   3.679  19.462  0.00  0.00    +0.000 F 
ATOM     29  F   UNL     1       1.063   4.430  17.490  0.00  0.00    +0.000 F 
ATOM     30  F   UNL     1       1.499   2.356  17.985  0.00  0.00    +0.000 F 
ENDBRANCH  26  27
ENDBRANCH  20  22
ENDBRANCH   2  16
TORSDOF 4
ENDMDL
MODEL 7
REMARK VINA RESULT:      -7.7      3.420      4.251
REMARK  Name = 
REMARK  4 active torsions:
REMARK  status: ('A' for Active; 'I' for Inactive)
REMARK    1  A    between atoms: C_2  and  C_15
REMARK    2  A    between atoms: N_3  and  C_4
REMARK    3  A    between atoms: C_19  and  N_20
REMARK    4  A    between atoms: C_24  and  C_25
REMARK                            x       y       z     vdW  Elec       q    Type
REMARK                         _______ _______ _______ _____ _____    ______ ____
ROOT
ATOM      1  O   UNL     1       1.247  11.608  18.444  0.00  0.00    +0.000 OA
ATOM      2  C   UNL     1       0.555  10.598  18.532  0.00  0.00    +0.000 C 
ATOM      3  N   UNL     1      -0.780  10.549  18.202  0.00  0.00    +0.000 N 
ATOM      4  H   UNL     1      -1.280   9.681  18.323  0.00  0.00    +0.000 HD
ENDROOT
BRANCH   3   5
ATOM      5  C   UNL     1      -1.476  11.659  17.562  0.00  0.00    +0.000 C 
ATOM      6  C   UNL     1      -2.045  12.609  18.621  0.00  0.00    +0.000 C 
ATOM      7  C   UNL     1      -3.191  11.975  19.417  0.00  0.00    +0.000 C 
ATOM      8  C   UNL     1      -4.341  11.451  18.520  0.00  0.00    +0.000 C 
ATOM      9  C   UNL     1      -5.339  10.647  19.389  0.00  0.00    +0.000 C 
ATOM     10  C   UNL     1      -6.626  10.322  18.636  0.00  0.00    +0.000 C 
ATOM     11  O   UNL     1      -7.244  11.513  18.151  0.00  0.00    +0.000 OA
ATOM     12  C   UNL     1      -6.413  12.229  17.242  0.00  0.00    +0.000 C 
ATOM     13  C   UNL     1      -5.112  12.651  17.914  0.00  0.00    +0.000 C 
ATOM     14  C   UNL     1      -3.749  10.524  17.424  0.00  0.00    +0.000 C 
ATOM     15  C   UNL     1      -2.592  11.147  16.641  0.00  0.00    +0.000 C 
ENDBRANCH   3   5
BRANCH   2  16
ATOM     16  C   UNL     1       1.139   9.333  19.053  0.00  0.00    +0.000 A 
ATOM     17  C   UNL     1       0.863   8.966  20.372  0.00  0.00    +0.000 A 
ATOM     18  C   UNL     1       1.399   7.789  20.901  0.00  0.00    +0.000 A 
ATOM     19  C   UNL     1       2.209   6.969  20.107  0.00  0.00    +0.000 A 
ATOM     20  C   UNL     1       2.474   7.315  18.778  0.00  0.00    +0.000 A 
ATOM     21  C   UNL     1       1.963   8.519  18.261  0.00  0.00    +0.000 A 
BRANCH  20  22
ATOM     22  N   UNL     1       3.300   6.506  17.946  0.00  0.00    +0.000 N 
ATOM     23  N   UNL     1       4.391   7.083  17.365  0.00  0.00    +0.000 NA
ATOM     24  C   UNL     1       5.117   6.063  16.912  0.00  0.00    +0.000 A 
ATOM     25  C   UNL     1       4.445   4.844  17.043  0.00  0.00    +0.000 A 
ATOM     26  C   UNL     1       3.229   5.167  17.617  0.00  0.00    +0.000 A 
BRANCH  26  27
ATOM     27  C   UNL     1       2.041   4.316  17.781  0.00  0.00    +0.000 C 
ATOM     28  F   UNL     1       0.899   4.831  17.272  0.00  0.00    +0.000 F 
ATOM     29  F   UNL     1       2.217   3.120  17.158  0.00  0.00    +0.000 F 
ATOM     30  F   UNL     1       1.809   4.039  19.089  0.00  0.00    +0.000 F 
ENDBRANCH  26  27
ENDBRANCH  20  22
ENDBRANCH   2  16
TORSDOF 4
ENDMDL
MODEL 8
REMARK VINA RESULT:      -7.6      1.414      1.643
REMARK  Name = 
REMARK  4 active torsions:
REMARK  status: ('A' for Active; 'I' for Inactive)
REMARK    1  A    between atoms: C_2  and  C_15
REMARK    2  A    between atoms: N_3  and  C_4
REMARK    3  A    between atoms: C_19  and  N_20
REMARK    4  A    between atoms: C_24  and  C_25
REMARK                            x       y       z     vdW  Elec       q    Type
REMARK                         _______ _______ _______ _____ _____    ______ ____
ROOT
ATOM      1  O   UNL     1       1.923   9.749  17.393  0.00  0.00    +0.000 OA
ATOM      2  C   UNL     1       1.636   9.505  18.561  0.00  0.00    +0.000 C 
ATOM      3  N   UNL     1       1.119  10.432  19.437  0.00  0.00    +0.000 N 
ATOM      4  H   UNL     1       0.928  10.149  20.387  0.00  0.00    +0.000 HD
ENDROOT
BRANCH   3   5
ATOM      5  C   UNL     1       0.710  11.768  19.022  0.00  0.00    +0.000 C 
ATOM      6  C   UNL     1       1.136  12.801  20.069  0.00  0.00    +0.000 C 
ATOM      7  C   UNL     1       0.354  12.660  21.379  0.00  0.00    +0.000 C 
ATOM      8  C   UNL     1      -1.181  12.723  21.184  0.00  0.00    +0.000 C 
ATOM      9  C   UNL     1      -1.880  12.359  22.518  0.00  0.00    +0.000 C 
ATOM     10  C   UNL     1      -3.377  12.651  22.481  0.00  0.00    +0.000 C 
ATOM     11  O   UNL     1      -3.619  14.019  22.156  0.00  0.00    +0.000 OA
ATOM     12  C   UNL     1      -3.106  14.375  20.875  0.00  0.00    +0.000 C 
ATOM     13  C   UNL     1      -1.597  14.170  20.820  0.00  0.00    +0.000 C 
ATOM     14  C   UNL     1      -1.597  11.702  20.091  0.00  0.00    +0.000 C 
ATOM     15  C   UNL     1      -0.805  11.829  18.788  0.00  0.00    +0.000 C 
ENDBRANCH   3   5
BRANCH   2  16
ATOM     16  C   UNL     1       1.873   8.147  19.121  0.00  0.00    +0.000 A 
ATOM     17  C   UNL     1       1.446   7.881  20.424  0.00  0.00    +0.000 A 
ATOM     18  C   UNL     1       1.657   6.620  20.989  0.00  0.00    +0.000 A 
ATOM     19  C   UNL     1       2.292   5.617  20.248  0.00  0.00    +0.000 A 
ATOM     20  C   UNL     1       2.705   5.866  18.935  0.00  0.00    +0.000 A 
ATOM     21  C   UNL     1       2.523   7.147  18.382  0.00  0.00    +0.000 A 
BRANCH  20  22
ATOM     22  N   UNL     1       3.360   4.869  18.155  0.00  0.00    +0.000 N 
ATOM     23  N   UNL     1       2.611   3.841  17.664  0.00  0.00    +0.000 NA
ATOM     24  C   UNL     1       3.390   3.252  16.758  0.00  0.00    +0.000 A 
ATOM     25  C   UNL     1       4.686   3.776  16.765  0.00  0.00    +0.000 A 
ATOM     26  C   UNL     1       4.673   4.748  17.749  0.00  0.00    +0.000 A 
BRANCH  26  27
ATOM     27  C   UNL     1       5.813   5.467  18.337  0.00  0.00    +0.000 C 
ATOM     28  F   UNL     1       7.021   4.908  18.099  0.00  0.00    +0.000 F 
ATOM     29  F   UNL     1       5.888   6.733  17.846  0.00  0.00    +0.000 F 
ATOM     30  F   UNL     1       5.682   5.582  19.683  0.00  0.00    +0.000 F 
ENDBRANCH  26  27
ENDBRANCH  20  22
ENDBRANCH   2  16
TORSDOF 4
ENDMDL
MODEL 9
REMARK VINA RESULT:      -7.6      3.348      4.220
REMARK  Name = 
REMARK  4 active torsions:
REMARK  status: ('A' for Active; 'I' for Inactive)
REMARK    1  A    between atoms: C_2  and  C_15
REMARK    2  A    between atoms: N_3  and  C_4
REMARK    3  A    between atoms: C_19  and  N_20
REMARK    4  A    between atoms: C_24  and  C_25
REMARK                            x       y       z     vdW  Elec       q    Type
REMARK                         _______ _______ _______ _____ _____    ______ ____
ROOT
ATOM      1  O   UNL     1      -0.398  10.337  18.215  0.00  0.00    +0.000 OA
ATOM      2  C   UNL     1       0.733  10.310  18.691  0.00  0.00    +0.000 C 
ATOM      3  N   UNL     1       1.538  11.419  18.827  0.00  0.00    +0.000 N 
ATOM      4  H   UNL     1       2.463  11.304  19.212  0.00  0.00    +0.000 HD
ENDROOT
BRANCH   3   5
ATOM      5  C   UNL     1       1.067  12.773  18.562  0.00  0.00    +0.000 C 
ATOM      6  C   UNL     1       2.194  13.617  17.958  0.00  0.00    +0.000 C 
ATOM      7  C   UNL     1       3.315  13.898  18.965  0.00  0.00    +0.000 C 
ATOM      8  C   UNL     1       2.811  14.563  20.270  0.00  0.00    +0.000 C 
ATOM      9  C   UNL     1       3.969  14.610  21.298  0.00  0.00    +0.000 C 
ATOM     10  C   UNL     1       3.632  15.480  22.506  0.00  0.00    +0.000 C 
ATOM     11  O   UNL     1       3.283  16.802  22.097  0.00  0.00    +0.000 OA
ATOM     12  C   UNL     1       2.139  16.827  21.248  0.00  0.00    +0.000 C 
ATOM     13  C   UNL     1       2.390  16.025  19.976  0.00  0.00    +0.000 C 
ATOM     14  C   UNL     1       1.641  13.723  20.851  0.00  0.00    +0.000 C 
ATOM     15  C   UNL     1       0.530  13.426  19.842  0.00  0.00    +0.000 C 
ENDBRANCH   3   5
BRANCH   2  16
ATOM     16  C   UNL     1       1.329   9.021  19.131  0.00  0.00    +0.000 A 
ATOM     17  C   UNL     1       1.086   8.586  20.436  0.00  0.00    +0.000 A 
ATOM     18  C   UNL     1       1.634   7.383  20.890  0.00  0.00    +0.000 A 
ATOM     19  C   UNL     1       2.424   6.606  20.036  0.00  0.00    +0.000 A 
ATOM     20  C   UNL     1       2.657   7.021  18.720  0.00  0.00    +0.000 A 
ATOM     21  C   UNL     1       2.134   8.250  18.278  0.00  0.00    +0.000 A 
BRANCH  20  22
ATOM     22  N   UNL     1       3.462   6.257  17.827  0.00  0.00    +0.000 N 
ATOM     23  N   UNL     1       4.513   6.877  17.216  0.00  0.00    +0.000 NA
ATOM     24  C   UNL     1       5.241   5.889  16.700  0.00  0.00    +0.000 A 
ATOM     25  C   UNL     1       4.603   4.651  16.823  0.00  0.00    +0.000 A 
ATOM     26  C   UNL     1       3.407   4.928  17.461  0.00  0.00    +0.000 A 
BRANCH  26  27
ATOM     27  C   UNL     1       2.248   4.043  17.652  0.00  0.00    +0.000 C 
ATOM     28  F   UNL     1       1.055   4.594  17.332  0.00  0.00    +0.000 F 
ATOM     29  F   UNL     1       2.361   2.930  16.879  0.00  0.00    +0.000 F 
ATOM     30  F   UNL     1       2.161   3.614  18.936  0.00  0.00    +0.000 F 
ENDBRANCH  26  27
ENDBRANCH  20  22
ENDBRANCH   2  16
TORSDOF 4
ENDMDL
