MODEL 1
REMARK VINA RESULT:      -8.5      0.000      0.000
REMARK  Name = 
REMARK  6 active torsions:
REMARK  status: ('A' for Active; 'I' for Inactive)
REMARK    1  A    between atoms: C_1  and  C_2
REMARK    2  A    between atoms: C_2  and  C_3
REMARK    3  A    between atoms: N_7  and  C_8
REMARK    4  A    between atoms: C_8  and  C_9
REMARK    5  A    between atoms: C_14  and  C_15
REMARK    6  A    between atoms: C_17  and  C_18
REMARK                            x       y       z     vdW  Elec       q    Type
REMARK                         _______ _______ _______ _____ _____    ______ ____
ROOT
ATOM      1  C   UNL     1       2.450   6.492  19.235  0.00  0.00    +0.000 C 
ATOM      2  O   UNL     1       2.397   5.754  20.224  0.00  0.00    +0.000 OA
ATOM      3  N   UNL     1       2.045   7.820  19.311  0.00  0.00    +0.000 N 
ATOM      4  C   UNL     1       1.768   8.416  20.617  0.00  0.00    +0.000 C 
ATOM      5  C   UNL     1       0.361   9.014  20.664  0.00  0.00    +0.000 C 
ATOM      6  C   UNL     1       0.104   9.997  19.510  0.00  0.00    +0.000 C 
ATOM      7  C   UNL     1       0.498   9.357  18.165  0.00  0.00    +0.000 C 
ATOM      8  C   UNL     1       1.907   8.750  18.191  0.00  0.00    +0.000 C 
ENDROOT
BRANCH   6   9
ATOM      9  C   UNL     1       0.816  11.293  19.729  0.00  0.00    +0.000 A 
ATOM     10  N   UNL     1       1.155  12.179  18.829  0.00  0.00    +0.000 NA
ATOM     11  C   UNL     1       1.781  13.178  19.540  0.00  0.00    +0.000 A 
ATOM     12  N   UNL     1       1.854  12.925  20.858  0.00  0.00    +0.000 NA
ATOM     13  N   UNL     1       1.231  11.738  20.951  0.00  0.00    +0.000 N 
ATOM     14  H   UNL     1       1.133  11.299  21.860  0.00  0.00    +0.000 HD
BRANCH  11  15
ATOM     15  C   UNL     1       2.285  14.380  18.886  0.00  0.00    +0.000 A 
ATOM     16  C   UNL     1       3.536  14.358  18.246  0.00  0.00    +0.000 A 
ATOM     17  C   UNL     1       4.024  15.491  17.592  0.00  0.00    +0.000 A 
ATOM     18  C   UNL     1       3.269  16.661  17.575  0.00  0.00    +0.000 A 
ATOM     19  C   UNL     1       2.030  16.701  18.216  0.00  0.00    +0.000 A 
ATOM     20  C   UNL     1       1.541  15.566  18.870  0.00  0.00    +0.000 A 
ENDBRANCH  11  15
ENDBRANCH   6   9
BRANCH   1  21
ATOM     21  C   UNL     1       2.899   5.906  17.885  0.00  0.00    +0.000 C 
BRANCH  21  28
ATOM     22  C   UNL     1       7.619   4.580  17.296  0.00  0.00    +0.000 C 
ATOM     23  C   UNL     1       6.498   4.909  18.266  0.00  0.00    +0.000 C 
ATOM     24  C   UNL     1       7.006   5.589  19.535  0.00  0.00    +0.000 C 
ATOM     25  N   UNL     1       5.715   3.740  18.580  0.00  0.00    +0.000 N 
ATOM     26  C   UNL     1       4.368   3.968  18.439  0.00  0.00    +0.000 C 
ATOM     27  O   UNL     1       3.533   3.094  18.591  0.00  0.00    +0.000 OA
ATOM     28  N   UNL     1       4.184   5.257  18.050  0.00  0.00    +0.000 N 
ATOM     29  C   UNL     1       5.387   5.797  17.681  0.00  0.00    +0.000 C 
ATOM     30  O   UNL     1       5.565   6.826  17.045  0.00  0.00    +0.000 OA
ATOM     31  H   UNL     1       6.067   2.825  18.825  0.00  0.00    +0.000 HD
ENDBRANCH  21  28
ENDBRANCH   1  21
TORSDOF 4
ENDMDL
MODEL 2
REMARK VINA RESULT:      -8.2      1.755      2.225
REMARK  Name = 
REMARK  6 active torsions:
REMARK  status: ('A' for Active; 'I' for Inactive)
REMARK    1  A    between atoms: C_1  and  C_2
REMARK    2  A    between atoms: C_2  and  C_3
REMARK    3  A    between atoms: N_7  and  C_8
REMARK    4  A    between atoms: C_8  and  C_9
REMARK    5  A    between atoms: C_14  and  C_15
REMARK    6  A    between atoms: C_17  and  C_18
REMARK                            x       y       z     vdW  Elec       q    Type
REMARK                         _______ _______ _______ _____ _____    ______ ____
ROOT
ATOM      1  C   UNL     1       2.174   6.940  19.627  0.00  0.00    +0.000 C 
ATOM      2  O   UNL     1       2.015   6.266  20.649  0.00  0.00    +0.000 OA
ATOM      3  N   UNL     1       1.716   8.251  19.555  0.00  0.00    +0.000 N 
ATOM      4  C   UNL     1       1.246   8.918  20.768  0.00  0.00    +0.000 C 
ATOM      5  C   UNL     1      -0.176   9.454  20.587  0.00  0.00    +0.000 C 
ATOM      6  C   UNL     1      -0.309  10.348  19.344  0.00  0.00    +0.000 C 
ATOM      7  C   UNL     1       0.285   9.641  18.111  0.00  0.00    +0.000 C 
ATOM      8  C   UNL     1       1.698   9.099  18.364  0.00  0.00    +0.000 C 
ENDROOT
BRANCH   6   9
ATOM      9  C   UNL     1       0.322  11.686  19.563  0.00  0.00    +0.000 A 
ATOM     10  N   UNL     1       0.810  12.496  18.661  0.00  0.00    +0.000 NA
ATOM     11  C   UNL     1       1.267  13.581  19.374  0.00  0.00    +0.000 A 
ATOM     12  N   UNL     1       1.089  13.456  20.700  0.00  0.00    +0.000 NA
ATOM     13  N   UNL     1       0.483  12.260  20.791  0.00  0.00    +0.000 N 
ATOM     14  H   UNL     1       0.221  11.905  21.704  0.00  0.00    +0.000 HD
BRANCH  11  15
ATOM     15  C   UNL     1       1.864  14.735  18.711  0.00  0.00    +0.000 A 
ATOM     16  C   UNL     1       3.074  14.594  18.011  0.00  0.00    +0.000 A 
ATOM     17  C   UNL     1       3.648  15.681  17.349  0.00  0.00    +0.000 A 
ATOM     18  C   UNL     1       3.019  16.923  17.381  0.00  0.00    +0.000 A 
ATOM     19  C   UNL     1       1.822  17.081  18.081  0.00  0.00    +0.000 A 
ATOM     20  C   UNL     1       1.248  15.992  18.744  0.00  0.00    +0.000 A 
ENDBRANCH  11  15
ENDBRANCH   6   9
BRANCH   1  21
ATOM     21  C   UNL     1       2.822   6.288  18.392  0.00  0.00    +0.000 C 
BRANCH  21  28
ATOM     22  C   UNL     1       3.785   1.453  18.668  0.00  0.00    +0.000 C 
ATOM     23  C   UNL     1       2.926   2.611  19.143  0.00  0.00    +0.000 C 
ATOM     24  C   UNL     1       2.481   2.451  20.595  0.00  0.00    +0.000 C 
ATOM     25  N   UNL     1       1.797   2.819  18.272  0.00  0.00    +0.000 N 
ATOM     26  C   UNL     1       1.672   4.132  17.891  0.00  0.00    +0.000 C 
ATOM     27  O   UNL     1       0.823   4.512  17.104  0.00  0.00    +0.000 OA
ATOM     28  N   UNL     1       2.667   4.850  18.475  0.00  0.00    +0.000 N 
ATOM     29  C   UNL     1       3.589   3.993  19.015  0.00  0.00    +0.000 C 
ATOM     30  O   UNL     1       4.722   4.271  19.382  0.00  0.00    +0.000 OA
ATOM     31  H   UNL     1       1.173   2.110  17.912  0.00  0.00    +0.000 HD
ENDBRANCH  21  28
ENDBRANCH   1  21
TORSDOF 4
ENDMDL
MODEL 3
REMARK VINA RESULT:      -8.0      1.839      2.439
REMARK  Name = 
REMARK  6 active torsions:
REMARK  status: ('A' for Active; 'I' for Inactive)
REMARK    1  A    between atoms: C_1  and  C_2
REMARK    2  A    between atoms: C_2  and  C_3
REMARK    3  A    between atoms: N_7  and  C_8
REMARK    4  A    between atoms: C_8  and  C_9
REMARK    5  A    between atoms: C_14  and  C_15
REMARK    6  A    between atoms: C_17  and  C_18
REMARK                            x       y       z     vdW  Elec       q    Type
REMARK                         _______ _______ _______ _____ _____    ______ ____
ROOT
ATOM      1  C   UNL     1       2.160   6.754  19.703  0.00  0.00    +0.000 C 
ATOM      2  O   UNL     1       1.876   6.024  20.658  0.00  0.00    +0.000 OA
ATOM      3  N   UNL     1       1.813   8.101  19.704  0.00  0.00    +0.000 N 
ATOM      4  C   UNL     1       1.313   8.716  20.932  0.00  0.00    +0.000 C 
ATOM      5  C   UNL     1      -0.045   9.382  20.703  0.00  0.00    +0.000 C 
ATOM      6  C   UNL     1      -0.019  10.371  19.526  0.00  0.00    +0.000 C 
ATOM      7  C   UNL     1       0.602   9.706  18.283  0.00  0.00    +0.000 C 
ATOM      8  C   UNL     1       1.946   9.031  18.583  0.00  0.00    +0.000 C 
ENDROOT
BRANCH   6   9
ATOM      9  C   UNL     1       0.699  11.632  19.888  0.00  0.00    +0.000 A 
ATOM     10  N   UNL     1       1.457  12.368  19.118  0.00  0.00    +0.000 NA
ATOM     11  C   UNL     1       1.872  13.404  19.923  0.00  0.00    +0.000 A 
ATOM     12  N   UNL     1       1.403  13.320  21.180  0.00  0.00    +0.000 NA
ATOM     13  N   UNL     1       0.660  12.202  21.128  0.00  0.00    +0.000 N 
ATOM     14  H   UNL     1       0.171  11.892  21.961  0.00  0.00    +0.000 HD
BRANCH  11  15
ATOM     15  C   UNL     1       2.724  14.473  19.413  0.00  0.00    +0.000 A 
ATOM     16  C   UNL     1       2.838  15.679  20.125  0.00  0.00    +0.000 A 
ATOM     17  C   UNL     1       3.668  16.703  19.667  0.00  0.00    +0.000 A 
ATOM     18  C   UNL     1       4.391  16.536  18.488  0.00  0.00    +0.000 A 
ATOM     19  C   UNL     1       4.278  15.348  17.764  0.00  0.00    +0.000 A 
ATOM     20  C   UNL     1       3.447  14.322  18.223  0.00  0.00    +0.000 A 
ENDBRANCH  11  15
ENDBRANCH   6   9
BRANCH   1  21
ATOM     21  C   UNL     1       2.838   6.140  18.466  0.00  0.00    +0.000 C 
BRANCH  21  28
ATOM     22  C   UNL     1       3.767   1.292  18.583  0.00  0.00    +0.000 C 
ATOM     23  C   UNL     1       2.909   2.438  19.087  0.00  0.00    +0.000 C 
ATOM     24  C   UNL     1       2.443   2.230  20.526  0.00  0.00    +0.000 C 
ATOM     25  N   UNL     1       1.792   2.684  18.209  0.00  0.00    +0.000 N 
ATOM     26  C   UNL     1       1.681   4.011  17.874  0.00  0.00    +0.000 C 
ATOM     27  O   UNL     1       0.845   4.424  17.089  0.00  0.00    +0.000 OA
ATOM     28  N   UNL     1       2.672   4.701  18.496  0.00  0.00    +0.000 N 
ATOM     29  C   UNL     1       3.582   3.819  19.016  0.00  0.00    +0.000 C 
ATOM     30  O   UNL     1       4.711   4.076  19.408  0.00  0.00    +0.000 OA
ATOM     31  H   UNL     1       1.169   1.992  17.816  0.00  0.00    +0.000 HD
ENDBRANCH  21  28
ENDBRANCH   1  21
TORSDOF 4
ENDMDL
MODEL 4
REMARK VINA RESULT:      -8.0      1.406      1.679
REMARK  Name = 
REMARK  6 active torsions:
REMARK  status: ('A' for Active; 'I' for Inactive)
REMARK    1  A    between atoms: C_1  and  C_2
REMARK    2  A    between atoms: C_2  and  C_3
REMARK    3  A    between atoms: N_7  and  C_8
REMARK    4  A    between atoms: C_8  and  C_9
REMARK    5  A    between atoms: C_14  and  C_15
REMARK    6  A    between atoms: C_17  and  C_18
REMARK                            x       y       z     vdW  Elec       q    Type
REMARK                         _______ _______ _______ _____ _____    ______ ____
ROOT
ATOM      1  C   UNL     1       2.333   6.331  19.268  0.00  0.00    +0.000 C 
ATOM      2  O   UNL     1       2.222   5.768  20.361  0.00  0.00    +0.000 OA
ATOM      3  N   UNL     1       2.092   7.695  19.137  0.00  0.00    +0.000 N 
ATOM      4  C   UNL     1       1.926   8.516  20.335  0.00  0.00    +0.000 C 
ATOM      5  C   UNL     1       0.602   9.281  20.301  0.00  0.00    +0.000 C 
ATOM      6  C   UNL     1       0.431  10.097  19.009  0.00  0.00    +0.000 C 
ATOM      7  C   UNL     1       0.707   9.212  17.779  0.00  0.00    +0.000 C 
ATOM      8  C   UNL     1       2.033   8.448  17.885  0.00  0.00    +0.000 C 
ENDROOT
BRANCH   6   9
ATOM      9  C   UNL     1       1.299  11.314  19.013  0.00  0.00    +0.000 A 
ATOM     10  N   UNL     1       1.481  12.162  19.991  0.00  0.00    +0.000 NA
ATOM     11  C   UNL     1       2.362  13.092  19.490  0.00  0.00    +0.000 A 
ATOM     12  N   UNL     1       2.719  12.851  18.216  0.00  0.00    +0.000 NA
ATOM     13  N   UNL     1       2.044  11.722  17.944  0.00  0.00    +0.000 N 
ATOM     14  H   UNL     1       2.133  11.299  17.026  0.00  0.00    +0.000 HD
BRANCH  11  15
ATOM     15  C   UNL     1       2.845  14.203  20.302  0.00  0.00    +0.000 A 
ATOM     16  C   UNL     1       3.993  14.913  19.909  0.00  0.00    +0.000 A 
ATOM     17  C   UNL     1       4.456  15.995  20.660  0.00  0.00    +0.000 A 
ATOM     18  C   UNL     1       3.778  16.379  21.814  0.00  0.00    +0.000 A 
ATOM     19  C   UNL     1       2.643  15.676  22.223  0.00  0.00    +0.000 A 
ATOM     20  C   UNL     1       2.180  14.592  21.471  0.00  0.00    +0.000 A 
ENDBRANCH  11  15
ENDBRANCH   6   9
BRANCH   1  21
ATOM     21  C   UNL     1       2.669   5.491  18.023  0.00  0.00    +0.000 C 
BRANCH  21  28
ATOM     22  C   UNL     1       7.451   4.559  17.219  0.00  0.00    +0.000 C 
ATOM     23  C   UNL     1       6.362   4.851  18.235  0.00  0.00    +0.000 C 
ATOM     24  C   UNL     1       6.876   5.659  19.425  0.00  0.00    +0.000 C 
ATOM     25  N   UNL     1       5.711   3.641  18.671  0.00  0.00    +0.000 N 
ATOM     26  C   UNL     1       4.343   3.736  18.602  0.00  0.00    +0.000 C 
ATOM     27  O   UNL     1       3.604   2.803  18.861  0.00  0.00    +0.000 OA
ATOM     28  N   UNL     1       4.016   4.974  18.146  0.00  0.00    +0.000 N 
ATOM     29  C   UNL     1       5.140   5.593  17.668  0.00  0.00    +0.000 C 
ATOM     30  O   UNL     1       5.184   6.589  16.959  0.00  0.00    +0.000 OA
ATOM     31  H   UNL     1       6.161   2.780  18.950  0.00  0.00    +0.000 HD
ENDBRANCH  21  28
ENDBRANCH   1  21
TORSDOF 4
ENDMDL
MODEL 5
REMARK VINA RESULT:      -7.9      1.800      2.499
REMARK  Name = 
REMARK  6 active torsions:
REMARK  status: ('A' for Active; 'I' for Inactive)
REMARK    1  A    between atoms: C_1  and  C_2
REMARK    2  A    between atoms: C_2  and  C_3
REMARK    3  A    between atoms: N_7  and  C_8
REMARK    4  A    between atoms: C_8  and  C_9
REMARK    5  A    between atoms: C_14  and  C_15
REMARK    6  A    between atoms: C_17  and  C_18
REMARK                            x       y       z     vdW  Elec       q    Type
REMARK                         _______ _______ _______ _____ _____    ______ ____
ROOT
ATOM      1  C   UNL     1       2.218   6.903  19.555  0.00  0.00    +0.000 C 
ATOM      2  O   UNL     1       2.045   6.235  20.579  0.00  0.00    +0.000 OA
ATOM      3  N   UNL     1       1.770   8.217  19.474  0.00  0.00    +0.000 N 
ATOM      4  C   UNL     1       1.295   8.893  20.680  0.00  0.00    +0.000 C 
ATOM      5  C   UNL     1      -0.120   9.439  20.484  0.00  0.00    +0.000 C 
ATOM      6  C   UNL     1      -0.237  10.329  19.236  0.00  0.00    +0.000 C 
ATOM      7  C   UNL     1       0.362   9.611  18.011  0.00  0.00    +0.000 C 
ATOM      8  C   UNL     1       1.768   9.060  18.279  0.00  0.00    +0.000 C 
ENDROOT
BRANCH   6   9
ATOM      9  C   UNL     1       0.402  11.663  19.454  0.00  0.00    +0.000 A 
ATOM     10  N   UNL     1       0.347  12.711  18.675  0.00  0.00    +0.000 NA
ATOM     11  C   UNL     1       1.094  13.668  19.322  0.00  0.00    +0.000 A 
ATOM     12  N   UNL     1       1.627  13.233  20.478  0.00  0.00    +0.000 NA
ATOM     13  N   UNL     1       1.167  11.973  20.542  0.00  0.00    +0.000 N 
ATOM     14  H   UNL     1       1.417  11.393  21.336  0.00  0.00    +0.000 HD
BRANCH  11  15
ATOM     15  C   UNL     1       1.252  15.012  18.777  0.00  0.00    +0.000 A 
ATOM     16  C   UNL     1       0.145  15.875  18.707  0.00  0.00    +0.000 A 
ATOM     17  C   UNL     1       0.282  17.173  18.212  0.00  0.00    +0.000 A 
ATOM     18  C   UNL     1       1.527  17.623  17.779  0.00  0.00    +0.000 A 
ATOM     19  C   UNL     1       2.632  16.773  17.832  0.00  0.00    +0.000 A 
ATOM     20  C   UNL     1       2.495  15.473  18.327  0.00  0.00    +0.000 A 
ENDBRANCH  11  15
ENDBRANCH   6   9
BRANCH   1  21
ATOM     21  C   UNL     1       2.870   6.240  18.329  0.00  0.00    +0.000 C 
BRANCH  21  28
ATOM     22  C   UNL     1       3.740   1.387  18.584  0.00  0.00    +0.000 C 
ATOM     23  C   UNL     1       2.907   2.559  19.067  0.00  0.00    +0.000 C 
ATOM     24  C   UNL     1       2.467   2.403  20.522  0.00  0.00    +0.000 C 
ATOM     25  N   UNL     1       1.776   2.792  18.205  0.00  0.00    +0.000 N 
ATOM     26  C   UNL     1       1.675   4.109  17.828  0.00  0.00    +0.000 C 
ATOM     27  O   UNL     1       0.829   4.508  17.048  0.00  0.00    +0.000 OA
ATOM     28  N   UNL     1       2.687   4.805  18.409  0.00  0.00    +0.000 N 
ATOM     29  C   UNL     1       3.596   3.929  18.939  0.00  0.00    +0.000 C 
ATOM     30  O   UNL     1       4.736   4.183  19.300  0.00  0.00    +0.000 OA
ATOM     31  H   UNL     1       1.137   2.096  17.846  0.00  0.00    +0.000 HD
ENDBRANCH  21  28
ENDBRANCH   1  21
TORSDOF 4
ENDMDL
MODEL 6
REMARK VINA RESULT:      -7.7      1.981      2.513
REMARK  Name = 
REMARK  6 active torsions:
REMARK  status: ('A' for Active; 'I' for Inactive)
REMARK    1  A    between atoms: C_1  and  C_2
REMARK    2  A    between atoms: C_2  and  C_3
REMARK    3  A    between atoms: N_7  and  C_8
REMARK    4  A    between atoms: C_8  and  C_9
REMARK    5  A    between atoms: C_14  and  C_15
REMARK    6  A    between atoms: C_17  and  C_18
REMARK                            x       y       z     vdW  Elec       q    Type
REMARK                         _______ _______ _______ _____ _____    ______ ____
ROOT
ATOM      1  C   UNL     1       2.054   7.529  19.490  0.00  0.00    +0.000 C 
ATOM      2  O   UNL     1       2.035   7.043  20.624  0.00  0.00    +0.000 OA
ATOM      3  N   UNL     1       1.464   8.761  19.228  0.00  0.00    +0.000 N 
ATOM      4  C   UNL     1       1.017   9.597  20.341  0.00  0.00    +0.000 C 
ATOM      5  C   UNL     1      -0.460   9.968  20.193  0.00  0.00    +0.000 C 
ATOM      6  C   UNL     1      -0.769  10.604  18.829  0.00  0.00    +0.000 C 
ATOM      7  C   UNL     1      -0.196   9.736  17.693  0.00  0.00    +0.000 C 
ATOM      8  C   UNL     1       1.278   9.372  17.913  0.00  0.00    +0.000 C 
ENDROOT
BRANCH   6   9
ATOM      9  C   UNL     1      -0.260  12.009  18.753  0.00  0.00    +0.000 A 
ATOM     10  N   UNL     1       0.985  12.406  18.735  0.00  0.00    +0.000 NA
ATOM     11  C   UNL     1       0.913  13.779  18.659  0.00  0.00    +0.000 A 
ATOM     12  N   UNL     1      -0.348  14.243  18.646  0.00  0.00    +0.000 NA
ATOM     13  N   UNL     1      -1.066  13.109  18.696  0.00  0.00    +0.000 N 
ATOM     14  H   UNL     1      -2.079  13.162  18.694  0.00  0.00    +0.000 HD
BRANCH  11  15
ATOM     15  C   UNL     1       2.114  14.604  18.586  0.00  0.00    +0.000 A 
ATOM     16  C   UNL     1       2.055  15.961  18.944  0.00  0.00    +0.000 A 
ATOM     17  C   UNL     1       3.198  16.761  18.905  0.00  0.00    +0.000 A 
ATOM     18  C   UNL     1       4.415  16.213  18.505  0.00  0.00    +0.000 A 
ATOM     19  C   UNL     1       4.486  14.869  18.136  0.00  0.00    +0.000 A 
ATOM     20  C   UNL     1       3.340  14.068  18.174  0.00  0.00    +0.000 A 
ENDBRANCH  11  15
ENDBRANCH   6   9
BRANCH   1  21
ATOM     21  C   UNL     1       2.674   6.719  18.337  0.00  0.00    +0.000 C 
BRANCH  21  28
ATOM     22  C   UNL     1       4.254   2.233  19.664  0.00  0.00    +0.000 C 
ATOM     23  C   UNL     1       3.205   3.316  19.833  0.00  0.00    +0.000 C 
ATOM     24  C   UNL     1       2.649   3.375  21.254  0.00  0.00    +0.000 C 
ATOM     25  N   UNL     1       2.145   3.177  18.866  0.00  0.00    +0.000 N 
ATOM     26  C   UNL     1       1.880   4.357  18.216  0.00  0.00    +0.000 C 
ATOM     27  O   UNL     1       1.066   4.444  17.314  0.00  0.00    +0.000 OA
ATOM     28  N   UNL     1       2.708   5.318  18.704  0.00  0.00    +0.000 N 
ATOM     29  C   UNL     1       3.683   4.732  19.467  0.00  0.00    +0.000 C 
ATOM     30  O   UNL     1       4.727   5.244  19.843  0.00  0.00    +0.000 OA
ATOM     31  H   UNL     1       1.661   2.325  18.619  0.00  0.00    +0.000 HD
ENDBRANCH  21  28
ENDBRANCH   1  21
TORSDOF 4
ENDMDL
MODEL 7
REMARK VINA RESULT:      -7.6      2.004      2.436
REMARK  Name = 
REMARK  6 active torsions:
REMARK  status: ('A' for Active; 'I' for Inactive)
REMARK    1  A    between atoms: C_1  and  C_2
REMARK    2  A    between atoms: C_2  and  C_3
REMARK    3  A    between atoms: N_7  and  C_8
REMARK    4  A    between atoms: C_8  and  C_9
REMARK    5  A    between atoms: C_14  and  C_15
REMARK    6  A    between atoms: C_17  and  C_18
REMARK                            x       y       z     vdW  Elec       q    Type
REMARK                         _______ _______ _______ _____ _____    ______ ____
ROOT
ATOM      1  C   UNL     1       2.044   7.254  19.735  0.00  0.00    +0.000 C 
ATOM      2  O   UNL     1       1.881   6.641  20.794  0.00  0.00    +0.000 OA
ATOM      3  N   UNL     1       1.598   8.563  19.589  0.00  0.00    +0.000 N 
ATOM      4  C   UNL     1       1.135   9.302  20.763  0.00  0.00    +0.000 C 
ATOM      5  C   UNL     1      -0.281   9.840  20.553  0.00  0.00    +0.000 C 
ATOM      6  C   UNL     1      -0.409  10.662  19.261  0.00  0.00    +0.000 C 
ATOM      7  C   UNL     1       0.176   9.880  18.070  0.00  0.00    +0.000 C 
ATOM      8  C   UNL     1       1.585   9.341  18.352  0.00  0.00    +0.000 C 
ENDROOT
BRANCH   6   9
ATOM      9  C   UNL     1       0.234  12.005  19.403  0.00  0.00    +0.000 A 
ATOM     10  N   UNL     1      -0.054  13.100  18.750  0.00  0.00    +0.000 NA
ATOM     11  C   UNL     1       0.818  14.043  19.246  0.00  0.00    +0.000 A 
ATOM     12  N   UNL     1       1.653  13.554  20.180  0.00  0.00    +0.000 NA
ATOM     13  N   UNL     1       1.257  12.273  20.266  0.00  0.00    +0.000 N 
ATOM     14  H   UNL     1       1.725  11.652  20.918  0.00  0.00    +0.000 HD
BRANCH  11  15
ATOM     15  C   UNL     1       0.791  15.426  18.785  0.00  0.00    +0.000 A 
ATOM     16  C   UNL     1       1.996  16.116  18.563  0.00  0.00    +0.000 A 
ATOM     17  C   UNL     1       1.991  17.431  18.098  0.00  0.00    +0.000 A 
ATOM     18  C   UNL     1       0.781  18.076  17.851  0.00  0.00    +0.000 A 
ATOM     19  C   UNL     1      -0.423  17.407  18.076  0.00  0.00    +0.000 A 
ATOM     20  C   UNL     1      -0.418  16.089  18.543  0.00  0.00    +0.000 A 
ENDBRANCH  11  15
ENDBRANCH   6   9
BRANCH   1  21
ATOM     21  C   UNL     1       2.683   6.526  18.539  0.00  0.00    +0.000 C 
BRANCH  21  28
ATOM     22  C   UNL     1       4.250   1.959  19.570  0.00  0.00    +0.000 C 
ATOM     23  C   UNL     1       3.197   3.028  19.800  0.00  0.00    +0.000 C 
ATOM     24  C   UNL     1       2.622   2.986  21.214  0.00  0.00    +0.000 C 
ATOM     25  N   UNL     1       2.152   2.956  18.811  0.00  0.00    +0.000 N 
ATOM     26  C   UNL     1       1.894   4.179  18.241  0.00  0.00    +0.000 C 
ATOM     27  O   UNL     1       1.093   4.328  17.336  0.00  0.00    +0.000 OA
ATOM     28  N   UNL     1       2.714   5.103  18.807  0.00  0.00    +0.000 N 
ATOM     29  C   UNL     1       3.679   4.466  19.541  0.00  0.00    +0.000 C 
ATOM     30  O   UNL     1       4.717   4.951  19.966  0.00  0.00    +0.000 OA
ATOM     31  H   UNL     1       1.672   2.124  18.498  0.00  0.00    +0.000 HD
ENDBRANCH  21  28
ENDBRANCH   1  21
TORSDOF 4
ENDMDL
MODEL 8
REMARK VINA RESULT:      -7.6      3.222      5.006
REMARK  Name = 
REMARK  6 active torsions:
REMARK  status: ('A' for Active; 'I' for Inactive)
REMARK    1  A    between atoms: C_1  and  C_2
REMARK    2  A    between atoms: C_2  and  C_3
REMARK    3  A    between atoms: N_7  and  C_8
REMARK    4  A    between atoms: C_8  and  C_9
REMARK    5  A    between atoms: C_14  and  C_15
REMARK    6  A    between atoms: C_17  and  C_18
REMARK                            x       y       z     vdW  Elec       q    Type
REMARK                         _______ _______ _______ _____ _____    ______ ____
ROOT
ATOM      1  C   UNL     1       2.614   7.429  18.783  0.00  0.00    +0.000 C 
ATOM      2  O   UNL     1       3.374   7.337  17.815  0.00  0.00    +0.000 OA
ATOM      3  N   UNL     1       1.757   8.516  18.919  0.00  0.00    +0.000 N 
ATOM      4  C   UNL     1       1.585   9.442  17.801  0.00  0.00    +0.000 C 
ATOM      5  C   UNL     1       1.881  10.881  18.228  0.00  0.00    +0.000 C 
ATOM      6  C   UNL     1       1.070  11.304  19.463  0.00  0.00    +0.000 C 
ATOM      7  C   UNL     1       1.208  10.251  20.579  0.00  0.00    +0.000 C 
ATOM      8  C   UNL     1       0.928   8.826  20.083  0.00  0.00    +0.000 C 
ENDROOT
BRANCH   6   9
ATOM      9  C   UNL     1      -0.364  11.550  19.118  0.00  0.00    +0.000 A 
ATOM     10  N   UNL     1      -1.359  11.758  19.940  0.00  0.00    +0.000 NA
ATOM     11  C   UNL     1      -2.456  11.926  19.127  0.00  0.00    +0.000 A 
ATOM     12  N   UNL     1      -2.169  11.810  17.818  0.00  0.00    +0.000 NA
ATOM     13  N   UNL     1      -0.845  11.584  17.840  0.00  0.00    +0.000 N 
ATOM     14  H   UNL     1      -0.348  11.459  16.965  0.00  0.00    +0.000 HD
BRANCH  11  15
ATOM     15  C   UNL     1      -3.776  12.215  19.675  0.00  0.00    +0.000 A 
ATOM     16  C   UNL     1      -4.927  11.937  18.918  0.00  0.00    +0.000 A 
ATOM     17  C   UNL     1      -6.200  12.183  19.435  0.00  0.00    +0.000 A 
ATOM     18  C   UNL     1      -6.338  12.713  20.716  0.00  0.00    +0.000 A 
ATOM     19  C   UNL     1      -5.204  13.005  21.475  0.00  0.00    +0.000 A 
ATOM     20  C   UNL     1      -3.929  12.759  20.957  0.00  0.00    +0.000 A 
ENDBRANCH  11  15
ENDBRANCH   6   9
BRANCH   1  21
ATOM     21  C   UNL     1       2.677   6.362  19.890  0.00  0.00    +0.000 C 
BRANCH  21  28
ATOM     22  C   UNL     1       3.298   1.627  18.638  0.00  0.00    +0.000 C 
ATOM     23  C   UNL     1       3.405   3.081  18.217  0.00  0.00    +0.000 C 
ATOM     24  C   UNL     1       3.128   3.281  16.729  0.00  0.00    +0.000 C 
ATOM     25  N   UNL     1       4.680   3.643  18.589  0.00  0.00    +0.000 N 
ATOM     26  C   UNL     1       4.545   4.838  19.250  0.00  0.00    +0.000 C 
ATOM     27  O   UNL     1       5.495   5.448  19.709  0.00  0.00    +0.000 OA
ATOM     28  N   UNL     1       3.223   5.137  19.341  0.00  0.00    +0.000 N 
ATOM     29  C   UNL     1       2.483   4.040  18.990  0.00  0.00    +0.000 C 
ATOM     30  O   UNL     1       1.292   3.859  19.199  0.00  0.00    +0.000 OA
ATOM     31  H   UNL     1       5.588   3.222  18.451  0.00  0.00    +0.000 HD
ENDBRANCH  21  28
ENDBRANCH   1  21
TORSDOF 4
ENDMDL
MODEL 9
REMARK VINA RESULT:      -7.6      1.020      1.642
REMARK  Name = 
REMARK  6 active torsions:
REMARK  status: ('A' for Active; 'I' for Inactive)
REMARK    1  A    between atoms: C_1  and  C_2
REMARK    2  A    between atoms: C_2  and  C_3
REMARK    3  A    between atoms: N_7  and  C_8
REMARK    4  A    between atoms: C_8  and  C_9
REMARK    5  A    between atoms: C_14  and  C_15
REMARK    6  A    between atoms: C_17  and  C_18
REMARK                            x       y       z     vdW  Elec       q    Type
REMARK                         _______ _______ _______ _____ _____    ______ ____
ROOT
ATOM      1  C   UNL     1       2.614   6.309  19.186  0.00  0.00    +0.000 C 
ATOM      2  O   UNL     1       2.549   5.567  20.171  0.00  0.00    +0.000 OA
ATOM      3  N   UNL     1       2.197   7.634  19.258  0.00  0.00    +0.000 N 
ATOM      4  C   UNL     1       1.892   8.223  20.561  0.00  0.00    +0.000 C 
ATOM      5  C   UNL     1       0.479   8.809  20.583  0.00  0.00    +0.000 C 
ATOM      6  C   UNL     1       0.235   9.794  19.429  0.00  0.00    +0.000 C 
ATOM      7  C   UNL     1       0.660   9.162  18.089  0.00  0.00    +0.000 C 
ATOM      8  C   UNL     1       2.072   8.566  18.139  0.00  0.00    +0.000 C 
ENDROOT
BRANCH   6   9
ATOM      9  C   UNL     1       0.934  11.095  19.664  0.00  0.00    +0.000 A 
ATOM     10  N   UNL     1       1.294  11.980  18.772  0.00  0.00    +0.000 NA
ATOM     11  C   UNL     1       1.893  12.985  19.498  0.00  0.00    +0.000 A 
ATOM     12  N   UNL     1       1.927  12.736  20.819  0.00  0.00    +0.000 NA
ATOM     13  N   UNL     1       1.308  11.547  20.897  0.00  0.00    +0.000 N 
ATOM     14  H   UNL     1       1.186  11.110  21.804  0.00  0.00    +0.000 HD
BRANCH  11  15
ATOM     15  C   UNL     1       2.410  14.188  18.855  0.00  0.00    +0.000 A 
ATOM     16  C   UNL     1       3.667  14.163  18.227  0.00  0.00    +0.000 A 
ATOM     17  C   UNL     1       4.167  15.297  17.585  0.00  0.00    +0.000 A 
ATOM     18  C   UNL     1       3.418  16.471  17.566  0.00  0.00    +0.000 A 
ATOM     19  C   UNL     1       2.173  16.514  18.195  0.00  0.00    +0.000 A 
ATOM     20  C   UNL     1       1.672  15.378  18.839  0.00  0.00    +0.000 A 
ENDBRANCH  11  15
ENDBRANCH   6   9
BRANCH   1  21
ATOM     21  C   UNL     1       3.092   5.730  17.842  0.00  0.00    +0.000 C 
BRANCH  21  28
ATOM     22  C   UNL     1       7.859   6.643  18.752  0.00  0.00    +0.000 C 
ATOM     23  C   UNL     1       6.841   5.934  17.877  0.00  0.00    +0.000 C 
ATOM     24  C   UNL     1       7.354   4.595  17.352  0.00  0.00    +0.000 C 
ATOM     25  N   UNL     1       6.395   6.780  16.798  0.00  0.00    +0.000 N 
ATOM     26  C   UNL     1       5.026   6.820  16.705  0.00  0.00    +0.000 C 
ATOM     27  O   UNL     1       4.441   7.527  15.903  0.00  0.00    +0.000 OA
ATOM     28  N   UNL     1       4.501   6.023  17.672  0.00  0.00    +0.000 N 
ATOM     29  C   UNL     1       5.486   5.673  18.557  0.00  0.00    +0.000 C 
ATOM     30  O   UNL     1       5.335   5.191  19.670  0.00  0.00    +0.000 OA
ATOM     31  H   UNL     1       6.976   7.339  16.190  0.00  0.00    +0.000 HD
ENDBRANCH  21  28
ENDBRANCH   1  21
TORSDOF 4
ENDMDL
