MODEL 1
REMARK VINA RESULT:      -6.4      0.000      0.000
REMARK  Name = 
REMARK  6 active torsions:
REMARK  status: ('A' for Active; 'I' for Inactive)
REMARK    1  A    between atoms: C_1  and  N_2
REMARK    2  A    between atoms: N_2  and  C_3
REMARK    3  A    between atoms: C_3  and  C_4
REMARK    4  A    between atoms: C_7  and  C_9
REMARK    5  A    between atoms: N_23  and  C_24
REMARK    6  A    between atoms: C_24  and  C_25
REMARK                            x       y       z     vdW  Elec       q    Type
REMARK                         _______ _______ _______ _____ _____    ______ ____
ROOT
ATOM      1  C   UNL     1      -0.039  12.123  20.026  0.00  0.00    +0.000 C 
ATOM      2  C   UNL     1       0.606  12.391  18.658  0.00  0.00    +0.000 C 
ATOM      3  C   UNL     1       2.021  12.895  18.897  0.00  0.00    +0.000 C 
ATOM      4  C   UNL     1       1.991  13.156  20.373  0.00  0.00    +0.000 C 
ATOM      5  O   UNL     1       2.976  13.333  21.072  0.00  0.00    +0.000 OA
ATOM      6  N   UNL     1       0.648  13.194  20.736  0.00  0.00    +0.000 N 
ATOM      7  C   UNL     1      -0.037  14.412  20.896  0.00  0.00    +0.000 A 
ATOM      8  C   UNL     1       0.680  15.608  21.032  0.00  0.00    +0.000 A 
ATOM      9  C   UNL     1      -0.005  16.818  21.041  0.00  0.00    +0.000 A 
ATOM     10  C   UNL     1      -1.398  16.827  21.001  0.00  0.00    +0.000 A 
ATOM     11  C   UNL     1      -2.105  15.630  20.918  0.00  0.00    +0.000 A 
ATOM     12  C   UNL     1      -1.430  14.414  20.818  0.00  0.00    +0.000 A 
ATOM     13  C   UNL     1      -2.196  13.173  20.482  0.00  0.00    +0.000 C 
ATOM     14  O   UNL     1      -3.407  13.129  20.666  0.00  0.00    +0.000 OA
ATOM     15  N   UNL     1      -1.486  12.146  19.862  0.00  0.00    +0.000 N 
ENDROOT
BRANCH   1  18
ATOM     16  C   UNL     1       1.262   9.344  22.391  0.00  0.00    +0.000 C 
ATOM     17  N   UNL     1       0.538   9.836  21.198  0.00  0.00    +0.000 N 
ATOM     18  C   UNL     1       0.102  11.139  21.293  0.00  0.00    +0.000 C 
ATOM     19  O   UNL     1      -0.152  11.592  22.428  0.00  0.00    +0.000 OA
BRANCH  17  20
ATOM     20  C   UNL     1       0.607   9.157  19.928  0.00  0.00    +0.000 C 
BRANCH  20  21
ATOM     21  C   UNL     1       1.885   8.959  19.177  0.00  0.00    +0.000 C 
ATOM     22  C   UNL     1       2.030   8.955  17.677  0.00  0.00    +0.000 C 
ATOM     23  C   UNL     1       2.379   7.725  18.468  0.00  0.00    +0.000 C 
ENDBRANCH  20  21
ENDBRANCH  17  20
ENDBRANCH   1  18
BRANCH  15  24
ATOM     24  C   UNL     1      -2.161  10.865  19.491  0.00  0.00    +0.000 C 
BRANCH  24  25
ATOM     25  C   UNL     1      -2.692  10.771  18.061  0.00  0.00    +0.000 A 
ATOM     26  C   UNL     1      -3.831  11.471  17.636  0.00  0.00    +0.000 A 
ATOM     27  C   UNL     1      -4.287  11.379  16.306  0.00  0.00    +0.000 A 
ATOM     28  C   UNL     1      -3.590  10.620  15.358  0.00  0.00    +0.000 A 
ATOM     29  C   UNL     1      -2.444   9.962  15.767  0.00  0.00    +0.000 A 
ATOM     30  C   UNL     1      -1.989  10.041  17.099  0.00  0.00    +0.000 A 
ENDBRANCH  24  25
ENDBRANCH  15  24
TORSDOF 5
ENDMDL
MODEL 2
REMARK VINA RESULT:      -6.1      3.068      6.184
REMARK  Name = 
REMARK  6 active torsions:
REMARK  status: ('A' for Active; 'I' for Inactive)
REMARK    1  A    between atoms: C_1  and  N_2
REMARK    2  A    between atoms: N_2  and  C_3
REMARK    3  A    between atoms: C_3  and  C_4
REMARK    4  A    between atoms: C_7  and  C_9
REMARK    5  A    between atoms: N_23  and  C_24
REMARK    6  A    between atoms: C_24  and  C_25
REMARK                            x       y       z     vdW  Elec       q    Type
REMARK                         _______ _______ _______ _____ _____    ______ ____
ROOT
ATOM      1  C   UNL     1      -1.997  12.781  21.438  0.00  0.00    +0.000 C 
ATOM      2  C   UNL     1      -1.995  11.630  22.456  0.00  0.00    +0.000 C 
ATOM      3  C   UNL     1      -0.570  11.112  22.576  0.00  0.00    +0.000 C 
ATOM      4  C   UNL     1       0.087  11.799  21.417  0.00  0.00    +0.000 C 
ATOM      5  O   UNL     1       1.293  11.892  21.252  0.00  0.00    +0.000 OA
ATOM      6  N   UNL     1      -0.941  12.241  20.591  0.00  0.00    +0.000 N 
ATOM      7  C   UNL     1      -1.330  11.520  19.448  0.00  0.00    +0.000 A 
ATOM      8  C   UNL     1      -0.485  10.534  18.919  0.00  0.00    +0.000 A 
ATOM      9  C   UNL     1      -0.942   9.728  17.882  0.00  0.00    +0.000 A 
ATOM     10  C   UNL     1      -2.196   9.962  17.321  0.00  0.00    +0.000 A 
ATOM     11  C   UNL     1      -3.008  10.979  17.820  0.00  0.00    +0.000 A 
ATOM     12  C   UNL     1      -2.602  11.736  18.917  0.00  0.00    +0.000 A 
ATOM     13  C   UNL     1      -3.583  12.646  19.587  0.00  0.00    +0.000 C 
ATOM     14  O   UNL     1      -4.583  13.021  18.985  0.00  0.00    +0.000 OA
ATOM     15  N   UNL     1      -3.352  12.940  20.929  0.00  0.00    +0.000 N 
ENDROOT
BRANCH   1  18
ATOM     16  C   UNL     1       0.168  15.966  21.860  0.00  0.00    +0.000 C 
ATOM     17  N   UNL     1      -0.880  15.011  22.284  0.00  0.00    +0.000 N 
ATOM     18  C   UNL     1      -1.432  14.278  21.257  0.00  0.00    +0.000 C 
ATOM     19  O   UNL     1      -1.452  14.786  20.117  0.00  0.00    +0.000 OA
BRANCH  17  20
ATOM     20  C   UNL     1      -1.045  14.618  23.662  0.00  0.00    +0.000 C 
BRANCH  20  21
ATOM     21  C   UNL     1      -1.844  15.412  24.645  0.00  0.00    +0.000 C 
ATOM     22  C   UNL     1      -3.011  14.895  25.447  0.00  0.00    +0.000 C 
ATOM     23  C   UNL     1      -3.210  16.023  24.473  0.00  0.00    +0.000 C 
ENDBRANCH  20  21
ENDBRANCH  17  20
ENDBRANCH   1  18
BRANCH  15  24
ATOM     24  C   UNL     1      -4.274  13.842  21.685  0.00  0.00    +0.000 C 
BRANCH  24  25
ATOM     25  C   UNL     1      -5.527  13.193  22.270  0.00  0.00    +0.000 A 
ATOM     26  C   UNL     1      -6.524  12.627  21.464  0.00  0.00    +0.000 A 
ATOM     27  C   UNL     1      -7.662  12.018  22.032  0.00  0.00    +0.000 A 
ATOM     28  C   UNL     1      -7.806  11.922  23.421  0.00  0.00    +0.000 A 
ATOM     29  C   UNL     1      -6.803  12.444  24.217  0.00  0.00    +0.000 A 
ATOM     30  C   UNL     1      -5.668  13.064  23.654  0.00  0.00    +0.000 A 
ENDBRANCH  24  25
ENDBRANCH  15  24
TORSDOF 5
ENDMDL
MODEL 3
REMARK VINA RESULT:      -6.1      3.270      6.358
REMARK  Name = 
REMARK  6 active torsions:
REMARK  status: ('A' for Active; 'I' for Inactive)
REMARK    1  A    between atoms: C_1  and  N_2
REMARK    2  A    between atoms: N_2  and  C_3
REMARK    3  A    between atoms: C_3  and  C_4
REMARK    4  A    between atoms: C_7  and  C_9
REMARK    5  A    between atoms: N_23  and  C_24
REMARK    6  A    between atoms: C_24  and  C_25
REMARK                            x       y       z     vdW  Elec       q    Type
REMARK                         _______ _______ _______ _____ _____    ______ ____
ROOT
ATOM      1  C   UNL     1      -3.450  13.515  22.467  0.00  0.00    +0.000 C 
ATOM      2  C   UNL     1      -3.802  12.494  23.559  0.00  0.00    +0.000 C 
ATOM      3  C   UNL     1      -5.005  13.022  24.326  0.00  0.00    +0.000 C 
ATOM      4  C   UNL     1      -5.078  14.430  23.817  0.00  0.00    +0.000 C 
ATOM      5  O   UNL     1      -6.035  15.174  23.954  0.00  0.00    +0.000 OA
ATOM      6  N   UNL     1      -3.847  14.696  23.224  0.00  0.00    +0.000 N 
ATOM      7  C   UNL     1      -2.839  15.401  23.904  0.00  0.00    +0.000 A 
ATOM      8  C   UNL     1      -3.154  16.147  25.048  0.00  0.00    +0.000 A 
ATOM      9  C   UNL     1      -2.129  16.718  25.795  0.00  0.00    +0.000 A 
ATOM     10  C   UNL     1      -0.810  16.617  25.355  0.00  0.00    +0.000 A 
ATOM     11  C   UNL     1      -0.512  15.917  24.188  0.00  0.00    +0.000 A 
ATOM     12  C   UNL     1      -1.517  15.264  23.477  0.00  0.00    +0.000 A 
ATOM     13  C   UNL     1      -1.147  14.320  22.377  0.00  0.00    +0.000 C 
ATOM     14  O   UNL     1      -0.044  14.397  21.847  0.00  0.00    +0.000 OA
ATOM     15  N   UNL     1      -2.061  13.311  22.080  0.00  0.00    +0.000 N 
ENDROOT
BRANCH   1  18
ATOM     16  C   UNL     1      -5.948  14.562  19.698  0.00  0.00    +0.000 C 
ATOM     17  N   UNL     1      -5.110  13.582  20.423  0.00  0.00    +0.000 N 
ATOM     18  C   UNL     1      -4.050  14.136  21.108  0.00  0.00    +0.000 C 
ATOM     19  O   UNL     1      -3.562  15.199  20.675  0.00  0.00    +0.000 OA
BRANCH  17  20
ATOM     20  C   UNL     1      -5.563  12.241  20.697  0.00  0.00    +0.000 C 
BRANCH  20  21
ATOM     21  C   UNL     1      -6.781  11.647  20.063  0.00  0.00    +0.000 C 
ATOM     22  C   UNL     1      -7.281  10.241  20.272  0.00  0.00    +0.000 C 
ATOM     23  C   UNL     1      -6.866  10.694  18.900  0.00  0.00    +0.000 C 
ENDBRANCH  20  21
ENDBRANCH  17  20
ENDBRANCH   1  18
BRANCH  15  24
ATOM     24  C   UNL     1      -1.783  12.321  20.995  0.00  0.00    +0.000 C 
BRANCH  24  25
ATOM     25  C   UNL     1      -0.905  11.130  21.376  0.00  0.00    +0.000 A 
ATOM     26  C   UNL     1      -0.801  10.665  22.694  0.00  0.00    +0.000 A 
ATOM     27  C   UNL     1       0.002   9.552  23.013  0.00  0.00    +0.000 A 
ATOM     28  C   UNL     1       0.687   8.850  22.013  0.00  0.00    +0.000 A 
ATOM     29  C   UNL     1       0.552   9.283  20.707  0.00  0.00    +0.000 A 
ATOM     30  C   UNL     1      -0.242  10.402  20.383  0.00  0.00    +0.000 A 
ENDBRANCH  24  25
ENDBRANCH  15  24
TORSDOF 5
ENDMDL
MODEL 4
REMARK VINA RESULT:      -5.9      2.594      5.163
REMARK  Name = 
REMARK  6 active torsions:
REMARK  status: ('A' for Active; 'I' for Inactive)
REMARK    1  A    between atoms: C_1  and  N_2
REMARK    2  A    between atoms: N_2  and  C_3
REMARK    3  A    between atoms: C_3  and  C_4
REMARK    4  A    between atoms: C_7  and  C_9
REMARK    5  A    between atoms: N_23  and  C_24
REMARK    6  A    between atoms: C_24  and  C_25
REMARK                            x       y       z     vdW  Elec       q    Type
REMARK                         _______ _______ _______ _____ _____    ______ ____
ROOT
ATOM      1  C   UNL     1      -1.786  13.555  21.442  0.00  0.00    +0.000 C 
ATOM      2  C   UNL     1      -0.686  12.605  21.938  0.00  0.00    +0.000 C 
ATOM      3  C   UNL     1      -1.290  11.698  22.999  0.00  0.00    +0.000 C 
ATOM      4  C   UNL     1      -2.605  12.376  23.245  0.00  0.00    +0.000 C 
ATOM      5  O   UNL     1      -3.549  11.875  23.834  0.00  0.00    +0.000 OA
ATOM      6  N   UNL     1      -2.490  13.657  22.715  0.00  0.00    +0.000 N 
ATOM      7  C   UNL     1      -2.202  14.768  23.528  0.00  0.00    +0.000 A 
ATOM      8  C   UNL     1      -2.362  14.679  24.918  0.00  0.00    +0.000 A 
ATOM      9  C   UNL     1      -1.935  15.730  25.722  0.00  0.00    +0.000 A 
ATOM     10  C   UNL     1      -1.435  16.893  25.139  0.00  0.00    +0.000 A 
ATOM     11  C   UNL     1      -1.328  16.992  23.753  0.00  0.00    +0.000 A 
ATOM     12  C   UNL     1      -1.667  15.913  22.938  0.00  0.00    +0.000 A 
ATOM     13  C   UNL     1      -1.314  15.949  21.484  0.00  0.00    +0.000 C 
ATOM     14  O   UNL     1      -1.091  17.021  20.933  0.00  0.00    +0.000 OA
ATOM     15  N   UNL     1      -1.151  14.721  20.846  0.00  0.00    +0.000 N 
ENDROOT
BRANCH   1  18
ATOM     16  C   UNL     1      -4.987  12.259  19.685  0.00  0.00    +0.000 C 
ATOM     17  N   UNL     1      -3.532  12.513  19.767  0.00  0.00    +0.000 N 
ATOM     18  C   UNL     1      -3.178  13.525  20.631  0.00  0.00    +0.000 C 
ATOM     19  O   UNL     1      -3.999  14.443  20.829  0.00  0.00    +0.000 OA
BRANCH  17  20
ATOM     20  C   UNL     1      -2.561  11.562  19.285  0.00  0.00    +0.000 C 
BRANCH  20  21
ATOM     21  C   UNL     1      -2.408  11.215  17.838  0.00  0.00    +0.000 C 
ATOM     22  C   UNL     1      -3.201  10.167  17.099  0.00  0.00    +0.000 C 
ATOM     23  C   UNL     1      -1.709  10.031  17.223  0.00  0.00    +0.000 C 
ENDBRANCH  20  21
ENDBRANCH  17  20
ENDBRANCH   1  18
BRANCH  15  24
ATOM     24  C   UNL     1      -0.802  14.653  19.394  0.00  0.00    +0.000 C 
BRANCH  24  25
ATOM     25  C   UNL     1       0.663  14.372  19.064  0.00  0.00    +0.000 A 
ATOM     26  C   UNL     1       1.109  13.110  18.645  0.00  0.00    +0.000 A 
ATOM     27  C   UNL     1       2.464  12.884  18.330  0.00  0.00    +0.000 A 
ATOM     28  C   UNL     1       3.397  13.926  18.383  0.00  0.00    +0.000 A 
ATOM     29  C   UNL     1       2.951  15.180  18.756  0.00  0.00    +0.000 A 
ATOM     30  C   UNL     1       1.599  15.410  19.084  0.00  0.00    +0.000 A 
ENDBRANCH  24  25
ENDBRANCH  15  24
TORSDOF 5
ENDMDL
MODEL 5
REMARK VINA RESULT:      -5.9      5.747      9.961
REMARK  Name = 
REMARK  6 active torsions:
REMARK  status: ('A' for Active; 'I' for Inactive)
REMARK    1  A    between atoms: C_1  and  N_2
REMARK    2  A    between atoms: N_2  and  C_3
REMARK    3  A    between atoms: C_3  and  C_4
REMARK    4  A    between atoms: C_7  and  C_9
REMARK    5  A    between atoms: N_23  and  C_24
REMARK    6  A    between atoms: C_24  and  C_25
REMARK                            x       y       z     vdW  Elec       q    Type
REMARK                         _______ _______ _______ _____ _____    ______ ____
ROOT
ATOM      1  C   UNL     1       3.825   4.180  18.214  0.00  0.00    +0.000 C 
ATOM      2  C   UNL     1       2.475   4.053  17.492  0.00  0.00    +0.000 C 
ATOM      3  C   UNL     1       2.374   2.646  16.926  0.00  0.00    +0.000 C 
ATOM      4  C   UNL     1       3.781   2.158  17.108  0.00  0.00    +0.000 C 
ATOM      5  O   UNL     1       4.131   0.992  17.033  0.00  0.00    +0.000 OA
ATOM      6  N   UNL     1       4.561   3.289  17.325  0.00  0.00    +0.000 N 
ATOM      7  C   UNL     1       5.308   3.879  16.288  0.00  0.00    +0.000 A 
ATOM      8  C   UNL     1       5.561   3.162  15.111  0.00  0.00    +0.000 A 
ATOM      9  C   UNL     1       6.170   3.804  14.038  0.00  0.00    +0.000 A 
ATOM     10  C   UNL     1       6.600   5.122  14.172  0.00  0.00    +0.000 A 
ATOM     11  C   UNL     1       6.390   5.811  15.364  0.00  0.00    +0.000 A 
ATOM     12  C   UNL     1       5.701   5.211  16.417  0.00  0.00    +0.000 A 
ATOM     13  C   UNL     1       5.271   6.043  17.585  0.00  0.00    +0.000 C 
ATOM     14  O   UNL     1       5.824   7.113  17.813  0.00  0.00    +0.000 OA
ATOM     15  N   UNL     1       4.167   5.592  18.304  0.00  0.00    +0.000 N 
ENDROOT
BRANCH   1  18
ATOM     16  C   UNL     1       5.078   1.759  20.967  0.00  0.00    +0.000 C 
ATOM     17  N   UNL     1       4.074   2.649  20.343  0.00  0.00    +0.000 N 
ATOM     18  C   UNL     1       4.604   3.601  19.500  0.00  0.00    +0.000 C 
ATOM     19  O   UNL     1       5.764   4.002  19.721  0.00  0.00    +0.000 OA
BRANCH  17  20
ATOM     20  C   UNL     1       2.670   2.322  20.321  0.00  0.00    +0.000 C 
BRANCH  20  21
ATOM     21  C   UNL     1       1.631   3.145  21.012  0.00  0.00    +0.000 C 
ATOM     22  C   UNL     1       0.707   4.132  20.344  0.00  0.00    +0.000 C 
ATOM     23  C   UNL     1       1.682   4.603  21.388  0.00  0.00    +0.000 C 
ENDBRANCH  20  21
ENDBRANCH  17  20
ENDBRANCH   1  18
BRANCH  15  24
ATOM     24  C   UNL     1       3.663   6.352  19.489  0.00  0.00    +0.000 C 
BRANCH  24  25
ATOM     25  C   UNL     1       2.641   7.450  19.204  0.00  0.00    +0.000 A 
ATOM     26  C   UNL     1       1.866   8.036  20.215  0.00  0.00    +0.000 A 
ATOM     27  C   UNL     1       0.943   9.061  19.925  0.00  0.00    +0.000 A 
ATOM     28  C   UNL     1       0.805   9.555  18.622  0.00  0.00    +0.000 A 
ATOM     29  C   UNL     1       1.598   9.006  17.631  0.00  0.00    +0.000 A 
ATOM     30  C   UNL     1       2.515   7.973  17.913  0.00  0.00    +0.000 A 
ENDBRANCH  24  25
ENDBRANCH  15  24
TORSDOF 5
ENDMDL
MODEL 6
REMARK VINA RESULT:      -5.9      2.943      6.088
REMARK  Name = 
REMARK  6 active torsions:
REMARK  status: ('A' for Active; 'I' for Inactive)
REMARK    1  A    between atoms: C_1  and  N_2
REMARK    2  A    between atoms: N_2  and  C_3
REMARK    3  A    between atoms: C_3  and  C_4
REMARK    4  A    between atoms: C_7  and  C_9
REMARK    5  A    between atoms: N_23  and  C_24
REMARK    6  A    between atoms: C_24  and  C_25
REMARK                            x       y       z     vdW  Elec       q    Type
REMARK                         _______ _______ _______ _____ _____    ______ ____
ROOT
ATOM      1  C   UNL     1      -2.342  13.194  20.998  0.00  0.00    +0.000 C 
ATOM      2  C   UNL     1      -2.527  12.397  22.298  0.00  0.00    +0.000 C 
ATOM      3  C   UNL     1      -1.244  12.510  23.106  0.00  0.00    +0.000 C 
ATOM      4  C   UNL     1      -0.317  13.114  22.095  0.00  0.00    +0.000 C 
ATOM      5  O   UNL     1       0.762  13.625  22.353  0.00  0.00    +0.000 OA
ATOM      6  N   UNL     1      -0.916  12.926  20.853  0.00  0.00    +0.000 N 
ATOM      7  C   UNL     1      -0.536  11.872  20.004  0.00  0.00    +0.000 A 
ATOM      8  C   UNL     1       0.672  11.196  20.222  0.00  0.00    +0.000 A 
ATOM      9  C   UNL     1       0.966  10.063  19.470  0.00  0.00    +0.000 A 
ATOM     10  C   UNL     1       0.103   9.662  18.453  0.00  0.00    +0.000 A 
ATOM     11  C   UNL     1      -1.071  10.371  18.209  0.00  0.00    +0.000 A 
ATOM     12  C   UNL     1      -1.424  11.454  19.012  0.00  0.00    +0.000 A 
ATOM     13  C   UNL     1      -2.795  12.042  18.894  0.00  0.00    +0.000 C 
ATOM     14  O   UNL     1      -3.458  11.856  17.880  0.00  0.00    +0.000 OA
ATOM     15  N   UNL     1      -3.296  12.699  20.016  0.00  0.00    +0.000 N 
ENDROOT
BRANCH   1  18
ATOM     16  C   UNL     1      -1.762  17.024  21.002  0.00  0.00    +0.000 C 
ATOM     17  N   UNL     1      -2.584  15.810  21.195  0.00  0.00    +0.000 N 
ATOM     18  C   UNL     1      -2.148  14.709  20.489  0.00  0.00    +0.000 C 
ATOM     19  O   UNL     1      -1.532  14.903  19.421  0.00  0.00    +0.000 OA
BRANCH  17  20
ATOM     20  C   UNL     1      -3.515  15.681  22.288  0.00  0.00    +0.000 C 
BRANCH  20  21
ATOM     21  C   UNL     1      -3.131  15.904  23.716  0.00  0.00    +0.000 C 
ATOM     22  C   UNL     1      -3.363  14.935  24.848  0.00  0.00    +0.000 C 
ATOM     23  C   UNL     1      -4.009  16.293  24.877  0.00  0.00    +0.000 C 
ENDBRANCH  20  21
ENDBRANCH  17  20
ENDBRANCH   1  18
BRANCH  15  24
ATOM     24  C   UNL     1      -4.654  13.322  19.996  0.00  0.00    +0.000 C 
BRANCH  24  25
ATOM     25  C   UNL     1      -5.772  12.531  20.673  0.00  0.00    +0.000 A 
ATOM     26  C   UNL     1      -6.254  12.854  21.949  0.00  0.00    +0.000 A 
ATOM     27  C   UNL     1      -7.298  12.118  22.542  0.00  0.00    +0.000 A 
ATOM     28  C   UNL     1      -7.917  11.066  21.854  0.00  0.00    +0.000 A 
ATOM     29  C   UNL     1      -7.469  10.773  20.578  0.00  0.00    +0.000 A 
ATOM     30  C   UNL     1      -6.417  11.500  19.984  0.00  0.00    +0.000 A 
ENDBRANCH  24  25
ENDBRANCH  15  24
TORSDOF 5
ENDMDL
MODEL 7
REMARK VINA RESULT:      -5.8      3.194      4.164
REMARK  Name = 
REMARK  6 active torsions:
REMARK  status: ('A' for Active; 'I' for Inactive)
REMARK    1  A    between atoms: C_1  and  N_2
REMARK    2  A    between atoms: N_2  and  C_3
REMARK    3  A    between atoms: C_3  and  C_4
REMARK    4  A    between atoms: C_7  and  C_9
REMARK    5  A    between atoms: N_23  and  C_24
REMARK    6  A    between atoms: C_24  and  C_25
REMARK                            x       y       z     vdW  Elec       q    Type
REMARK                         _______ _______ _______ _____ _____    ______ ____
ROOT
ATOM      1  C   UNL     1      -3.074  13.766  21.920  0.00  0.00    +0.000 C 
ATOM      2  C   UNL     1      -2.560  14.744  20.852  0.00  0.00    +0.000 C 
ATOM      3  C   UNL     1      -1.241  15.321  21.339  0.00  0.00    +0.000 C 
ATOM      4  C   UNL     1      -1.232  14.862  22.767  0.00  0.00    +0.000 C 
ATOM      5  O   UNL     1      -0.254  14.868  23.497  0.00  0.00    +0.000 OA
ATOM      6  N   UNL     1      -2.540  14.492  23.066  0.00  0.00    +0.000 N 
ATOM      7  C   UNL     1      -3.412  15.356  23.751  0.00  0.00    +0.000 A 
ATOM      8  C   UNL     1      -2.902  16.460  24.447  0.00  0.00    +0.000 A 
ATOM      9  C   UNL     1      -3.781  17.388  24.995  0.00  0.00    +0.000 A 
ATOM     10  C   UNL     1      -5.155  17.169  24.923  0.00  0.00    +0.000 A 
ATOM     11  C   UNL     1      -5.652  16.041  24.273  0.00  0.00    +0.000 A 
ATOM     12  C   UNL     1      -4.787  15.149  23.641  0.00  0.00    +0.000 A 
ATOM     13  C   UNL     1      -5.348  14.089  22.745  0.00  0.00    +0.000 C 
ATOM     14  O   UNL     1      -6.522  13.753  22.852  0.00  0.00    +0.000 OA
ATOM     15  N   UNL     1      -4.510  13.607  21.742  0.00  0.00    +0.000 N 
ENDROOT
BRANCH   1  18
ATOM     16  C   UNL     1      -1.037  10.696  23.119  0.00  0.00    +0.000 C 
ATOM     17  N   UNL     1      -1.726  11.509  22.093  0.00  0.00    +0.000 N 
ATOM     18  C   UNL     1      -2.697  12.351  22.591  0.00  0.00    +0.000 C 
ATOM     19  O   UNL     1      -3.280  12.018  23.642  0.00  0.00    +0.000 OA
BRANCH  17  20
ATOM     20  C   UNL     1      -1.190  11.682  20.766  0.00  0.00    +0.000 C 
BRANCH  20  21
ATOM     21  C   UNL     1      -0.854  10.534  19.868  0.00  0.00    +0.000 C 
ATOM     22  C   UNL     1       0.467   9.809  19.828  0.00  0.00    +0.000 C 
ATOM     23  C   UNL     1      -0.027  10.536  18.608  0.00  0.00    +0.000 C 
ENDBRANCH  20  21
ENDBRANCH  17  20
ENDBRANCH   1  18
BRANCH  15  24
ATOM     24  C   UNL     1      -4.978  12.545  20.800  0.00  0.00    +0.000 C 
BRANCH  24  25
ATOM     25  C   UNL     1      -5.619  13.029  19.500  0.00  0.00    +0.000 A 
ATOM     26  C   UNL     1      -6.211  14.295  19.382  0.00  0.00    +0.000 A 
ATOM     27  C   UNL     1      -6.779  14.722  18.165  0.00  0.00    +0.000 A 
ATOM     28  C   UNL     1      -6.730  13.911  17.025  0.00  0.00    +0.000 A 
ATOM     29  C   UNL     1      -6.111  12.678  17.130  0.00  0.00    +0.000 A 
ATOM     30  C   UNL     1      -5.550  12.241  18.348  0.00  0.00    +0.000 A 
ENDBRANCH  24  25
ENDBRANCH  15  24
TORSDOF 5
ENDMDL
MODEL 8
REMARK VINA RESULT:      -5.8      2.731      3.721
REMARK  Name = 
REMARK  6 active torsions:
REMARK  status: ('A' for Active; 'I' for Inactive)
REMARK    1  A    between atoms: C_1  and  N_2
REMARK    2  A    between atoms: N_2  and  C_3
REMARK    3  A    between atoms: C_3  and  C_4
REMARK    4  A    between atoms: C_7  and  C_9
REMARK    5  A    between atoms: N_23  and  C_24
REMARK    6  A    between atoms: C_24  and  C_25
REMARK                            x       y       z     vdW  Elec       q    Type
REMARK                         _______ _______ _______ _____ _____    ______ ____
ROOT
ATOM      1  C   UNL     1      -1.844  13.383  21.652  0.00  0.00    +0.000 C 
ATOM      2  C   UNL     1      -1.708  14.491  20.598  0.00  0.00    +0.000 C 
ATOM      3  C   UNL     1      -0.261  14.958  20.590  0.00  0.00    +0.000 C 
ATOM      4  C   UNL     1       0.263  14.298  21.829  0.00  0.00    +0.000 C 
ATOM      5  O   UNL     1       1.445  14.173  22.107  0.00  0.00    +0.000 OA
ATOM      6  N   UNL     1      -0.850  13.922  22.573  0.00  0.00    +0.000 N 
ATOM      7  C   UNL     1      -1.316  14.701  23.648  0.00  0.00    +0.000 A 
ATOM      8  C   UNL     1      -0.488  15.679  24.215  0.00  0.00    +0.000 A 
ATOM      9  C   UNL     1      -1.008  16.541  25.175  0.00  0.00    +0.000 A 
ATOM     10  C   UNL     1      -2.315  16.369  25.626  0.00  0.00    +0.000 A 
ATOM     11  C   UNL     1      -3.115  15.361  25.093  0.00  0.00    +0.000 A 
ATOM     12  C   UNL     1      -2.638  14.547  24.067  0.00  0.00    +0.000 A 
ATOM     13  C   UNL     1      -3.586  13.642  23.344  0.00  0.00    +0.000 C 
ATOM     14  O   UNL     1      -4.649  13.324  23.864  0.00  0.00    +0.000 OA
ATOM     15  N   UNL     1      -3.245  13.288  22.040  0.00  0.00    +0.000 N 
ENDROOT
BRANCH   1  18
ATOM     16  C   UNL     1       0.213  10.103  21.520  0.00  0.00    +0.000 C 
ATOM     17  N   UNL     1      -0.768  11.073  20.986  0.00  0.00    +0.000 N 
ATOM     18  C   UNL     1      -1.351  11.877  21.941  0.00  0.00    +0.000 C 
ATOM     19  O   UNL     1      -1.461  11.428  23.100  0.00  0.00    +0.000 OA
BRANCH  17  20
ATOM     20  C   UNL     1      -0.833  11.402  19.584  0.00  0.00    +0.000 C 
BRANCH  20  21
ATOM     21  C   UNL     1      -1.916  10.904  18.680  0.00  0.00    +0.000 C 
ATOM     22  C   UNL     1      -1.714  10.022  17.474  0.00  0.00    +0.000 C 
ATOM     23  C   UNL     1      -2.297  11.398  17.309  0.00  0.00    +0.000 C 
ENDBRANCH  20  21
ENDBRANCH  17  20
ENDBRANCH   1  18
BRANCH  15  24
ATOM     24  C   UNL     1      -4.125  12.386  21.237  0.00  0.00    +0.000 C 
BRANCH  24  25
ATOM     25  C   UNL     1      -5.055  13.066  20.233  0.00  0.00    +0.000 A 
ATOM     26  C   UNL     1      -5.494  14.388  20.394  0.00  0.00    +0.000 A 
ATOM     27  C   UNL     1      -6.337  14.997  19.443  0.00  0.00    +0.000 A 
ATOM     28  C   UNL     1      -6.725  14.312  18.285  0.00  0.00    +0.000 A 
ATOM     29  C   UNL     1      -6.259  13.022  18.105  0.00  0.00    +0.000 A 
ATOM     30  C   UNL     1      -5.425  12.404  19.059  0.00  0.00    +0.000 A 
ENDBRANCH  24  25
ENDBRANCH  15  24
TORSDOF 5
ENDMDL
MODEL 9
REMARK VINA RESULT:      -5.8      3.149      6.488
REMARK  Name = 
REMARK  6 active torsions:
REMARK  status: ('A' for Active; 'I' for Inactive)
REMARK    1  A    between atoms: C_1  and  N_2
REMARK    2  A    between atoms: N_2  and  C_3
REMARK    3  A    between atoms: C_3  and  C_4
REMARK    4  A    between atoms: C_7  and  C_9
REMARK    5  A    between atoms: N_23  and  C_24
REMARK    6  A    between atoms: C_24  and  C_25
REMARK                            x       y       z     vdW  Elec       q    Type
REMARK                         _______ _______ _______ _____ _____    ______ ____
ROOT
ATOM      1  C   UNL     1      -2.022  13.145  21.631  0.00  0.00    +0.000 C 
ATOM      2  C   UNL     1      -1.971  11.994  22.646  0.00  0.00    +0.000 C 
ATOM      3  C   UNL     1      -0.666  11.240  22.437  0.00  0.00    +0.000 C 
ATOM      4  C   UNL     1      -0.198  11.826  21.139  0.00  0.00    +0.000 C 
ATOM      5  O   UNL     1       0.932  11.717  20.691  0.00  0.00    +0.000 OA
ATOM      6  N   UNL     1      -1.304  12.450  20.570  0.00  0.00    +0.000 N 
ATOM      7  C   UNL     1      -2.069  11.824  19.569  0.00  0.00    +0.000 A 
ATOM      8  C   UNL     1      -1.552  10.719  18.879  0.00  0.00    +0.000 A 
ATOM      9  C   UNL     1      -2.371  10.019  18.000  0.00  0.00    +0.000 A 
ATOM     10  C   UNL     1      -3.664  10.471  17.747  0.00  0.00    +0.000 A 
ATOM     11  C   UNL     1      -4.153  11.600  18.400  0.00  0.00    +0.000 A 
ATOM     12  C   UNL     1      -3.376  12.260  19.351  0.00  0.00    +0.000 A 
ATOM     13  C   UNL     1      -4.002  13.311  20.213  0.00  0.00    +0.000 C 
ATOM     14  O   UNL     1      -5.039  13.859  19.857  0.00  0.00    +0.000 OA
ATOM     15  N   UNL     1      -3.413  13.539  21.454  0.00  0.00    +0.000 N 
ENDROOT
BRANCH   1  18
ATOM     16  C   UNL     1       0.599  15.998  21.611  0.00  0.00    +0.000 C 
ATOM     17  N   UNL     1      -0.525  15.237  22.199  0.00  0.00    +0.000 N 
ATOM     18  C   UNL     1      -1.274  14.528  21.284  0.00  0.00    +0.000 C 
ATOM     19  O   UNL     1      -1.335  14.960  20.116  0.00  0.00    +0.000 OA
BRANCH  17  20
ATOM     20  C   UNL     1      -0.606  14.960  23.612  0.00  0.00    +0.000 C 
BRANCH  20  21
ATOM     21  C   UNL     1      -1.050  15.976  24.616  0.00  0.00    +0.000 C 
ATOM     22  C   UNL     1      -2.166  15.794  25.613  0.00  0.00    +0.000 C 
ATOM     23  C   UNL     1      -2.257  16.877  24.574  0.00  0.00    +0.000 C 
ENDBRANCH  20  21
ENDBRANCH  17  20
ENDBRANCH   1  18
BRANCH  15  24
ATOM     24  C   UNL     1      -3.963  14.571  22.385  0.00  0.00    +0.000 C 
BRANCH  24  25
ATOM     25  C   UNL     1      -5.283  14.226  23.073  0.00  0.00    +0.000 A 
ATOM     26  C   UNL     1      -6.336  15.145  23.182  0.00  0.00    +0.000 A 
ATOM     27  C   UNL     1      -7.549  14.793  23.807  0.00  0.00    +0.000 A 
ATOM     28  C   UNL     1      -7.754  13.498  24.299  0.00  0.00    +0.000 A 
ATOM     29  C   UNL     1      -6.731  12.578  24.155  0.00  0.00    +0.000 A 
ATOM     30  C   UNL     1      -5.511  12.928  23.541  0.00  0.00    +0.000 A 
ENDBRANCH  24  25
ENDBRANCH  15  24
TORSDOF 5
ENDMDL
