MODEL 1
REMARK VINA RESULT:      -8.9      0.000      0.000
REMARK  Name = 
REMARK  4 active torsions:
REMARK  status: ('A' for Active; 'I' for Inactive)
REMARK    1  A    between atoms: C_1  and  C_2
REMARK    2  A    between atoms: C_6  and  N_7
REMARK    3  A    between atoms: C_9  and  C_10
REMARK    4  A    between atoms: C_21  and  C_22
REMARK                            x       y       z     vdW  Elec       q    Type
REMARK                         _______ _______ _______ _____ _____    ______ ____
ROOT
ATOM      1  C   UNL     1       4.916   4.881  19.311  0.00  0.00    +0.000 C 
ATOM      2  O   UNL     1       5.270   5.766  20.101  0.00  0.00    +0.000 OA
ATOM      3  N   UNL     1       3.726   4.123  19.599  0.00  0.00    +0.000 N 
ATOM      4  C   UNL     1       2.834   4.888  20.512  0.00  0.00    +0.000 C 
ATOM      5  C   UNL     1       2.214   5.994  19.664  0.00  0.00    +0.000 A 
ATOM      6  C   UNL     1       2.158   7.305  20.134  0.00  0.00    +0.000 A 
ATOM      7  C   UNL     1       2.183   8.349  19.213  0.00  0.00    +0.000 A 
ATOM      8  C   UNL     1       2.226   8.081  17.843  0.00  0.00    +0.000 A 
ATOM      9  C   UNL     1       2.095   6.775  17.377  0.00  0.00    +0.000 A 
ATOM     10  C   UNL     1       2.038   5.724  18.288  0.00  0.00    +0.000 A 
ATOM     11  C   UNL     1       1.954   4.290  17.823  0.00  0.00    +0.000 C 
ATOM     12  C   UNL     1       2.867   3.354  18.648  0.00  0.00    +0.000 C 
ENDROOT
BRANCH   1  15
ATOM     13  N   UNL     1       6.420   4.524  16.015  0.00  0.00    +0.000 N 
ATOM     14  C   UNL     1       5.308   4.714  16.804  0.00  0.00    +0.000 A 
ATOM     15  C   UNL     1       5.758   4.683  18.128  0.00  0.00    +0.000 A 
ATOM     16  N   UNL     1       7.107   4.503  18.109  0.00  0.00    +0.000 NA
ATOM     17  N   UNL     1       7.504   4.425  16.842  0.00  0.00    +0.000 NA
BRANCH  13  23
ATOM     18  C   UNL     1       5.184   2.579  11.493  0.00  0.00    +0.000 C 
ATOM     19  C   UNL     1       5.999   3.481  12.386  0.00  0.00    +0.000 A 
ATOM     20  C   UNL     1       7.005   4.267  11.800  0.00  0.00    +0.000 A 
ATOM     21  C   UNL     1       7.765   5.125  12.584  0.00  0.00    +0.000 A 
ATOM     22  C   UNL     1       7.539   5.206  13.959  0.00  0.00    +0.000 A 
ATOM     23  C   UNL     1       6.557   4.422  14.589  0.00  0.00    +0.000 A 
ATOM     24  C   UNL     1       5.777   3.562  13.786  0.00  0.00    +0.000 A 
ENDBRANCH  13  23
ENDBRANCH   1  15
BRANCH  12  25
ATOM     25  C   UNL     1       3.141   2.064  17.846  0.00  0.00    +0.000 C 
ATOM     26  N   UNL     1       4.017   1.157  18.362  0.00  0.00    +0.000 N 
ATOM     27  O   UNL     1       2.442   1.721  16.891  0.00  0.00    +0.000 OA
ATOM     28  H   UNL     1       4.846   1.516  18.830  0.00  0.00    +0.000 HD
ATOM     29  H   UNL     1       4.156   0.352  17.788  0.00  0.00    +0.000 HD
ENDBRANCH  12  25
TORSDOF 3
ENDMDL
MODEL 2
REMARK VINA RESULT:      -8.7      1.905      3.378
REMARK  Name = 
REMARK  4 active torsions:
REMARK  status: ('A' for Active; 'I' for Inactive)
REMARK    1  A    between atoms: C_1  and  C_2
REMARK    2  A    between atoms: C_6  and  N_7
REMARK    3  A    between atoms: C_9  and  C_10
REMARK    4  A    between atoms: C_21  and  C_22
REMARK                            x       y       z     vdW  Elec       q    Type
REMARK                         _______ _______ _______ _____ _____    ______ ____
ROOT
ATOM      1  C   UNL     1       3.549   5.963  18.309  0.00  0.00    +0.000 C 
ATOM      2  O   UNL     1       2.368   6.333  18.294  0.00  0.00    +0.000 OA
ATOM      3  N   UNL     1       4.116   5.490  19.545  0.00  0.00    +0.000 N 
ATOM      4  C   UNL     1       3.042   5.023  20.462  0.00  0.00    +0.000 C 
ATOM      5  C   UNL     1       2.557   3.692  19.897  0.00  0.00    +0.000 A 
ATOM      6  C   UNL     1       1.194   3.422  19.779  0.00  0.00    +0.000 A 
ATOM      7  C   UNL     1       0.765   2.565  18.768  0.00  0.00    +0.000 A 
ATOM      8  C   UNL     1       1.691   1.961  17.915  0.00  0.00    +0.000 A 
ATOM      9  C   UNL     1       3.057   2.088  18.155  0.00  0.00    +0.000 A 
ATOM     10  C   UNL     1       3.499   2.918  19.181  0.00  0.00    +0.000 A 
ATOM     11  C   UNL     1       4.972   3.128  19.438  0.00  0.00    +0.000 C 
ATOM     12  C   UNL     1       5.308   4.607  19.737  0.00  0.00    +0.000 C 
ENDROOT
BRANCH   1  15
ATOM     13  N   UNL     1       5.260   5.461  15.135  0.00  0.00    +0.000 N 
ATOM     14  C   UNL     1       4.632   4.945  16.246  0.00  0.00    +0.000 A 
ATOM     15  C   UNL     1       4.276   6.041  17.039  0.00  0.00    +0.000 A 
ATOM     16  N   UNL     1       4.667   7.172  16.392  0.00  0.00    +0.000 NA
ATOM     17  N   UNL     1       5.242   6.824  15.244  0.00  0.00    +0.000 NA
BRANCH  13  23
ATOM     18  C   UNL     1       5.319   2.027  11.399  0.00  0.00    +0.000 C 
ATOM     19  C   UNL     1       5.940   3.140  12.204  0.00  0.00    +0.000 A 
ATOM     20  C   UNL     1       7.235   3.566  11.866  0.00  0.00    +0.000 A 
ATOM     21  C   UNL     1       7.835   4.601  12.571  0.00  0.00    +0.000 A 
ATOM     22  C   UNL     1       7.158   5.220  13.624  0.00  0.00    +0.000 A 
ATOM     23  C   UNL     1       5.869   4.810  14.009  0.00  0.00    +0.000 A 
ATOM     24  C   UNL     1       5.258   3.768  13.280  0.00  0.00    +0.000 A 
ENDBRANCH  13  23
ENDBRANCH   1  15
BRANCH  12  25
ATOM     25  C   UNL     1       6.809   4.856  19.483  0.00  0.00    +0.000 C 
ATOM     26  N   UNL     1       7.338   4.453  18.294  0.00  0.00    +0.000 N 
ATOM     27  O   UNL     1       7.485   5.594  20.202  0.00  0.00    +0.000 OA
ATOM     28  H   UNL     1       7.012   3.571  17.908  0.00  0.00    +0.000 HD
ATOM     29  H   UNL     1       8.316   4.635  18.201  0.00  0.00    +0.000 HD
ENDBRANCH  12  25
TORSDOF 3
ENDMDL
MODEL 3
REMARK VINA RESULT:      -8.4      2.859      7.680
REMARK  Name = 
REMARK  4 active torsions:
REMARK  status: ('A' for Active; 'I' for Inactive)
REMARK    1  A    between atoms: C_1  and  C_2
REMARK    2  A    between atoms: C_6  and  N_7
REMARK    3  A    between atoms: C_9  and  C_10
REMARK    4  A    between atoms: C_21  and  C_22
REMARK                            x       y       z     vdW  Elec       q    Type
REMARK                         _______ _______ _______ _____ _____    ______ ____
ROOT
ATOM      1  C   UNL     1       3.438   6.513  17.635  0.00  0.00    +0.000 C 
ATOM      2  O   UNL     1       3.970   7.420  16.980  0.00  0.00    +0.000 OA
ATOM      3  N   UNL     1       3.570   5.154  17.179  0.00  0.00    +0.000 N 
ATOM      4  C   UNL     1       4.764   5.015  16.302  0.00  0.00    +0.000 C 
ATOM      5  C   UNL     1       5.974   5.074  17.229  0.00  0.00    +0.000 A 
ATOM      6  C   UNL     1       7.075   5.868  16.914  0.00  0.00    +0.000 A 
ATOM      7  C   UNL     1       7.843   6.393  17.951  0.00  0.00    +0.000 A 
ATOM      8  C   UNL     1       7.532   6.096  19.279  0.00  0.00    +0.000 A 
ATOM      9  C   UNL     1       6.547   5.157  19.579  0.00  0.00    +0.000 A 
ATOM     10  C   UNL     1       5.794   4.601  18.549  0.00  0.00    +0.000 A 
ATOM     11  C   UNL     1       4.680   3.623  18.835  0.00  0.00    +0.000 C 
ATOM     12  C   UNL     1       3.427   3.895  17.972  0.00  0.00    +0.000 C 
ENDROOT
BRANCH   1  15
ATOM     13  N   UNL     1       1.448   8.074  20.254  0.00  0.00    +0.000 N 
ATOM     14  C   UNL     1       2.010   8.116  18.998  0.00  0.00    +0.000 A 
ATOM     15  C   UNL     1       2.711   6.916  18.842  0.00  0.00    +0.000 A 
ATOM     16  N   UNL     1       2.541   6.180  19.974  0.00  0.00    +0.000 NA
ATOM     17  N   UNL     1       1.771   6.868  20.812  0.00  0.00    +0.000 NA
BRANCH  13  23
ATOM     18  C   UNL     1      -1.318  12.320  20.529  0.00  0.00    +0.000 C 
ATOM     19  C   UNL     1      -0.663  11.106  21.139  0.00  0.00    +0.000 A 
ATOM     20  C   UNL     1      -0.790  10.905  22.523  0.00  0.00    +0.000 A 
ATOM     21  C   UNL     1      -0.218   9.790  23.121  0.00  0.00    +0.000 A 
ATOM     22  C   UNL     1       0.492   8.866  22.352  0.00  0.00    +0.000 A 
ATOM     23  C   UNL     1       0.661   9.041  20.967  0.00  0.00    +0.000 A 
ATOM     24  C   UNL     1       0.065  10.168  20.361  0.00  0.00    +0.000 A 
ENDBRANCH  13  23
ENDBRANCH   1  15
BRANCH  12  25
ATOM     25  C   UNL     1       2.194   3.244  18.634  0.00  0.00    +0.000 C 
ATOM     26  N   UNL     1       2.216   3.041  19.981  0.00  0.00    +0.000 N 
ATOM     27  O   UNL     1       1.121   3.113  18.043  0.00  0.00    +0.000 OA
ATOM     28  H   UNL     1       3.094   2.741  20.397  0.00  0.00    +0.000 HD
ATOM     29  H   UNL     1       1.393   2.607  20.341  0.00  0.00    +0.000 HD
ENDBRANCH  12  25
TORSDOF 3
ENDMDL
MODEL 4
REMARK VINA RESULT:      -8.3      3.076      7.084
REMARK  Name = 
REMARK  4 active torsions:
REMARK  status: ('A' for Active; 'I' for Inactive)
REMARK    1  A    between atoms: C_1  and  C_2
REMARK    2  A    between atoms: C_6  and  N_7
REMARK    3  A    between atoms: C_9  and  C_10
REMARK    4  A    between atoms: C_21  and  C_22
REMARK                            x       y       z     vdW  Elec       q    Type
REMARK                         _______ _______ _______ _____ _____    ______ ____
ROOT
ATOM      1  C   UNL     1       3.654   6.092  19.455  0.00  0.00    +0.000 C 
ATOM      2  O   UNL     1       3.188   5.729  20.543  0.00  0.00    +0.000 OA
ATOM      3  N   UNL     1       4.833   5.440  18.948  0.00  0.00    +0.000 N 
ATOM      4  C   UNL     1       4.978   4.088  19.554  0.00  0.00    +0.000 C 
ATOM      5  C   UNL     1       3.918   3.215  18.891  0.00  0.00    +0.000 A 
ATOM      6  C   UNL     1       3.109   2.374  19.654  0.00  0.00    +0.000 A 
ATOM      7  C   UNL     1       1.827   2.079  19.195  0.00  0.00    +0.000 A 
ATOM      8  C   UNL     1       1.379   2.590  17.975  0.00  0.00    +0.000 A 
ATOM      9  C   UNL     1       2.255   3.274  17.134  0.00  0.00    +0.000 A 
ATOM     10  C   UNL     1       3.548   3.549  17.568  0.00  0.00    +0.000 A 
ATOM     11  C   UNL     1       4.509   4.337  16.712  0.00  0.00    +0.000 C 
ATOM     12  C   UNL     1       5.315   5.368  17.535  0.00  0.00    +0.000 C 
ENDROOT
BRANCH   1  15
ATOM     13  N   UNL     1       1.587   8.885  18.368  0.00  0.00    +0.000 N 
ATOM     14  C   UNL     1       1.953   7.979  19.337  0.00  0.00    +0.000 A 
ATOM     15  C   UNL     1       2.945   7.175  18.767  0.00  0.00    +0.000 A 
ATOM     16  N   UNL     1       3.169   7.619  17.500  0.00  0.00    +0.000 NA
ATOM     17  N   UNL     1       2.367   8.654  17.268  0.00  0.00    +0.000 NA
BRANCH  13  23
ATOM     18  C   UNL     1      -3.034  10.701  17.321  0.00  0.00    +0.000 C 
ATOM     19  C   UNL     1      -1.631  10.838  17.857  0.00  0.00    +0.000 A 
ATOM     20  C   UNL     1      -1.233  12.082  18.374  0.00  0.00    +0.000 A 
ATOM     21  C   UNL     1       0.044  12.244  18.894  0.00  0.00    +0.000 A 
ATOM     22  C   UNL     1       0.942  11.175  18.900  0.00  0.00    +0.000 A 
ATOM     23  C   UNL     1       0.591   9.920  18.372  0.00  0.00    +0.000 A 
ATOM     24  C   UNL     1      -0.713   9.755  17.859  0.00  0.00    +0.000 A 
ENDBRANCH  13  23
ENDBRANCH   1  15
BRANCH  12  25
ATOM     25  C   UNL     1       5.871   6.458  16.594  0.00  0.00    +0.000 C 
ATOM     26  N   UNL     1       5.227   6.681  15.414  0.00  0.00    +0.000 N 
ATOM     27  O   UNL     1       6.718   7.275  16.959  0.00  0.00    +0.000 OA
ATOM     28  H   UNL     1       4.866   5.873  14.914  0.00  0.00    +0.000 HD
ATOM     29  H   UNL     1       5.646   7.391  14.850  0.00  0.00    +0.000 HD
ENDBRANCH  12  25
TORSDOF 3
ENDMDL
MODEL 5
REMARK VINA RESULT:      -8.3      5.275      7.649
REMARK  Name = 
REMARK  4 active torsions:
REMARK  status: ('A' for Active; 'I' for Inactive)
REMARK    1  A    between atoms: C_1  and  C_2
REMARK    2  A    between atoms: C_6  and  N_7
REMARK    3  A    between atoms: C_9  and  C_10
REMARK    4  A    between atoms: C_21  and  C_22
REMARK                            x       y       z     vdW  Elec       q    Type
REMARK                         _______ _______ _______ _____ _____    ______ ____
ROOT
ATOM      1  C   UNL     1       0.433  10.658  20.418  0.00  0.00    +0.000 C 
ATOM      2  O   UNL     1       0.908  10.719  21.559  0.00  0.00    +0.000 OA
ATOM      3  N   UNL     1      -0.804  11.340  20.139  0.00  0.00    +0.000 N 
ATOM      4  C   UNL     1      -1.022  12.439  21.119  0.00  0.00    +0.000 C 
ATOM      5  C   UNL     1      -0.047  13.545  20.731  0.00  0.00    +0.000 A 
ATOM      6  C   UNL     1       0.727  14.184  21.699  0.00  0.00    +0.000 A 
ATOM      7  C   UNL     1       1.970  14.696  21.334  0.00  0.00    +0.000 A 
ATOM      8  C   UNL     1       2.411  14.602  20.013  0.00  0.00    +0.000 A 
ATOM      9  C   UNL     1       1.559  14.130  19.017  0.00  0.00    +0.000 A 
ATOM     10  C   UNL     1       0.302  13.644  19.365  0.00  0.00    +0.000 A 
ATOM     11  C   UNL     1      -0.630  13.071  18.324  0.00  0.00    +0.000 C 
ATOM     12  C   UNL     1      -1.336  11.786  18.815  0.00  0.00    +0.000 C 
ENDROOT
BRANCH   1  15
ATOM     13  N   UNL     1       2.190   8.189  18.399  0.00  0.00    +0.000 N 
ATOM     14  C   UNL     1       1.512   8.525  19.549  0.00  0.00    +0.000 A 
ATOM     15  C   UNL     1       1.192   9.882  19.433  0.00  0.00    +0.000 A 
ATOM     16  N   UNL     1       1.652  10.321  18.229  0.00  0.00    +0.000 NA
ATOM     17  N   UNL     1       2.235   9.302  17.604  0.00  0.00    +0.000 NA
BRANCH  13  23
ATOM     18  C   UNL     1       2.215   3.143  17.863  0.00  0.00    +0.000 C 
ATOM     19  C   UNL     1       2.847   4.506  17.736  0.00  0.00    +0.000 A 
ATOM     20  C   UNL     1       4.145   4.594  17.208  0.00  0.00    +0.000 A 
ATOM     21  C   UNL     1       4.755   5.832  17.057  0.00  0.00    +0.000 A 
ATOM     22  C   UNL     1       4.085   6.997  17.435  0.00  0.00    +0.000 A 
ATOM     23  C   UNL     1       2.792   6.953  17.987  0.00  0.00    +0.000 A 
ATOM     24  C   UNL     1       2.171   5.693  18.125  0.00  0.00    +0.000 A 
ENDBRANCH  13  23
ENDBRANCH   1  15
BRANCH  12  25
ATOM     25  C   UNL     1      -1.845  10.982  17.600  0.00  0.00    +0.000 C 
ATOM     26  N   UNL     1      -2.175  11.663  16.468  0.00  0.00    +0.000 N 
ATOM     27  O   UNL     1      -1.751   9.755  17.536  0.00  0.00    +0.000 OA
ATOM     28  H   UNL     1      -2.646  12.558  16.576  0.00  0.00    +0.000 HD
ATOM     29  H   UNL     1      -2.507  11.083  15.726  0.00  0.00    +0.000 HD
ENDBRANCH  12  25
TORSDOF 3
ENDMDL
MODEL 6
REMARK VINA RESULT:      -8.3      5.052      7.323
REMARK  Name = 
REMARK  4 active torsions:
REMARK  status: ('A' for Active; 'I' for Inactive)
REMARK    1  A    between atoms: C_1  and  C_2
REMARK    2  A    between atoms: C_6  and  N_7
REMARK    3  A    between atoms: C_9  and  C_10
REMARK    4  A    between atoms: C_21  and  C_22
REMARK                            x       y       z     vdW  Elec       q    Type
REMARK                         _______ _______ _______ _____ _____    ______ ____
ROOT
ATOM      1  C   UNL     1       0.508  10.341  20.425  0.00  0.00    +0.000 C 
ATOM      2  O   UNL     1       1.088  10.530  21.502  0.00  0.00    +0.000 OA
ATOM      3  N   UNL     1      -0.828  10.848  20.253  0.00  0.00    +0.000 N 
ATOM      4  C   UNL     1      -1.081  11.971  21.197  0.00  0.00    +0.000 C 
ATOM      5  C   UNL     1      -0.301  13.162  20.651  0.00  0.00    +0.000 A 
ATOM      6  C   UNL     1       0.481  13.949  21.496  0.00  0.00    +0.000 A 
ATOM      7  C   UNL     1       1.603  14.586  20.970  0.00  0.00    +0.000 A 
ATOM      8  C   UNL     1       1.913  14.465  19.614  0.00  0.00    +0.000 A 
ATOM      9  C   UNL     1       1.028  13.832  18.743  0.00  0.00    +0.000 A 
ATOM     10  C   UNL     1      -0.113  13.218  19.251  0.00  0.00    +0.000 A 
ATOM     11  C   UNL     1      -1.068  12.473  18.350  0.00  0.00    +0.000 C 
ATOM     12  C   UNL     1      -1.548  11.144  18.977  0.00  0.00    +0.000 C 
ENDROOT
BRANCH   1  15
ATOM     13  N   UNL     1       2.322   7.978  18.332  0.00  0.00    +0.000 N 
ATOM     14  C   UNL     1       1.716   8.291  19.528  0.00  0.00    +0.000 A 
ATOM     15  C   UNL     1       1.253   9.605  19.400  0.00  0.00    +0.000 A 
ATOM     16  N   UNL     1       1.562  10.039  18.147  0.00  0.00    +0.000 NA
ATOM     17  N   UNL     1       2.188   9.058  17.503  0.00  0.00    +0.000 NA
BRANCH  13  23
ATOM     18  C   UNL     1       6.208   5.551  16.149  0.00  0.00    +0.000 C 
ATOM     19  C   UNL     1       4.864   5.585  16.832  0.00  0.00    +0.000 A 
ATOM     20  C   UNL     1       4.192   4.370  17.045  0.00  0.00    +0.000 A 
ATOM     21  C   UNL     1       2.961   4.356  17.686  0.00  0.00    +0.000 A 
ATOM     22  C   UNL     1       2.380   5.550  18.118  0.00  0.00    +0.000 A 
ATOM     23  C   UNL     1       3.007   6.790  17.906  0.00  0.00    +0.000 A 
ATOM     24  C   UNL     1       4.266   6.798  17.266  0.00  0.00    +0.000 A 
ENDBRANCH  13  23
ENDBRANCH   1  15
BRANCH  12  25
ATOM     25  C   UNL     1      -2.074  10.211  17.866  0.00  0.00    +0.000 C 
ATOM     26  N   UNL     1      -1.187   9.736  16.948  0.00  0.00    +0.000 N 
ATOM     27  O   UNL     1      -3.196   9.704  17.909  0.00  0.00    +0.000 OA
ATOM     28  H   UNL     1      -0.462  10.370  16.622  0.00  0.00    +0.000 HD
ATOM     29  H   UNL     1      -1.596   9.148  16.253  0.00  0.00    +0.000 HD
ENDBRANCH  12  25
TORSDOF 3
ENDMDL
MODEL 7
REMARK VINA RESULT:      -8.2      2.893      7.536
REMARK  Name = 
REMARK  4 active torsions:
REMARK  status: ('A' for Active; 'I' for Inactive)
REMARK    1  A    between atoms: C_1  and  C_2
REMARK    2  A    between atoms: C_6  and  N_7
REMARK    3  A    between atoms: C_9  and  C_10
REMARK    4  A    between atoms: C_21  and  C_22
REMARK                            x       y       z     vdW  Elec       q    Type
REMARK                         _______ _______ _______ _____ _____    ______ ____
ROOT
ATOM      1  C   UNL     1       3.575   6.390  17.350  0.00  0.00    +0.000 C 
ATOM      2  O   UNL     1       4.269   7.088  16.598  0.00  0.00    +0.000 OA
ATOM      3  N   UNL     1       3.536   4.966  17.142  0.00  0.00    +0.000 N 
ATOM      4  C   UNL     1       4.749   4.518  16.406  0.00  0.00    +0.000 C 
ATOM      5  C   UNL     1       5.897   4.582  17.408  0.00  0.00    +0.000 A 
ATOM      6  C   UNL     1       7.118   5.156  17.056  0.00  0.00    +0.000 A 
ATOM      7  C   UNL     1       7.889   5.753  18.051  0.00  0.00    +0.000 A 
ATOM      8  C   UNL     1       7.460   5.742  19.379  0.00  0.00    +0.000 A 
ATOM      9  C   UNL     1       6.335   5.008  19.749  0.00  0.00    +0.000 A 
ATOM     10  C   UNL     1       5.572   4.381  18.769  0.00  0.00    +0.000 A 
ATOM     11  C   UNL     1       4.314   3.625  19.121  0.00  0.00    +0.000 C 
ATOM     12  C   UNL     1       3.167   3.899  18.122  0.00  0.00    +0.000 C 
ENDROOT
BRANCH   1  15
ATOM     13  N   UNL     1       1.522   8.544  19.449  0.00  0.00    +0.000 N 
ATOM     14  C   UNL     1       2.056   8.236  18.218  0.00  0.00    +0.000 A 
ATOM     15  C   UNL     1       2.842   7.095  18.406  0.00  0.00    +0.000 A 
ATOM     16  N   UNL     1       2.749   6.731  19.714  0.00  0.00    +0.000 NA
ATOM     17  N   UNL     1       1.945   7.590  20.334  0.00  0.00    +0.000 NA
BRANCH  13  23
ATOM     18  C   UNL     1      -1.109  11.127  22.935  0.00  0.00    +0.000 C 
ATOM     19  C   UNL     1      -0.627  10.889  21.527  0.00  0.00    +0.000 A 
ATOM     20  C   UNL     1      -1.055  11.767  20.517  0.00  0.00    +0.000 A 
ATOM     21  C   UNL     1      -0.619  11.593  19.211  0.00  0.00    +0.000 A 
ATOM     22  C   UNL     1       0.242  10.542  18.890  0.00  0.00    +0.000 A 
ATOM     23  C   UNL     1       0.679   9.628  19.866  0.00  0.00    +0.000 A 
ATOM     24  C   UNL     1       0.244   9.817  21.196  0.00  0.00    +0.000 A 
ENDBRANCH  13  23
ENDBRANCH   1  15
BRANCH  12  25
ATOM     25  C   UNL     1       1.816   3.545  18.778  0.00  0.00    +0.000 C 
ATOM     26  N   UNL     1       1.512   4.115  19.978  0.00  0.00    +0.000 N 
ATOM     27  O   UNL     1       0.920   2.960  18.167  0.00  0.00    +0.000 OA
ATOM     28  H   UNL     1       2.265   4.220  20.653  0.00  0.00    +0.000 HD
ATOM     29  H   UNL     1       0.629   3.834  20.350  0.00  0.00    +0.000 HD
ENDBRANCH  12  25
TORSDOF 3
ENDMDL
MODEL 8
REMARK VINA RESULT:      -8.1      3.068      7.259
REMARK  Name = 
REMARK  4 active torsions:
REMARK  status: ('A' for Active; 'I' for Inactive)
REMARK    1  A    between atoms: C_1  and  C_2
REMARK    2  A    between atoms: C_6  and  N_7
REMARK    3  A    between atoms: C_9  and  C_10
REMARK    4  A    between atoms: C_21  and  C_22
REMARK                            x       y       z     vdW  Elec       q    Type
REMARK                         _______ _______ _______ _____ _____    ______ ____
ROOT
ATOM      1  C   UNL     1       3.606   6.105  19.474  0.00  0.00    +0.000 C 
ATOM      2  O   UNL     1       3.127   5.749  20.559  0.00  0.00    +0.000 OA
ATOM      3  N   UNL     1       4.785   5.442  18.980  0.00  0.00    +0.000 N 
ATOM      4  C   UNL     1       4.913   4.091  19.592  0.00  0.00    +0.000 C 
ATOM      5  C   UNL     1       3.853   3.224  18.922  0.00  0.00    +0.000 A 
ATOM      6  C   UNL     1       3.030   2.392  19.679  0.00  0.00    +0.000 A 
ATOM      7  C   UNL     1       1.751   2.105  19.210  0.00  0.00    +0.000 A 
ATOM      8  C   UNL     1       1.318   2.615  17.984  0.00  0.00    +0.000 A 
ATOM      9  C   UNL     1       2.207   3.290  17.149  0.00  0.00    +0.000 A 
ATOM     10  C   UNL     1       3.498   3.556  17.594  0.00  0.00    +0.000 A 
ATOM     11  C   UNL     1       4.473   4.335  16.745  0.00  0.00    +0.000 C 
ATOM     12  C   UNL     1       5.279   5.363  17.572  0.00  0.00    +0.000 C 
ENDROOT
BRANCH   1  15
ATOM     13  N   UNL     1       1.594   8.930  18.366  0.00  0.00    +0.000 N 
ATOM     14  C   UNL     1       1.957   8.037  19.349  0.00  0.00    +0.000 A 
ATOM     15  C   UNL     1       2.912   7.191  18.776  0.00  0.00    +0.000 A 
ATOM     16  N   UNL     1       3.118   7.597  17.493  0.00  0.00    +0.000 NA
ATOM     17  N   UNL     1       2.340   8.649  17.254  0.00  0.00    +0.000 NA
BRANCH  13  23
ATOM     18  C   UNL     1       0.109  13.671  19.399  0.00  0.00    +0.000 C 
ATOM     19  C   UNL     1      -0.130  12.276  18.878  0.00  0.00    +0.000 A 
ATOM     20  C   UNL     1      -1.406  11.959  18.384  0.00  0.00    +0.000 A 
ATOM     21  C   UNL     1      -1.662  10.691  17.878  0.00  0.00    +0.000 A 
ATOM     22  C   UNL     1      -0.656   9.723  17.864  0.00  0.00    +0.000 A 
ATOM     23  C   UNL     1       0.628   9.993  18.369  0.00  0.00    +0.000 A 
ATOM     24  C   UNL     1       0.888  11.287  18.868  0.00  0.00    +0.000 A 
ENDBRANCH  13  23
ENDBRANCH   1  15
BRANCH  12  25
ATOM     25  C   UNL     1       5.852   6.445  16.633  0.00  0.00    +0.000 C 
ATOM     26  N   UNL     1       5.215   6.676  15.451  0.00  0.00    +0.000 N 
ATOM     27  O   UNL     1       6.708   7.251  17.001  0.00  0.00    +0.000 OA
ATOM     28  H   UNL     1       4.845   5.873  14.949  0.00  0.00    +0.000 HD
ATOM     29  H   UNL     1       5.644   7.380  14.888  0.00  0.00    +0.000 HD
ENDBRANCH  12  25
TORSDOF 3
ENDMDL
MODEL 9
REMARK VINA RESULT:      -8.0      4.554      6.142
REMARK  Name = 
REMARK  4 active torsions:
REMARK  status: ('A' for Active; 'I' for Inactive)
REMARK    1  A    between atoms: C_1  and  C_2
REMARK    2  A    between atoms: C_6  and  N_7
REMARK    3  A    between atoms: C_9  and  C_10
REMARK    4  A    between atoms: C_21  and  C_22
REMARK                            x       y       z     vdW  Elec       q    Type
REMARK                         _______ _______ _______ _____ _____    ______ ____
ROOT
ATOM      1  C   UNL     1       6.822   5.486  18.646  0.00  0.00    +0.000 C 
ATOM      2  O   UNL     1       6.825   5.218  19.855  0.00  0.00    +0.000 OA
ATOM      3  N   UNL     1       6.353   4.496  17.712  0.00  0.00    +0.000 N 
ATOM      4  C   UNL     1       5.455   3.526  18.394  0.00  0.00    +0.000 C 
ATOM      5  C   UNL     1       4.143   4.266  18.635  0.00  0.00    +0.000 A 
ATOM      6  C   UNL     1       3.505   4.200  19.873  0.00  0.00    +0.000 A 
ATOM      7  C   UNL     1       2.725   5.278  20.284  0.00  0.00    +0.000 A 
ATOM      8  C   UNL     1       2.559   6.387  19.452  0.00  0.00    +0.000 A 
ATOM      9  C   UNL     1       3.046   6.367  18.147  0.00  0.00    +0.000 A 
ATOM     10  C   UNL     1       3.801   5.281  17.713  0.00  0.00    +0.000 A 
ATOM     11  C   UNL     1       4.394   5.246  16.325  0.00  0.00    +0.000 C 
ATOM     12  C   UNL     1       5.842   4.705  16.322  0.00  0.00    +0.000 C 
ENDROOT
BRANCH   1  15
ATOM     13  N   UNL     1       8.389   8.755  18.306  0.00  0.00    +0.000 N 
ATOM     14  C   UNL     1       8.158   7.614  19.040  0.00  0.00    +0.000 A 
ATOM     15  C   UNL     1       7.304   6.819  18.270  0.00  0.00    +0.000 A 
ATOM     16  N   UNL     1       7.062   7.473  17.101  0.00  0.00    +0.000 NA
ATOM     17  N   UNL     1       7.725   8.625  17.117  0.00  0.00    +0.000 NA
BRANCH  13  23
ATOM     18  C   UNL     1      11.175  12.789  16.995  0.00  0.00    +0.000 C 
ATOM     19  C   UNL     1      10.524  11.884  18.011  0.00  0.00    +0.000 A 
ATOM     20  C   UNL     1      10.693  12.179  19.373  0.00  0.00    +0.000 A 
ATOM     21  C   UNL     1      10.095  11.382  20.339  0.00  0.00    +0.000 A 
ATOM     22  C   UNL     1       9.327  10.278  19.963  0.00  0.00    +0.000 A 
ATOM     23  C   UNL     1       9.150   9.934  18.611  0.00  0.00    +0.000 A 
ATOM     24  C   UNL     1       9.748  10.757  17.632  0.00  0.00    +0.000 A 
ENDBRANCH  13  23
ENDBRANCH   1  15
BRANCH  12  25
ATOM     25  C   UNL     1       6.559   5.157  15.033  0.00  0.00    +0.000 C 
ATOM     26  N   UNL     1       7.871   5.515  15.116  0.00  0.00    +0.000 N 
ATOM     27  O   UNL     1       6.069   4.993  13.914  0.00  0.00    +0.000 OA
ATOM     28  H   UNL     1       8.166   6.037  15.937  0.00  0.00    +0.000 HD
ATOM     29  H   UNL     1       8.269   5.807  14.248  0.00  0.00    +0.000 HD
ENDBRANCH  12  25
TORSDOF 3
ENDMDL
