MODEL 1
REMARK VINA RESULT:      -8.5      0.000      0.000
REMARK  Name = 
REMARK  5 active torsions:
REMARK  status: ('A' for Active; 'I' for Inactive)
REMARK    1  A    between atoms: C_2  and  C_4
REMARK    2  A    between atoms: C_8  and  C_9
REMARK    3  A    between atoms: C_9  and  N_10
REMARK    4  A    between atoms: C_12  and  C_13
REMARK    5  A    between atoms: C_17  and  C_18
REMARK                            x       y       z     vdW  Elec       q    Type
REMARK                         _______ _______ _______ _____ _____    ______ ____
ROOT
ATOM      1  N   UNL     1       2.650   6.432  18.468  0.00  0.00    +0.000 N 
ATOM      2  N   UNL     1       2.301   7.410  19.383  0.00  0.00    +0.000 NA
ATOM      3  C   UNL     1       1.680   7.019  20.444  0.00  0.00    +0.000 A 
ATOM      4  C   UNL     1       1.323   5.634  20.759  0.00  0.00    +0.000 A 
ATOM      5  C   UNL     1       1.675   4.692  19.873  0.00  0.00    +0.000 A 
ATOM      6  C   UNL     1       2.395   5.071  18.639  0.00  0.00    +0.000 A 
ATOM      7  O   UNL     1       2.760   4.218  17.838  0.00  0.00    +0.000 OA
ENDROOT
BRANCH   5   8
ATOM      8  C   UNL     1       1.393   3.259  20.118  0.00  0.00    +0.000 C 
ATOM      9  F   UNL     1       2.432   2.399  20.017  0.00  0.00    +0.000 F 
ATOM     10  F   UNL     1       0.879   3.084  21.370  0.00  0.00    +0.000 F 
ATOM     11  F   UNL     1       0.433   2.806  19.265  0.00  0.00    +0.000 F 
ENDBRANCH   5   8
BRANCH   3  12
ATOM     12  C   UNL     1       1.350   8.020  21.486  0.00  0.00    +0.000 C 
ATOM     13  C   UNL     1      -0.068   8.524  21.647  0.00  0.00    +0.000 C 
ATOM     14  C   UNL     1       0.994   9.443  21.123  0.00  0.00    +0.000 C 
ENDBRANCH   3  12
BRANCH   1  15
ATOM     15  C   UNL     1       3.490   6.862  17.350  0.00  0.00    +0.000 C 
BRANCH  15  20
ATOM     16  C   UNL     1       6.546   5.122  15.861  0.00  0.00    +0.000 A 
ATOM     17  C   UNL     1       7.355   4.966  16.993  0.00  0.00    +0.000 A 
ATOM     18  C   UNL     1       6.882   5.355  18.245  0.00  0.00    +0.000 A 
ATOM     19  C   UNL     1       5.614   5.926  18.370  0.00  0.00    +0.000 A 
ATOM     20  C   UNL     1       4.807   6.131  17.239  0.00  0.00    +0.000 A 
ATOM     21  C   UNL     1       5.277   5.702  15.989  0.00  0.00    +0.000 A 
BRANCH  16  23
ATOM     22  N   UNL     1       6.437   3.645  13.921  0.00  0.00    +0.000 N 
ATOM     23  C   UNL     1       7.016   4.740  14.502  0.00  0.00    +0.000 C 
ATOM     24  O   UNL     1       7.865   5.389  13.906  0.00  0.00    +0.000 OA
ATOM     25  H   UNL     1       6.696   3.461  12.961  0.00  0.00    +0.000 HD
ATOM     26  H   UNL     1       5.582   3.236  14.266  0.00  0.00    +0.000 HD
ENDBRANCH  16  23
ENDBRANCH  15  20
ENDBRANCH   1  15
TORSDOF 5
ENDMDL
MODEL 2
REMARK VINA RESULT:      -8.3      1.897      2.473
REMARK  Name = 
REMARK  5 active torsions:
REMARK  status: ('A' for Active; 'I' for Inactive)
REMARK    1  A    between atoms: C_2  and  C_4
REMARK    2  A    between atoms: C_8  and  C_9
REMARK    3  A    between atoms: C_9  and  N_10
REMARK    4  A    between atoms: C_12  and  C_13
REMARK    5  A    between atoms: C_17  and  C_18
REMARK                            x       y       z     vdW  Elec       q    Type
REMARK                         _______ _______ _______ _____ _____    ______ ____
ROOT
ATOM      1  N   UNL     1       2.613   6.089  18.214  0.00  0.00    +0.000 N 
ATOM      2  N   UNL     1       2.364   7.163  19.051  0.00  0.00    +0.000 NA
ATOM      3  C   UNL     1       1.806   6.900  20.184  0.00  0.00    +0.000 A 
ATOM      4  C   UNL     1       1.423   5.567  20.655  0.00  0.00    +0.000 A 
ATOM      5  C   UNL     1       1.679   4.532  19.843  0.00  0.00    +0.000 A 
ATOM      6  C   UNL     1       2.322   4.762  18.533  0.00  0.00    +0.000 A 
ATOM      7  O   UNL     1       2.600   3.822  17.795  0.00  0.00    +0.000 OA
ENDROOT
BRANCH   5   8
ATOM      8  C   UNL     1       1.364   3.141  20.244  0.00  0.00    +0.000 C 
ATOM      9  F   UNL     1       0.472   2.466  19.484  0.00  0.00    +0.000 F 
ATOM     10  F   UNL     1       2.499   2.383  20.257  0.00  0.00    +0.000 F 
ATOM     11  F   UNL     1       0.889   3.105  21.520  0.00  0.00    +0.000 F 
ENDBRANCH   5   8
BRANCH   3  12
ATOM     12  C   UNL     1       1.586   8.007  21.144  0.00  0.00    +0.000 C 
ATOM     13  C   UNL     1       0.183   8.431  21.521  0.00  0.00    +0.000 C 
ATOM     14  C   UNL     1       1.039   9.341  20.691  0.00  0.00    +0.000 C 
ENDBRANCH   3  12
BRANCH   1  15
ATOM     15  C   UNL     1       3.386   6.377  17.006  0.00  0.00    +0.000 C 
BRANCH  15  20
ATOM     16  C   UNL     1       6.953   5.573  18.108  0.00  0.00    +0.000 A 
ATOM     17  C   UNL     1       7.327   4.613  17.160  0.00  0.00    +0.000 A 
ATOM     18  C   UNL     1       6.455   4.282  16.124  0.00  0.00    +0.000 A 
ATOM     19  C   UNL     1       5.197   4.885  16.046  0.00  0.00    +0.000 A 
ATOM     20  C   UNL     1       4.789   5.817  17.013  0.00  0.00    +0.000 A 
ATOM     21  C   UNL     1       5.688   6.171  18.030  0.00  0.00    +0.000 A 
BRANCH  16  23
ATOM     22  N   UNL     1       8.541   7.117  19.135  0.00  0.00    +0.000 N 
ATOM     23  C   UNL     1       7.843   5.945  19.241  0.00  0.00    +0.000 C 
ATOM     24  O   UNL     1       7.932   5.252  20.246  0.00  0.00    +0.000 OA
ATOM     25  H   UNL     1       9.060   7.402  19.955  0.00  0.00    +0.000 HD
ATOM     26  H   UNL     1       8.317   7.822  18.451  0.00  0.00    +0.000 HD
ENDBRANCH  16  23
ENDBRANCH  15  20
ENDBRANCH   1  15
TORSDOF 5
ENDMDL
MODEL 3
REMARK VINA RESULT:      -8.2      2.659      6.198
REMARK  Name = 
REMARK  5 active torsions:
REMARK  status: ('A' for Active; 'I' for Inactive)
REMARK    1  A    between atoms: C_2  and  C_4
REMARK    2  A    between atoms: C_8  and  C_9
REMARK    3  A    between atoms: C_9  and  N_10
REMARK    4  A    between atoms: C_12  and  C_13
REMARK    5  A    between atoms: C_17  and  C_18
REMARK                            x       y       z     vdW  Elec       q    Type
REMARK                         _______ _______ _______ _____ _____    ______ ____
ROOT
ATOM      1  N   UNL     1       3.506   6.083  17.874  0.00  0.00    +0.000 N 
ATOM      2  N   UNL     1       4.879   6.215  17.988  0.00  0.00    +0.000 NA
ATOM      3  C   UNL     1       5.548   5.140  18.235  0.00  0.00    +0.000 A 
ATOM      4  C   UNL     1       4.979   3.801  18.397  0.00  0.00    +0.000 A 
ATOM      5  C   UNL     1       3.650   3.680  18.273  0.00  0.00    +0.000 A 
ATOM      6  C   UNL     1       2.823   4.871  17.983  0.00  0.00    +0.000 A 
ATOM      7  O   UNL     1       1.611   4.771  17.827  0.00  0.00    +0.000 OA
ENDROOT
BRANCH   5   8
ATOM      8  C   UNL     1       2.981   2.362  18.381  0.00  0.00    +0.000 C 
ATOM      9  F   UNL     1       2.007   2.239  19.311  0.00  0.00    +0.000 F 
ATOM     10  F   UNL     1       2.411   2.020  17.190  0.00  0.00    +0.000 F 
ATOM     11  F   UNL     1       3.891   1.383  18.644  0.00  0.00    +0.000 F 
ENDBRANCH   5   8
BRANCH   3  12
ATOM     12  C   UNL     1       7.027   5.219  18.294  0.00  0.00    +0.000 C 
ATOM     13  C   UNL     1       7.724   5.665  19.561  0.00  0.00    +0.000 C 
ATOM     14  C   UNL     1       7.740   6.550  18.352  0.00  0.00    +0.000 C 
ENDBRANCH   3  12
BRANCH   1  15
ATOM     15  C   UNL     1       2.776   7.273  17.439  0.00  0.00    +0.000 C 
BRANCH  15  20
ATOM     16  C   UNL     1       0.686   9.878  19.292  0.00  0.00    +0.000 A 
ATOM     17  C   UNL     1       0.673   9.352  20.588  0.00  0.00    +0.000 A 
ATOM     18  C   UNL     1       1.399   8.197  20.878  0.00  0.00    +0.000 A 
ATOM     19  C   UNL     1       2.118   7.549  19.872  0.00  0.00    +0.000 A 
ATOM     20  C   UNL     1       2.106   8.039  18.555  0.00  0.00    +0.000 A 
ATOM     21  C   UNL     1       1.403   9.221  18.282  0.00  0.00    +0.000 A 
BRANCH  16  23
ATOM     22  N   UNL     1      -0.839  11.049  17.789  0.00  0.00    +0.000 N 
ATOM     23  C   UNL     1      -0.088  11.096  18.931  0.00  0.00    +0.000 C 
ATOM     24  O   UNL     1      -0.084  12.096  19.636  0.00  0.00    +0.000 OA
ATOM     25  H   UNL     1      -1.436  11.847  17.614  0.00  0.00    +0.000 HD
ATOM     26  H   UNL     1      -1.060  10.184  17.319  0.00  0.00    +0.000 HD
ENDBRANCH  16  23
ENDBRANCH  15  20
ENDBRANCH   1  15
TORSDOF 5
ENDMDL
MODEL 4
REMARK VINA RESULT:      -8.1      2.299      2.909
REMARK  Name = 
REMARK  5 active torsions:
REMARK  status: ('A' for Active; 'I' for Inactive)
REMARK    1  A    between atoms: C_2  and  C_4
REMARK    2  A    between atoms: C_8  and  C_9
REMARK    3  A    between atoms: C_9  and  N_10
REMARK    4  A    between atoms: C_12  and  C_13
REMARK    5  A    between atoms: C_17  and  C_18
REMARK                            x       y       z     vdW  Elec       q    Type
REMARK                         _______ _______ _______ _____ _____    ______ ____
ROOT
ATOM      1  N   UNL     1       3.140   4.102  17.931  0.00  0.00    +0.000 N 
ATOM      2  N   UNL     1       2.950   5.472  17.876  0.00  0.00    +0.000 NA
ATOM      3  C   UNL     1       2.517   6.043  18.949  0.00  0.00    +0.000 A 
ATOM      4  C   UNL     1       2.218   5.365  20.212  0.00  0.00    +0.000 A 
ATOM      5  C   UNL     1       2.416   4.041  20.261  0.00  0.00    +0.000 A 
ATOM      6  C   UNL     1       2.917   3.324  19.069  0.00  0.00    +0.000 A 
ATOM      7  O   UNL     1       3.143   2.120  19.109  0.00  0.00    +0.000 OA
ENDROOT
BRANCH   5   8
ATOM      8  C   UNL     1       2.179   3.270  21.504  0.00  0.00    +0.000 C 
ATOM      9  F   UNL     1       3.026   2.250  21.768  0.00  0.00    +0.000 F 
ATOM     10  F   UNL     1       2.232   4.094  22.589  0.00  0.00    +0.000 F 
ATOM     11  F   UNL     1       0.925   2.741  21.509  0.00  0.00    +0.000 F 
ENDBRANCH   5   8
BRANCH   3  12
ATOM     12  C   UNL     1       2.367   7.517  18.960  0.00  0.00    +0.000 C 
ATOM     13  C   UNL     1       1.433   8.203  17.987  0.00  0.00    +0.000 C 
ATOM     14  C   UNL     1       2.915   8.370  17.841  0.00  0.00    +0.000 C 
ENDBRANCH   3  12
BRANCH   1  15
ATOM     15  C   UNL     1       3.779   3.490  16.767  0.00  0.00    +0.000 C 
BRANCH  15  20
ATOM     16  C   UNL     1       6.861   5.743  16.674  0.00  0.00    +0.000 A 
ATOM     17  C   UNL     1       7.393   5.434  15.417  0.00  0.00    +0.000 A 
ATOM     18  C   UNL     1       6.716   4.556  14.572  0.00  0.00    +0.000 A 
ATOM     19  C   UNL     1       5.523   3.961  14.988  0.00  0.00    +0.000 A 
ATOM     20  C   UNL     1       4.998   4.226  16.264  0.00  0.00    +0.000 A 
ATOM     21  C   UNL     1       5.667   5.139  17.091  0.00  0.00    +0.000 A 
BRANCH  16  23
ATOM     22  N   UNL     1       7.704   7.964  17.235  0.00  0.00    +0.000 N 
ATOM     23  C   UNL     1       7.558   6.659  17.617  0.00  0.00    +0.000 C 
ATOM     24  O   UNL     1       7.963   6.278  18.707  0.00  0.00    +0.000 OA
ATOM     25  H   UNL     1       8.088   8.592  17.929  0.00  0.00    +0.000 HD
ATOM     26  H   UNL     1       7.183   8.368  16.471  0.00  0.00    +0.000 HD
ENDBRANCH  16  23
ENDBRANCH  15  20
ENDBRANCH   1  15
TORSDOF 5
ENDMDL
MODEL 5
REMARK VINA RESULT:      -8.1      2.426      3.619
REMARK  Name = 
REMARK  5 active torsions:
REMARK  status: ('A' for Active; 'I' for Inactive)
REMARK    1  A    between atoms: C_2  and  C_4
REMARK    2  A    between atoms: C_8  and  C_9
REMARK    3  A    between atoms: C_9  and  N_10
REMARK    4  A    between atoms: C_12  and  C_13
REMARK    5  A    between atoms: C_17  and  C_18
REMARK                            x       y       z     vdW  Elec       q    Type
REMARK                         _______ _______ _______ _____ _____    ______ ____
ROOT
ATOM      1  N   UNL     1       2.775   6.610  18.719  0.00  0.00    +0.000 N 
ATOM      2  N   UNL     1       2.578   5.295  19.103  0.00  0.00    +0.000 NA
ATOM      3  C   UNL     1       1.830   5.096  20.135  0.00  0.00    +0.000 A 
ATOM      4  C   UNL     1       1.172   6.140  20.924  0.00  0.00    +0.000 A 
ATOM      5  C   UNL     1       1.358   7.410  20.538  0.00  0.00    +0.000 A 
ATOM      6  C   UNL     1       2.199   7.708  19.359  0.00  0.00    +0.000 A 
ATOM      7  O   UNL     1       2.346   8.861  18.969  0.00  0.00    +0.000 OA
ENDROOT
BRANCH   5   8
ATOM      8  C   UNL     1       0.705   8.535  21.247  0.00  0.00    +0.000 C 
ATOM      9  F   UNL     1       0.281   9.575  20.494  0.00  0.00    +0.000 F 
ATOM     10  F   UNL     1      -0.390   8.093  21.930  0.00  0.00    +0.000 F 
ATOM     11  F   UNL     1       1.537   9.055  22.191  0.00  0.00    +0.000 F 
ENDBRANCH   5   8
BRANCH   3  12
ATOM     12  C   UNL     1       1.532   3.702  20.541  0.00  0.00    +0.000 C 
ATOM     13  C   UNL     1       2.264   3.065  21.702  0.00  0.00    +0.000 C 
ATOM     14  C   UNL     1       2.525   2.587  20.306  0.00  0.00    +0.000 C 
ENDBRANCH   3  12
BRANCH   1  15
ATOM     15  C   UNL     1       3.490   6.816  17.461  0.00  0.00    +0.000 C 
BRANCH  15  20
ATOM     16  C   UNL     1       6.465   4.994  15.906  0.00  0.00    +0.000 A 
ATOM     17  C   UNL     1       7.225   4.686  17.040  0.00  0.00    +0.000 A 
ATOM     18  C   UNL     1       6.740   5.000  18.309  0.00  0.00    +0.000 A 
ATOM     19  C   UNL     1       5.511   5.648  18.450  0.00  0.00    +0.000 A 
ATOM     20  C   UNL     1       4.756   6.005  17.321  0.00  0.00    +0.000 A 
ATOM     21  C   UNL     1       5.236   5.651  16.051  0.00  0.00    +0.000 A 
BRANCH  16  23
ATOM     22  N   UNL     1       6.394   3.626  13.886  0.00  0.00    +0.000 N 
ATOM     23  C   UNL     1       6.950   4.696  14.532  0.00  0.00    +0.000 C 
ATOM     24  O   UNL     1       7.793   5.390  13.979  0.00  0.00    +0.000 OA
ATOM     25  H   UNL     1       6.661   3.500  12.919  0.00  0.00    +0.000 HD
ATOM     26  H   UNL     1       5.543   3.185  14.201  0.00  0.00    +0.000 HD
ENDBRANCH  16  23
ENDBRANCH  15  20
ENDBRANCH   1  15
TORSDOF 5
ENDMDL
MODEL 6
REMARK VINA RESULT:      -8.1      1.833      2.248
REMARK  Name = 
REMARK  5 active torsions:
REMARK  status: ('A' for Active; 'I' for Inactive)
REMARK    1  A    between atoms: C_2  and  C_4
REMARK    2  A    between atoms: C_8  and  C_9
REMARK    3  A    between atoms: C_9  and  N_10
REMARK    4  A    between atoms: C_12  and  C_13
REMARK    5  A    between atoms: C_17  and  C_18
REMARK                            x       y       z     vdW  Elec       q    Type
REMARK                         _______ _______ _______ _____ _____    ______ ____
ROOT
ATOM      1  N   UNL     1       3.005   4.192  17.830  0.00  0.00    +0.000 N 
ATOM      2  N   UNL     1       2.849   5.567  17.807  0.00  0.00    +0.000 NA
ATOM      3  C   UNL     1       2.477   6.128  18.908  0.00  0.00    +0.000 A 
ATOM      4  C   UNL     1       2.213   5.434  20.170  0.00  0.00    +0.000 A 
ATOM      5  C   UNL     1       2.378   4.104  20.186  0.00  0.00    +0.000 A 
ATOM      6  C   UNL     1       2.810   3.399  18.961  0.00  0.00    +0.000 A 
ATOM      7  O   UNL     1       3.005   2.188  18.969  0.00  0.00    +0.000 OA
ENDROOT
BRANCH   5   8
ATOM      8  C   UNL     1       2.173   3.316  21.423  0.00  0.00    +0.000 C 
ATOM      9  F   UNL     1       2.247   3.981  22.598  0.00  0.00    +0.000 F 
ATOM     10  F   UNL     1       0.948   2.716  21.406  0.00  0.00    +0.000 F 
ATOM     11  F   UNL     1       3.076   2.298  21.499  0.00  0.00    +0.000 F 
ENDBRANCH   5   8
BRANCH   3  12
ATOM     12  C   UNL     1       2.366   7.605  18.953  0.00  0.00    +0.000 C 
ATOM     13  C   UNL     1       1.397   8.333  18.047  0.00  0.00    +0.000 C 
ATOM     14  C   UNL     1       2.872   8.465  17.818  0.00  0.00    +0.000 C 
ENDBRANCH   3  12
BRANCH   1  15
ATOM     15  C   UNL     1       3.578   3.587  16.628  0.00  0.00    +0.000 C 
BRANCH  15  20
ATOM     16  C   UNL     1       6.761   4.568  14.758  0.00  0.00    +0.000 A 
ATOM     17  C   UNL     1       7.602   4.934  15.815  0.00  0.00    +0.000 A 
ATOM     18  C   UNL     1       7.166   4.793  17.132  0.00  0.00    +0.000 A 
ATOM     19  C   UNL     1       5.882   4.314  17.399  0.00  0.00    +0.000 A 
ATOM     20  C   UNL     1       5.009   3.984  16.349  0.00  0.00    +0.000 A 
ATOM     21  C   UNL     1       5.470   4.094  15.029  0.00  0.00    +0.000 A 
BRANCH  16  23
ATOM     22  N   UNL     1       6.644   3.843  12.430  0.00  0.00    +0.000 N 
ATOM     23  C   UNL     1       7.176   4.719  13.337  0.00  0.00    +0.000 C 
ATOM     24  O   UNL     1       7.939   5.605  12.978  0.00  0.00    +0.000 OA
ATOM     25  H   UNL     1       6.858   4.024  11.458  0.00  0.00    +0.000 HD
ATOM     26  H   UNL     1       5.843   3.267  12.637  0.00  0.00    +0.000 HD
ENDBRANCH  16  23
ENDBRANCH  15  20
ENDBRANCH   1  15
TORSDOF 5
ENDMDL
MODEL 7
REMARK VINA RESULT:      -7.9      2.241      2.955
REMARK  Name = 
REMARK  5 active torsions:
REMARK  status: ('A' for Active; 'I' for Inactive)
REMARK    1  A    between atoms: C_2  and  C_4
REMARK    2  A    between atoms: C_8  and  C_9
REMARK    3  A    between atoms: C_9  and  N_10
REMARK    4  A    between atoms: C_12  and  C_13
REMARK    5  A    between atoms: C_17  and  C_18
REMARK                            x       y       z     vdW  Elec       q    Type
REMARK                         _______ _______ _______ _____ _____    ______ ____
ROOT
ATOM      1  N   UNL     1       3.159   4.063  17.893  0.00  0.00    +0.000 N 
ATOM      2  N   UNL     1       2.961   5.432  17.841  0.00  0.00    +0.000 NA
ATOM      3  C   UNL     1       2.539   6.000  18.920  0.00  0.00    +0.000 A 
ATOM      4  C   UNL     1       2.260   5.320  20.187  0.00  0.00    +0.000 A 
ATOM      5  C   UNL     1       2.466   3.997  20.232  0.00  0.00    +0.000 A 
ATOM      6  C   UNL     1       2.955   3.284  19.033  0.00  0.00    +0.000 A 
ATOM      7  O   UNL     1       3.187   2.081  19.068  0.00  0.00    +0.000 OA
ENDROOT
BRANCH   5   8
ATOM      8  C   UNL     1       2.249   3.224  21.477  0.00  0.00    +0.000 C 
ATOM      9  F   UNL     1       2.215   3.919  22.637  0.00  0.00    +0.000 F 
ATOM     10  F   UNL     1       1.071   2.540  21.412  0.00  0.00    +0.000 F 
ATOM     11  F   UNL     1       3.213   2.274  21.626  0.00  0.00    +0.000 F 
ENDBRANCH   5   8
BRANCH   3  12
ATOM     12  C   UNL     1       2.382   7.474  18.935  0.00  0.00    +0.000 C 
ATOM     13  C   UNL     1       1.446   8.157  17.962  0.00  0.00    +0.000 C 
ATOM     14  C   UNL     1       2.928   8.332  17.818  0.00  0.00    +0.000 C 
ENDBRANCH   3  12
BRANCH   1  15
ATOM     15  C   UNL     1       3.786   3.455  16.720  0.00  0.00    +0.000 C 
BRANCH  15  20
ATOM     16  C   UNL     1       6.817   5.773  16.556  0.00  0.00    +0.000 A 
ATOM     17  C   UNL     1       7.347   5.448  15.301  0.00  0.00    +0.000 A 
ATOM     18  C   UNL     1       6.683   4.538  14.481  0.00  0.00    +0.000 A 
ATOM     19  C   UNL     1       5.506   3.926  14.918  0.00  0.00    +0.000 A 
ATOM     20  C   UNL     1       4.985   4.207  16.192  0.00  0.00    +0.000 A 
ATOM     21  C   UNL     1       5.640   5.152  16.995  0.00  0.00    +0.000 A 
BRANCH  16  23
ATOM     22  N   UNL     1       7.829   6.269  18.721  0.00  0.00    +0.000 N 
ATOM     23  C   UNL     1       7.500   6.723  17.474  0.00  0.00    +0.000 C 
ATOM     24  O   UNL     1       7.788   7.861  17.127  0.00  0.00    +0.000 OA
ATOM     25  H   UNL     1       8.381   6.894  19.293  0.00  0.00    +0.000 HD
ATOM     26  H   UNL     1       7.831   5.288  18.959  0.00  0.00    +0.000 HD
ENDBRANCH  16  23
ENDBRANCH  15  20
ENDBRANCH   1  15
TORSDOF 5
ENDMDL
MODEL 8
REMARK VINA RESULT:      -7.9      2.623      6.131
REMARK  Name = 
REMARK  5 active torsions:
REMARK  status: ('A' for Active; 'I' for Inactive)
REMARK    1  A    between atoms: C_2  and  C_4
REMARK    2  A    between atoms: C_8  and  C_9
REMARK    3  A    between atoms: C_9  and  N_10
REMARK    4  A    between atoms: C_12  and  C_13
REMARK    5  A    between atoms: C_17  and  C_18
REMARK                            x       y       z     vdW  Elec       q    Type
REMARK                         _______ _______ _______ _____ _____    ______ ____
ROOT
ATOM      1  N   UNL     1       3.418   5.942  18.258  0.00  0.00    +0.000 N 
ATOM      2  N   UNL     1       4.732   6.273  17.976  0.00  0.00    +0.000 NA
ATOM      3  C   UNL     1       5.629   5.395  18.276  0.00  0.00    +0.000 A 
ATOM      4  C   UNL     1       5.372   4.086  18.879  0.00  0.00    +0.000 A 
ATOM      5  C   UNL     1       4.095   3.770  19.137  0.00  0.00    +0.000 A 
ATOM      6  C   UNL     1       3.017   4.727  18.813  0.00  0.00    +0.000 A 
ATOM      7  O   UNL     1       1.841   4.437  19.005  0.00  0.00    +0.000 OA
ENDROOT
BRANCH   5   8
ATOM      8  C   UNL     1       3.728   2.454  19.711  0.00  0.00    +0.000 C 
ATOM      9  F   UNL     1       2.930   1.656  18.965  0.00  0.00    +0.000 F 
ATOM     10  F   UNL     1       4.848   1.724  19.979  0.00  0.00    +0.000 F 
ATOM     11  F   UNL     1       3.102   2.612  20.910  0.00  0.00    +0.000 F 
ENDBRANCH   5   8
BRANCH   3  12
ATOM     12  C   UNL     1       7.043   5.674  17.927  0.00  0.00    +0.000 C 
ATOM     13  C   UNL     1       7.955   6.372  18.912  0.00  0.00    +0.000 C 
ATOM     14  C   UNL     1       7.523   7.082  17.664  0.00  0.00    +0.000 C 
ENDBRANCH   3  12
BRANCH   1  15
ATOM     15  C   UNL     1       2.399   6.872  17.772  0.00  0.00    +0.000 C 
BRANCH  15  20
ATOM     16  C   UNL     1       1.031  10.100  19.288  0.00  0.00    +0.000 A 
ATOM     17  C   UNL     1       0.927   9.750  20.639  0.00  0.00    +0.000 A 
ATOM     18  C   UNL     1       1.369   8.499  21.070  0.00  0.00    +0.000 A 
ATOM     19  C   UNL     1       1.888   7.583  20.151  0.00  0.00    +0.000 A 
ATOM     20  C   UNL     1       1.958   7.902  18.785  0.00  0.00    +0.000 A 
ATOM     21  C   UNL     1       1.546   9.176  18.368  0.00  0.00    +0.000 A 
BRANCH  16  23
ATOM     22  N   UNL     1      -0.609  11.429  18.062  0.00  0.00    +0.000 N 
ATOM     23  C   UNL     1       0.555  11.414  18.780  0.00  0.00    +0.000 C 
ATOM     24  O   UNL     1       1.159  12.453  19.013  0.00  0.00    +0.000 OA
ATOM     25  H   UNL     1      -0.968  12.341  17.813  0.00  0.00    +0.000 HD
ATOM     26  H   UNL     1      -1.252  10.651  18.055  0.00  0.00    +0.000 HD
ENDBRANCH  16  23
ENDBRANCH  15  20
ENDBRANCH   1  15
TORSDOF 5
ENDMDL
MODEL 9
REMARK VINA RESULT:      -7.8      2.850      6.227
REMARK  Name = 
REMARK  5 active torsions:
REMARK  status: ('A' for Active; 'I' for Inactive)
REMARK    1  A    between atoms: C_2  and  C_4
REMARK    2  A    between atoms: C_8  and  C_9
REMARK    3  A    between atoms: C_9  and  N_10
REMARK    4  A    between atoms: C_12  and  C_13
REMARK    5  A    between atoms: C_17  and  C_18
REMARK                            x       y       z     vdW  Elec       q    Type
REMARK                         _______ _______ _______ _____ _____    ______ ____
ROOT
ATOM      1  N   UNL     1       3.007   5.281  19.968  0.00  0.00    +0.000 N 
ATOM      2  N   UNL     1       4.309   5.704  19.761  0.00  0.00    +0.000 NA
ATOM      3  C   UNL     1       5.083   4.904  19.108  0.00  0.00    +0.000 A 
ATOM      4  C   UNL     1       4.697   3.599  18.567  0.00  0.00    +0.000 A 
ATOM      5  C   UNL     1       3.432   3.203  18.762  0.00  0.00    +0.000 A 
ATOM      6  C   UNL     1       2.490   4.074  19.497  0.00  0.00    +0.000 A 
ATOM      7  O   UNL     1       1.319   3.745  19.649  0.00  0.00    +0.000 OA
ENDROOT
BRANCH   5   8
ATOM      8  C   UNL     1       2.934   1.917  18.222  0.00  0.00    +0.000 C 
ATOM      9  F   UNL     1       2.215   1.966  17.077  0.00  0.00    +0.000 F 
ATOM     10  F   UNL     1       3.975   1.071  17.977  0.00  0.00    +0.000 F 
ATOM     11  F   UNL     1       2.155   1.280  19.139  0.00  0.00    +0.000 F 
ENDBRANCH   5   8
BRANCH   3  12
ATOM     12  C   UNL     1       6.464   5.344  18.799  0.00  0.00    +0.000 C 
ATOM     13  C   UNL     1       6.755   6.144  17.548  0.00  0.00    +0.000 C 
ATOM     14  C   UNL     1       7.246   4.732  17.660  0.00  0.00    +0.000 C 
ENDBRANCH   3  12
BRANCH   1  15
ATOM     15  C   UNL     1       2.098   6.258  20.568  0.00  0.00    +0.000 C 
BRANCH  15  20
ATOM     16  C   UNL     1       1.176   9.826  19.567  0.00  0.00    +0.000 A 
ATOM     17  C   UNL     1       1.646   9.876  18.250  0.00  0.00    +0.000 A 
ATOM     18  C   UNL     1       2.193   8.735  17.663  0.00  0.00    +0.000 A 
ATOM     19  C   UNL     1       2.298   7.551  18.396  0.00  0.00    +0.000 A 
ATOM     20  C   UNL     1       1.871   7.496  19.733  0.00  0.00    +0.000 A 
ATOM     21  C   UNL     1       1.289   8.638  20.302  0.00  0.00    +0.000 A 
BRANCH  16  23
ATOM     22  N   UNL     1      -0.581  11.511  19.758  0.00  0.00    +0.000 N 
ATOM     23  C   UNL     1       0.603  11.022  20.241  0.00  0.00    +0.000 C 
ATOM     24  O   UNL     1       1.145  11.541  21.208  0.00  0.00    +0.000 OA
ATOM     25  H   UNL     1      -1.004  12.259  20.290  0.00  0.00    +0.000 HD
ATOM     26  H   UNL     1      -1.172  10.982  19.135  0.00  0.00    +0.000 HD
ENDBRANCH  16  23
ENDBRANCH  15  20
ENDBRANCH   1  15
TORSDOF 5
ENDMDL
