MODEL 1
REMARK VINA RESULT:      -8.9      0.000      0.000
REMARK  Name = 
REMARK  4 active torsions:
REMARK  status: ('A' for Active; 'I' for Inactive)
REMARK    1  A    between atoms: N_7  and  C_8
REMARK    2  A    between atoms: C_12  and  C_13
REMARK    3  A    between atoms: C_13  and  N_14
REMARK    4  A    between atoms: N_14  and  C_15
REMARK                            x       y       z     vdW  Elec       q    Type
REMARK                         _______ _______ _______ _____ _____    ______ ____
ROOT
ATOM      1  C   UNL     1       1.772   5.942  20.282  0.00  0.00    +0.000 C 
ENDROOT
BRANCH   1   6
ATOM      2  C   UNL     1       4.757   5.157  17.986  0.00  0.00    +0.000 A 
ATOM      3  C   UNL     1       4.295   4.038  17.296  0.00  0.00    +0.000 A 
ATOM      4  C   UNL     1       3.022   3.537  17.562  0.00  0.00    +0.000 A 
ATOM      5  C   UNL     1       2.216   4.146  18.532  0.00  0.00    +0.000 A 
ATOM      6  C   UNL     1       2.677   5.260  19.257  0.00  0.00    +0.000 A 
ATOM      7  C   UNL     1       3.955   5.771  18.957  0.00  0.00    +0.000 A 
BRANCH   2  14
ATOM      8  O   UNL     1       7.006   5.021  19.981  0.00  0.00    +0.000 OA
ATOM      9  S   UNL     1       7.394   5.261  18.611  0.00  0.00    +0.000 S 
ATOM     10  O   UNL     1       8.217   4.343  17.855  0.00  0.00    +0.000 OA
ATOM     11  C   UNL     1       8.103   6.886  18.464  0.00  0.00    +0.000 C 
ATOM     12  C   UNL     1       7.335   7.624  17.364  0.00  0.00    +0.000 C 
ATOM     13  C   UNL     1       6.325   6.683  16.697  0.00  0.00    +0.000 C 
ATOM     14  N   UNL     1       6.051   5.644  17.676  0.00  0.00    +0.000 N 
ENDBRANCH   2  14
ENDBRANCH   1   6
BRANCH   1  15
ATOM     15  N   UNL     1       2.260   7.301  20.431  0.00  0.00    +0.000 N 
ATOM     16  H   UNL     1       3.217   7.357  20.095  0.00  0.00    +0.000 HD
BRANCH  15  17
ATOM     17  C   UNL     1       1.555   8.397  19.903  0.00  0.00    +0.000 A 
ATOM     18  N   UNL     1       1.601   8.696  18.594  0.00  0.00    +0.000 NA
ATOM     19  C   UNL     1       0.907   9.786  18.207  0.00  0.00    +0.000 A 
ATOM     20  N   UNL     1       0.181  10.598  18.992  0.00  0.00    +0.000 NA
ATOM     21  C   UNL     1       0.127  10.284  20.288  0.00  0.00    +0.000 A 
ATOM     22  C   UNL     1      -0.598  11.092  21.165  0.00  0.00    +0.000 A 
ATOM     23  C   UNL     1      -0.668  10.817  22.537  0.00  0.00    +0.000 A 
ATOM     24  C   UNL     1      -0.023   9.699  23.033  0.00  0.00    +0.000 A 
ATOM     25  F   UNL     1      -0.074   9.416  24.339  0.00  0.00    +0.000 F 
ATOM     26  C   UNL     1       0.686   8.868  22.186  0.00  0.00    +0.000 A 
ATOM     27  C   UNL     1       0.792   9.166  20.809  0.00  0.00    +0.000 A 
ENDBRANCH  15  17
ENDBRANCH   1  15
TORSDOF 4
ENDMDL
MODEL 2
REMARK VINA RESULT:      -8.7      1.238      1.487
REMARK  Name = 
REMARK  4 active torsions:
REMARK  status: ('A' for Active; 'I' for Inactive)
REMARK    1  A    between atoms: N_7  and  C_8
REMARK    2  A    between atoms: C_12  and  C_13
REMARK    3  A    between atoms: C_13  and  N_14
REMARK    4  A    between atoms: N_14  and  C_15
REMARK                            x       y       z     vdW  Elec       q    Type
REMARK                         _______ _______ _______ _____ _____    ______ ____
ROOT
ATOM      1  C   UNL     1       1.642   5.534  20.460  0.00  0.00    +0.000 C 
ENDROOT
BRANCH   1   6
ATOM      2  C   UNL     1       4.645   4.008  18.604  0.00  0.00    +0.000 A 
ATOM      3  C   UNL     1       4.745   2.757  19.209  0.00  0.00    +0.000 A 
ATOM      4  C   UNL     1       3.843   2.398  20.209  0.00  0.00    +0.000 A 
ATOM      5  C   UNL     1       2.853   3.299  20.618  0.00  0.00    +0.000 A 
ATOM      6  C   UNL     1       2.755   4.576  20.037  0.00  0.00    +0.000 A 
ATOM      7  C   UNL     1       3.655   4.913  19.007  0.00  0.00    +0.000 A 
BRANCH   2  14
ATOM      8  O   UNL     1       6.952   5.877  19.100  0.00  0.00    +0.000 OA
ATOM      9  S   UNL     1       7.046   5.063  17.911  0.00  0.00    +0.000 S 
ATOM     10  O   UNL     1       8.089   4.080  17.713  0.00  0.00    +0.000 OA
ATOM     11  C   UNL     1       6.985   6.101  16.468  0.00  0.00    +0.000 C 
ATOM     12  C   UNL     1       5.860   5.575  15.572  0.00  0.00    +0.000 C 
ATOM     13  C   UNL     1       5.272   4.286  16.158  0.00  0.00    +0.000 C 
ATOM     14  N   UNL     1       5.571   4.330  17.580  0.00  0.00    +0.000 N 
ENDBRANCH   2  14
ENDBRANCH   1   6
BRANCH   1  15
ATOM     15  N   UNL     1       2.259   6.835  20.644  0.00  0.00    +0.000 N 
ATOM     16  H   UNL     1       3.267   6.747  20.559  0.00  0.00    +0.000 HD
BRANCH  15  17
ATOM     17  C   UNL     1       1.860   7.951  19.887  0.00  0.00    +0.000 A 
ATOM     18  N   UNL     1       2.201   8.078  18.594  0.00  0.00    +0.000 NA
ATOM     19  C   UNL     1       1.784   9.203  17.977  0.00  0.00    +0.000 A 
ATOM     20  N   UNL     1       1.071  10.202  18.520  0.00  0.00    +0.000 NA
ATOM     21  C   UNL     1       0.722  10.059  19.800  0.00  0.00    +0.000 A 
ATOM     22  C   UNL     1      -0.010  11.064  20.434  0.00  0.00    +0.000 A 
ATOM     23  C   UNL     1      -0.381  10.971  21.782  0.00  0.00    +0.000 A 
ATOM     24  C   UNL     1      -0.038   9.839  22.497  0.00  0.00    +0.000 A 
ATOM     25  F   UNL     1      -0.381   9.727  23.785  0.00  0.00    +0.000 F 
ATOM     26  C   UNL     1       0.668   8.816  21.891  0.00  0.00    +0.000 A 
ATOM     27  C   UNL     1       1.080   8.926  20.544  0.00  0.00    +0.000 A 
ENDBRANCH  15  17
ENDBRANCH   1  15
TORSDOF 4
ENDMDL
MODEL 3
REMARK VINA RESULT:      -8.7      4.419      8.174
REMARK  Name = 
REMARK  4 active torsions:
REMARK  status: ('A' for Active; 'I' for Inactive)
REMARK    1  A    between atoms: N_7  and  C_8
REMARK    2  A    between atoms: C_12  and  C_13
REMARK    3  A    between atoms: C_13  and  N_14
REMARK    4  A    between atoms: N_14  and  C_15
REMARK                            x       y       z     vdW  Elec       q    Type
REMARK                         _______ _______ _______ _____ _____    ______ ____
ROOT
ATOM      1  C   UNL     1       2.831   5.596  19.729  0.00  0.00    +0.000 C 
ENDROOT
BRANCH   1   6
ATOM      2  C   UNL     1       1.360   9.133  20.073  0.00  0.00    +0.000 A 
ATOM      3  C   UNL     1       1.326   9.555  18.745  0.00  0.00    +0.000 A 
ATOM      4  C   UNL     1       1.770   8.702  17.737  0.00  0.00    +0.000 A 
ATOM      5  C   UNL     1       2.264   7.432  18.058  0.00  0.00    +0.000 A 
ATOM      6  C   UNL     1       2.330   7.001  19.395  0.00  0.00    +0.000 A 
ATOM      7  C   UNL     1       1.852   7.863  20.401  0.00  0.00    +0.000 A 
BRANCH   2  14
ATOM      8  O   UNL     1      -0.822   8.335  21.986  0.00  0.00    +0.000 OA
ATOM      9  S   UNL     1      -0.053   9.499  22.359  0.00  0.00    +0.000 S 
ATOM     10  O   UNL     1       0.760   9.553  23.555  0.00  0.00    +0.000 OA
ATOM     11  C   UNL     1      -1.096  10.940  22.336  0.00  0.00    +0.000 C 
ATOM     12  C   UNL     1      -0.425  11.977  21.432  0.00  0.00    +0.000 C 
ATOM     13  C   UNL     1       0.948  11.473  20.971  0.00  0.00    +0.000 C 
ATOM     14  N   UNL     1       0.886  10.024  21.068  0.00  0.00    +0.000 N 
ENDBRANCH   2  14
ENDBRANCH   1   6
BRANCH   1  15
ATOM     15  N   UNL     1       3.552   5.121  18.562  0.00  0.00    +0.000 N 
ATOM     16  H   UNL     1       3.188   5.577  17.731  0.00  0.00    +0.000 HD
BRANCH  15  17
ATOM     17  C   UNL     1       4.955   5.165  18.497  0.00  0.00    +0.000 A 
ATOM     18  N   UNL     1       5.699   5.429  19.585  0.00  0.00    +0.000 NA
ATOM     19  C   UNL     1       7.035   5.472  19.396  0.00  0.00    +0.000 A 
ATOM     20  N   UNL     1       7.691   5.280  18.241  0.00  0.00    +0.000 NA
ATOM     21  C   UNL     1       6.945   5.002  17.170  0.00  0.00    +0.000 A 
ATOM     22  C   UNL     1       7.559   4.805  15.932  0.00  0.00    +0.000 A 
ATOM     23  C   UNL     1       6.819   4.531  14.775  0.00  0.00    +0.000 A 
ATOM     24  C   UNL     1       5.444   4.426  14.865  0.00  0.00    +0.000 A 
ATOM     25  F   UNL     1       4.715   4.167  13.773  0.00  0.00    +0.000 F 
ATOM     26  C   UNL     1       4.808   4.596  16.081  0.00  0.00    +0.000 A 
ATOM     27  C   UNL     1       5.548   4.913  17.241  0.00  0.00    +0.000 A 
ENDBRANCH  15  17
ENDBRANCH   1  15
TORSDOF 4
ENDMDL
MODEL 4
REMARK VINA RESULT:      -8.6      1.739      2.276
REMARK  Name = 
REMARK  4 active torsions:
REMARK  status: ('A' for Active; 'I' for Inactive)
REMARK    1  A    between atoms: N_7  and  C_8
REMARK    2  A    between atoms: C_12  and  C_13
REMARK    3  A    between atoms: C_13  and  N_14
REMARK    4  A    between atoms: N_14  and  C_15
REMARK                            x       y       z     vdW  Elec       q    Type
REMARK                         _______ _______ _______ _____ _____    ______ ____
ROOT
ATOM      1  C   UNL     1       2.277   8.459  18.129  0.00  0.00    +0.000 C 
ENDROOT
BRANCH   1   6
ATOM      2  C   UNL     1       4.533   5.374  17.692  0.00  0.00    +0.000 A 
ATOM      3  C   UNL     1       4.298   4.683  18.879  0.00  0.00    +0.000 A 
ATOM      4  C   UNL     1       3.410   5.203  19.818  0.00  0.00    +0.000 A 
ATOM      5  C   UNL     1       2.769   6.424  19.579  0.00  0.00    +0.000 A 
ATOM      6  C   UNL     1       3.015   7.148  18.399  0.00  0.00    +0.000 A 
ATOM      7  C   UNL     1       3.893   6.596  17.446  0.00  0.00    +0.000 A 
BRANCH   2  14
ATOM      8  O   UNL     1       7.043   6.806  16.853  0.00  0.00    +0.000 OA
ATOM      9  S   UNL     1       6.989   5.396  16.544  0.00  0.00    +0.000 S 
ATOM     10  O   UNL     1       7.913   4.434  17.104  0.00  0.00    +0.000 OA
ATOM     11  C   UNL     1       6.960   5.170  14.780  0.00  0.00    +0.000 C 
ATOM     12  C   UNL     1       5.741   4.306  14.448  0.00  0.00    +0.000 C 
ATOM     13  C   UNL     1       5.054   3.838  15.737  0.00  0.00    +0.000 C 
ATOM     14  N   UNL     1       5.431   4.805  16.755  0.00  0.00    +0.000 N 
ENDBRANCH   2  14
ENDBRANCH   1   6
BRANCH   1  15
ATOM     15  N   UNL     1       1.502   8.754  19.320  0.00  0.00    +0.000 N 
ATOM     16  H   UNL     1       2.128   8.872  20.111  0.00  0.00    +0.000 HD
BRANCH  15  17
ATOM     17  C   UNL     1       0.571   9.807  19.349  0.00  0.00    +0.000 A 
ATOM     18  N   UNL     1       0.222  10.465  18.231  0.00  0.00    +0.000 NA
ATOM     19  C   UNL     1      -0.660  11.475  18.384  0.00  0.00    +0.000 A 
ATOM     20  N   UNL     1      -1.219  11.887  19.533  0.00  0.00    +0.000 NA
ATOM     21  C   UNL     1      -0.880  11.217  20.636  0.00  0.00    +0.000 A 
ATOM     22  C   UNL     1      -1.412  11.599  21.869  0.00  0.00    +0.000 A 
ATOM     23  C   UNL     1      -1.071  10.941  23.057  0.00  0.00    +0.000 A 
ATOM     24  C   UNL     1      -0.205   9.866  23.006  0.00  0.00    +0.000 A 
ATOM     25  F   UNL     1       0.137   9.222  24.128  0.00  0.00    +0.000 F 
ATOM     26  C   UNL     1       0.323   9.450  21.798  0.00  0.00    +0.000 A 
ATOM     27  C   UNL     1       0.014  10.137  20.603  0.00  0.00    +0.000 A 
ENDBRANCH  15  17
ENDBRANCH   1  15
TORSDOF 4
ENDMDL
MODEL 5
REMARK VINA RESULT:      -8.5      3.104      4.408
REMARK  Name = 
REMARK  4 active torsions:
REMARK  status: ('A' for Active; 'I' for Inactive)
REMARK    1  A    between atoms: N_7  and  C_8
REMARK    2  A    between atoms: C_12  and  C_13
REMARK    3  A    between atoms: C_13  and  N_14
REMARK    4  A    between atoms: N_14  and  C_15
REMARK                            x       y       z     vdW  Elec       q    Type
REMARK                         _______ _______ _______ _____ _____    ______ ____
ROOT
ATOM      1  C   UNL     1       1.930   9.607  18.192  0.00  0.00    +0.000 C 
ENDROOT
BRANCH   1   6
ATOM      2  C   UNL     1       3.071   5.996  18.864  0.00  0.00    +0.000 A 
ATOM      3  C   UNL     1       2.448   5.726  20.082  0.00  0.00    +0.000 A 
ATOM      4  C   UNL     1       1.656   6.701  20.685  0.00  0.00    +0.000 A 
ATOM      5  C   UNL     1       1.500   7.953  20.080  0.00  0.00    +0.000 A 
ATOM      6  C   UNL     1       2.142   8.252  18.865  0.00  0.00    +0.000 A 
ATOM      7  C   UNL     1       2.917   7.247  18.253  0.00  0.00    +0.000 A 
BRANCH   2  14
ATOM      8  O   UNL     1       5.973   5.639  19.574  0.00  0.00    +0.000 OA
ATOM      9  S   UNL     1       5.347   4.523  18.904  0.00  0.00    +0.000 S 
ATOM     10  O   UNL     1       5.198   3.221  19.519  0.00  0.00    +0.000 OA
ATOM     11  C   UNL     1       6.083   4.295  17.301  0.00  0.00    +0.000 C 
ATOM     12  C   UNL     1       4.951   4.306  16.271  0.00  0.00    +0.000 C 
ATOM     13  C   UNL     1       3.591   4.380  16.975  0.00  0.00    +0.000 C 
ATOM     14  N   UNL     1       3.855   4.974  18.276  0.00  0.00    +0.000 N 
ENDBRANCH   2  14
ENDBRANCH   1   6
BRANCH   1  15
ATOM     15  N   UNL     1       0.533   9.664  17.800  0.00  0.00    +0.000 N 
ATOM     16  H   UNL     1       0.143   8.726  17.798  0.00  0.00    +0.000 HD
BRANCH  15  17
ATOM     17  C   UNL     1      -0.381  10.508  18.455  0.00  0.00    +0.000 A 
ATOM     18  N   UNL     1      -0.056  11.143  19.594  0.00  0.00    +0.000 NA
ATOM     19  C   UNL     1      -1.022  11.905  20.147  0.00  0.00    +0.000 A 
ATOM     20  N   UNL     1      -2.267  12.091  19.680  0.00  0.00    +0.000 NA
ATOM     21  C   UNL     1      -2.575  11.470  18.539  0.00  0.00    +0.000 A 
ATOM     22  C   UNL     1      -3.855  11.608  18.001  0.00  0.00    +0.000 A 
ATOM     23  C   UNL     1      -4.234  10.960  16.818  0.00  0.00    +0.000 A 
ATOM     24  C   UNL     1      -3.306  10.185  16.149  0.00  0.00    +0.000 A 
ATOM     25  F   UNL     1      -3.644   9.555  15.018  0.00  0.00    +0.000 F 
ATOM     26  C   UNL     1      -2.023  10.046  16.645  0.00  0.00    +0.000 A 
ATOM     27  C   UNL     1      -1.651  10.664  17.860  0.00  0.00    +0.000 A 
ENDBRANCH  15  17
ENDBRANCH   1  15
TORSDOF 4
ENDMDL
MODEL 6
REMARK VINA RESULT:      -8.4      2.447      3.887
REMARK  Name = 
REMARK  4 active torsions:
REMARK  status: ('A' for Active; 'I' for Inactive)
REMARK    1  A    between atoms: N_7  and  C_8
REMARK    2  A    between atoms: C_12  and  C_13
REMARK    3  A    between atoms: C_13  and  N_14
REMARK    4  A    between atoms: N_14  and  C_15
REMARK                            x       y       z     vdW  Elec       q    Type
REMARK                         _______ _______ _______ _____ _____    ______ ____
ROOT
ATOM      1  C   UNL     1       2.054   8.942  17.755  0.00  0.00    +0.000 C 
ENDROOT
BRANCH   1   6
ATOM      2  C   UNL     1       3.228   5.399  18.684  0.00  0.00    +0.000 A 
ATOM      3  C   UNL     1       4.504   5.369  18.124  0.00  0.00    +0.000 A 
ATOM      4  C   UNL     1       4.991   6.489  17.453  0.00  0.00    +0.000 A 
ATOM      5  C   UNL     1       4.196   7.634  17.326  0.00  0.00    +0.000 A 
ATOM      6  C   UNL     1       2.896   7.672  17.862  0.00  0.00    +0.000 A 
ATOM      7  C   UNL     1       2.428   6.543  18.562  0.00  0.00    +0.000 A 
BRANCH   2  14
ATOM      8  O   UNL     1       1.968   3.091  17.221  0.00  0.00    +0.000 OA
ATOM      9  S   UNL     1       2.408   2.817  18.569  0.00  0.00    +0.000 S 
ATOM     10  O   UNL     1       3.443   1.854  18.876  0.00  0.00    +0.000 OA
ATOM     11  C   UNL     1       1.002   2.463  19.598  0.00  0.00    +0.000 C 
ATOM     12  C   UNL     1       1.063   3.410  20.800  0.00  0.00    +0.000 C 
ATOM     13  C   UNL     1       2.358   4.231  20.765  0.00  0.00    +0.000 C 
ATOM     14  N   UNL     1       2.774   4.247  19.372  0.00  0.00    +0.000 N 
ENDBRANCH   2  14
ENDBRANCH   1   6
BRANCH   1  15
ATOM     15  N   UNL     1       1.362   9.093  19.022  0.00  0.00    +0.000 N 
ATOM     16  H   UNL     1       2.042   9.202  19.769  0.00  0.00    +0.000 HD
BRANCH  15  17
ATOM     17  C   UNL     1       0.365  10.067  19.204  0.00  0.00    +0.000 A 
ATOM     18  N   UNL     1      -0.130  10.765  18.168  0.00  0.00    +0.000 NA
ATOM     19  C   UNL     1      -1.064  11.692  18.467  0.00  0.00    +0.000 A 
ATOM     20  N   UNL     1      -1.543  11.988  19.686  0.00  0.00    +0.000 NA
ATOM     21  C   UNL     1      -1.057  11.279  20.706  0.00  0.00    +0.000 A 
ATOM     22  C   UNL     1      -1.500  11.541  22.004  0.00  0.00    +0.000 A 
ATOM     23  C   UNL     1      -1.006  10.839  23.110  0.00  0.00    +0.000 A 
ATOM     24  C   UNL     1      -0.073   9.839  22.910  0.00  0.00    +0.000 A 
ATOM     25  F   UNL     1       0.415   9.155  23.952  0.00  0.00    +0.000 F 
ATOM     26  C   UNL     1       0.370   9.541  21.635  0.00  0.00    +0.000 A 
ATOM     27  C   UNL     1      -0.096  10.275  20.522  0.00  0.00    +0.000 A 
ENDBRANCH  15  17
ENDBRANCH   1  15
TORSDOF 4
ENDMDL
MODEL 7
REMARK VINA RESULT:      -8.4      1.818      2.023
REMARK  Name = 
REMARK  4 active torsions:
REMARK  status: ('A' for Active; 'I' for Inactive)
REMARK    1  A    between atoms: N_7  and  C_8
REMARK    2  A    between atoms: C_12  and  C_13
REMARK    3  A    between atoms: C_13  and  N_14
REMARK    4  A    between atoms: N_14  and  C_15
REMARK                            x       y       z     vdW  Elec       q    Type
REMARK                         _______ _______ _______ _____ _____    ______ ____
ROOT
ATOM      1  C   UNL     1       1.322   5.942  20.786  0.00  0.00    +0.000 C 
ENDROOT
BRANCH   1   6
ATOM      2  C   UNL     1       4.491   4.575  19.088  0.00  0.00    +0.000 A 
ATOM      3  C   UNL     1       4.482   3.245  19.504  0.00  0.00    +0.000 A 
ATOM      4  C   UNL     1       3.455   2.784  20.326  0.00  0.00    +0.000 A 
ATOM      5  C   UNL     1       2.445   3.658  20.746  0.00  0.00    +0.000 A 
ATOM      6  C   UNL     1       2.453   5.009  20.357  0.00  0.00    +0.000 A 
ATOM      7  C   UNL     1       3.482   5.453  19.503  0.00  0.00    +0.000 A 
BRANCH   2  14
ATOM      8  O   UNL     1       4.416   4.082  16.120  0.00  0.00    +0.000 OA
ATOM      9  S   UNL     1       5.370   5.068  16.571  0.00  0.00    +0.000 S 
ATOM     10  O   UNL     1       5.304   6.460  16.183  0.00  0.00    +0.000 OA
ATOM     11  C   UNL     1       7.023   4.488  16.261  0.00  0.00    +0.000 C 
ATOM     12  C   UNL     1       7.787   4.550  17.586  0.00  0.00    +0.000 C 
ATOM     13  C   UNL     1       6.918   5.197  18.671  0.00  0.00    +0.000 C 
ATOM     14  N   UNL     1       5.543   5.002  18.241  0.00  0.00    +0.000 N 
ENDBRANCH   2  14
ENDBRANCH   1   6
BRANCH   1  15
ATOM     15  N   UNL     1       1.902   7.266  20.924  0.00  0.00    +0.000 N 
ATOM     16  H   UNL     1       2.915   7.195  20.907  0.00  0.00    +0.000 HD
BRANCH  15  17
ATOM     17  C   UNL     1       1.531   8.323  20.075  0.00  0.00    +0.000 A 
ATOM     18  N   UNL     1       1.955   8.382  18.802  0.00  0.00    +0.000 NA
ATOM     19  C   UNL     1       1.557   9.457  18.091  0.00  0.00    +0.000 A 
ATOM     20  N   UNL     1       0.788  10.468  18.523  0.00  0.00    +0.000 NA
ATOM     21  C   UNL     1       0.357  10.394  19.784  0.00  0.00    +0.000 A 
ATOM     22  C   UNL     1      -0.436  11.417  20.306  0.00  0.00    +0.000 A 
ATOM     23  C   UNL     1      -0.895  11.395  21.629  0.00  0.00    +0.000 A 
ATOM     24  C   UNL     1      -0.577  10.317  22.434  0.00  0.00    +0.000 A 
ATOM     25  F   UNL     1      -1.002  10.274  23.702  0.00  0.00    +0.000 F 
ATOM     26  C   UNL     1       0.190   9.278  21.940  0.00  0.00    +0.000 A 
ATOM     27  C   UNL     1       0.689   9.317  20.619  0.00  0.00    +0.000 A 
ENDBRANCH  15  17
ENDBRANCH   1  15
TORSDOF 4
ENDMDL
MODEL 8
REMARK VINA RESULT:      -8.4      4.026      7.831
REMARK  Name = 
REMARK  4 active torsions:
REMARK  status: ('A' for Active; 'I' for Inactive)
REMARK    1  A    between atoms: N_7  and  C_8
REMARK    2  A    between atoms: C_12  and  C_13
REMARK    3  A    between atoms: C_13  and  N_14
REMARK    4  A    between atoms: N_14  and  C_15
REMARK                            x       y       z     vdW  Elec       q    Type
REMARK                         _______ _______ _______ _____ _____    ______ ____
ROOT
ATOM      1  C   UNL     1       2.729   8.339  17.873  0.00  0.00    +0.000 C 
ENDROOT
BRANCH   1   6
ATOM      2  C   UNL     1       0.156  10.246  20.003  0.00  0.00    +0.000 A 
ATOM      3  C   UNL     1      -0.879  10.438  19.089  0.00  0.00    +0.000 A 
ATOM      4  C   UNL     1      -0.755   9.949  17.790  0.00  0.00    +0.000 A 
ATOM      5  C   UNL     1       0.412   9.284  17.398  0.00  0.00    +0.000 A 
ATOM      6  C   UNL     1       1.477   9.105  18.299  0.00  0.00    +0.000 A 
ATOM      7  C   UNL     1       1.326   9.579  19.617  0.00  0.00    +0.000 A 
BRANCH   2  14
ATOM      8  O   UNL     1      -0.927   8.512  22.211  0.00  0.00    +0.000 OA
ATOM      9  S   UNL     1      -0.265   9.725  22.631  0.00  0.00    +0.000 S 
ATOM     10  O   UNL     1       0.938   9.726  23.434  0.00  0.00    +0.000 OA
ATOM     11  C   UNL     1      -1.442  10.815  23.399  0.00  0.00    +0.000 C 
ATOM     12  C   UNL     1      -1.359  12.162  22.677  0.00  0.00    +0.000 C 
ATOM     13  C   UNL     1      -0.224  12.145  21.647  0.00  0.00    +0.000 C 
ATOM     14  N   UNL     1      -0.015  10.744  21.318  0.00  0.00    +0.000 N 
ENDBRANCH   2  14
ENDBRANCH   1   6
BRANCH   1  15
ATOM     15  N   UNL     1       2.560   6.973  18.336  0.00  0.00    +0.000 N 
ATOM     16  H   UNL     1       1.589   6.696  18.229  0.00  0.00    +0.000 HD
BRANCH  15  17
ATOM     17  C   UNL     1       3.362   5.927  17.847  0.00  0.00    +0.000 A 
ATOM     18  N   UNL     1       4.502   6.171  17.179  0.00  0.00    +0.000 NA
ATOM     19  C   UNL     1       5.174   5.089  16.734  0.00  0.00    +0.000 A 
ATOM     20  N   UNL     1       4.822   3.803  16.888  0.00  0.00    +0.000 NA
ATOM     21  C   UNL     1       3.697   3.570  17.567  0.00  0.00    +0.000 A 
ATOM     22  C   UNL     1       3.262   2.257  17.753  0.00  0.00    +0.000 A 
ATOM     23  C   UNL     1       2.077   1.961  18.440  0.00  0.00    +0.000 A 
ATOM     24  C   UNL     1       1.332   2.996  18.973  0.00  0.00    +0.000 A 
ATOM     25  F   UNL     1       0.197   2.738  19.632  0.00  0.00    +0.000 F 
ATOM     26  C   UNL     1       1.748   4.306  18.823  0.00  0.00    +0.000 A 
ATOM     27  C   UNL     1       2.919   4.610  18.095  0.00  0.00    +0.000 A 
ENDBRANCH  15  17
ENDBRANCH   1  15
TORSDOF 4
ENDMDL
MODEL 9
REMARK VINA RESULT:      -8.3      3.288      4.752
REMARK  Name = 
REMARK  4 active torsions:
REMARK  status: ('A' for Active; 'I' for Inactive)
REMARK    1  A    between atoms: N_7  and  C_8
REMARK    2  A    between atoms: C_12  and  C_13
REMARK    3  A    between atoms: C_13  and  N_14
REMARK    4  A    between atoms: N_14  and  C_15
REMARK                            x       y       z     vdW  Elec       q    Type
REMARK                         _______ _______ _______ _____ _____    ______ ____
ROOT
ATOM      1  C   UNL     1       2.211   9.022  17.830  0.00  0.00    +0.000 C 
ENDROOT
BRANCH   1   6
ATOM      2  C   UNL     1       3.230   5.367  18.457  0.00  0.00    +0.000 A 
ATOM      3  C   UNL     1       4.447   5.294  17.781  0.00  0.00    +0.000 A 
ATOM      4  C   UNL     1       4.945   6.420  17.128  0.00  0.00    +0.000 A 
ATOM      5  C   UNL     1       4.217   7.616  17.136  0.00  0.00    +0.000 A 
ATOM      6  C   UNL     1       2.975   7.700  17.791  0.00  0.00    +0.000 A 
ATOM      7  C   UNL     1       2.499   6.561  18.470  0.00  0.00    +0.000 A 
BRANCH   2  14
ATOM      8  O   UNL     1       2.058   3.051  16.935  0.00  0.00    +0.000 OA
ATOM      9  S   UNL     1       2.450   2.775  18.297  0.00  0.00    +0.000 S 
ATOM     10  O   UNL     1       3.485   1.824  18.639  0.00  0.00    +0.000 OA
ATOM     11  C   UNL     1       1.010   2.397  19.271  0.00  0.00    +0.000 C 
ATOM     12  C   UNL     1       1.013   3.338  20.478  0.00  0.00    +0.000 C 
ATOM     13  C   UNL     1       2.297   4.176  20.497  0.00  0.00    +0.000 C 
ATOM     14  N   UNL     1       2.766   4.205  19.121  0.00  0.00    +0.000 N 
ENDBRANCH   2  14
ENDBRANCH   1   6
BRANCH   1  15
ATOM     15  N   UNL     1       1.191   8.886  18.855  0.00  0.00    +0.000 N 
ATOM     16  H   UNL     1       1.571   8.371  19.643  0.00  0.00    +0.000 HD
BRANCH  15  17
ATOM     17  C   UNL     1       0.505  10.003  19.362  0.00  0.00    +0.000 A 
ATOM     18  N   UNL     1       0.956  10.675  20.434  0.00  0.00    +0.000 NA
ATOM     19  C   UNL     1       0.200  11.714  20.846  0.00  0.00    +0.000 A 
ATOM     20  N   UNL     1      -0.950  12.139  20.300  0.00  0.00    +0.000 NA
ATOM     21  C   UNL     1      -1.381  11.477  19.225  0.00  0.00    +0.000 A 
ATOM     22  C   UNL     1      -2.577  11.855  18.612  0.00  0.00    +0.000 A 
ATOM     23  C   UNL     1      -3.082  11.178  17.495  0.00  0.00    +0.000 A 
ATOM     24  C   UNL     1      -2.364  10.122  16.967  0.00  0.00    +0.000 A 
ATOM     25  F   UNL     1      -2.827   9.459  15.901  0.00  0.00    +0.000 F 
ATOM     26  C   UNL     1      -1.166   9.736  17.539  0.00  0.00    +0.000 A 
ATOM     27  C   UNL     1      -0.675  10.390  18.690  0.00  0.00    +0.000 A 
ENDBRANCH  15  17
ENDBRANCH   1  15
TORSDOF 4
ENDMDL
