MODEL 1
REMARK VINA RESULT:      -8.1      0.000      0.000
REMARK  Name = 
REMARK  5 active torsions:
REMARK  status: ('A' for Active; 'I' for Inactive)
REMARK    1  A    between atoms: C_1  and  C_2
REMARK    2  A    between atoms: C_7  and  N_8
REMARK    3  A    between atoms: C_9  and  C_11
REMARK    4  A    between atoms: N_14  and  C_15
REMARK    5  A    between atoms: C_22  and  C_23
REMARK                            x       y       z     vdW  Elec       q    Type
REMARK                         _______ _______ _______ _____ _____    ______ ____
ROOT
ATOM      1  C   UNL     1       6.024   4.575  17.911  0.00  0.00    +0.000 A 
ATOM      2  C   UNL     1       6.209   5.333  19.076  0.00  0.00    +0.000 A 
ATOM      3  N   UNL     1       5.250   5.134  19.970  0.00  0.00    +0.000 NA
ATOM      4  N   UNL     1       4.412   4.222  19.404  0.00  0.00    +0.000 N 
ATOM      5  C   UNL     1       4.887   3.815  18.171  0.00  0.00    +0.000 A 
ENDROOT
BRANCH   4   6
ATOM      6  C   UNL     1       3.246   3.773  20.102  0.00  0.00    +0.000 A 
ATOM      7  N   UNL     1       3.429   2.790  21.029  0.00  0.00    +0.000 NA
ATOM      8  C   UNL     1       2.352   2.382  21.738  0.00  0.00    +0.000 A 
ATOM      9  C   UNL     1       1.080   2.892  21.555  0.00  0.00    +0.000 A 
ATOM     10  C   UNL     1       0.897   3.870  20.582  0.00  0.00    +0.000 A 
ATOM     11  C   UNL     1       1.986   4.326  19.835  0.00  0.00    +0.000 A 
ATOM     12 CL   UNL     1       1.618   5.406  18.535  0.00  0.00    +0.000 Cl
ENDBRANCH   4   6
BRANCH   1  14
ATOM     13  N   UNL     1       6.075   4.830  15.548  0.00  0.00    +0.000 N 
ATOM     14  C   UNL     1       6.812   4.565  16.690  0.00  0.00    +0.000 C 
ATOM     15  O   UNL     1       8.014   4.341  16.734  0.00  0.00    +0.000 OA
ATOM     16  H   UNL     1       5.121   5.153  15.656  0.00  0.00    +0.000 HD
BRANCH  13  23
ATOM     17  C   UNL     1       6.077   2.230  11.349  0.00  0.00    +0.000 C 
ATOM     18  C   UNL     1       6.550   3.409  12.147  0.00  0.00    +0.000 A 
ATOM     19  C   UNL     1       7.390   4.364  11.567  0.00  0.00    +0.000 A 
ATOM     20  C   UNL     1       7.814   5.454  12.315  0.00  0.00    +0.000 A 
ATOM     21  F   UNL     1       8.640   6.350  11.759  0.00  0.00    +0.000 F 
ATOM     22  C   UNL     1       7.399   5.632  13.629  0.00  0.00    +0.000 A 
ATOM     23  C   UNL     1       6.543   4.703  14.222  0.00  0.00    +0.000 A 
ATOM     24  C   UNL     1       6.146   3.576  13.482  0.00  0.00    +0.000 A 
ENDBRANCH  13  23
ENDBRANCH   1  14
BRANCH   5  25
ATOM     25  C   UNL     1       4.133   2.870  17.321  0.00  0.00    +0.000 C 
ATOM     26  F   UNL     1       4.915   2.274  16.385  0.00  0.00    +0.000 F 
ATOM     27  F   UNL     1       3.548   1.871  18.021  0.00  0.00    +0.000 F 
ATOM     28  F   UNL     1       3.168   3.506  16.605  0.00  0.00    +0.000 F 
ENDBRANCH   5  25
TORSDOF 4
ENDMDL
MODEL 2
REMARK VINA RESULT:      -7.8      4.370      5.853
REMARK  Name = 
REMARK  5 active torsions:
REMARK  status: ('A' for Active; 'I' for Inactive)
REMARK    1  A    between atoms: C_1  and  C_2
REMARK    2  A    between atoms: C_7  and  N_8
REMARK    3  A    between atoms: C_9  and  C_11
REMARK    4  A    between atoms: N_14  and  C_15
REMARK    5  A    between atoms: C_22  and  C_23
REMARK                            x       y       z     vdW  Elec       q    Type
REMARK                         _______ _______ _______ _____ _____    ______ ____
ROOT
ATOM      1  C   UNL     1       7.023   6.414  18.332  0.00  0.00    +0.000 A 
ATOM      2  C   UNL     1       7.304   5.592  19.433  0.00  0.00    +0.000 A 
ATOM      3  N   UNL     1       6.349   4.700  19.660  0.00  0.00    +0.000 NA
ATOM      4  N   UNL     1       5.415   4.917  18.692  0.00  0.00    +0.000 N 
ATOM      5  C   UNL     1       5.823   5.917  17.829  0.00  0.00    +0.000 A 
ENDROOT
BRANCH   4   6
ATOM      6  C   UNL     1       4.226   4.122  18.636  0.00  0.00    +0.000 A 
ATOM      7  N   UNL     1       4.316   2.932  17.976  0.00  0.00    +0.000 NA
ATOM      8  C   UNL     1       3.221   2.139  17.951  0.00  0.00    +0.000 A 
ATOM      9  C   UNL     1       2.017   2.482  18.538  0.00  0.00    +0.000 A 
ATOM     10  C   UNL     1       1.925   3.714  19.179  0.00  0.00    +0.000 A 
ATOM     11  C   UNL     1       3.037   4.558  19.236  0.00  0.00    +0.000 A 
ATOM     12 CL   UNL     1       2.763   6.133  19.895  0.00  0.00    +0.000 Cl
ENDBRANCH   4   6
BRANCH   1  14
ATOM     13  N   UNL     1       8.031   8.524  18.752  0.00  0.00    +0.000 N 
ATOM     14  C   UNL     1       7.781   7.538  17.812  0.00  0.00    +0.000 C 
ATOM     15  O   UNL     1       8.140   7.552  16.643  0.00  0.00    +0.000 OA
ATOM     16  H   UNL     1       7.818   8.328  19.723  0.00  0.00    +0.000 HD
BRANCH  13  23
ATOM     17  C   UNL     1      11.821  11.643  19.302  0.00  0.00    +0.000 C 
ATOM     18  C   UNL     1      10.454  11.342  18.761  0.00  0.00    +0.000 A 
ATOM     19  C   UNL     1       9.780  12.285  17.979  0.00  0.00    +0.000 A 
ATOM     20  C   UNL     1       8.519  11.990  17.479  0.00  0.00    +0.000 A 
ATOM     21  F   UNL     1       7.869  12.909  16.753  0.00  0.00    +0.000 F 
ATOM     22  C   UNL     1       7.917  10.761  17.720  0.00  0.00    +0.000 A 
ATOM     23  C   UNL     1       8.580   9.797  18.479  0.00  0.00    +0.000 A 
ATOM     24  C   UNL     1       9.838  10.107  19.023  0.00  0.00    +0.000 A 
ENDBRANCH  13  23
ENDBRANCH   1  14
BRANCH   5  25
ATOM     25  C   UNL     1       4.964   6.385  16.721  0.00  0.00    +0.000 C 
ATOM     26  F   UNL     1       3.890   7.090  17.160  0.00  0.00    +0.000 F 
ATOM     27  F   UNL     1       5.612   7.184  15.842  0.00  0.00    +0.000 F 
ATOM     28  F   UNL     1       4.430   5.343  16.031  0.00  0.00    +0.000 F 
ENDBRANCH   5  25
TORSDOF 4
ENDMDL
MODEL 3
REMARK VINA RESULT:      -7.7      1.187      1.561
REMARK  Name = 
REMARK  5 active torsions:
REMARK  status: ('A' for Active; 'I' for Inactive)
REMARK    1  A    between atoms: C_1  and  C_2
REMARK    2  A    between atoms: C_7  and  N_8
REMARK    3  A    between atoms: C_9  and  C_11
REMARK    4  A    between atoms: N_14  and  C_15
REMARK    5  A    between atoms: C_22  and  C_23
REMARK                            x       y       z     vdW  Elec       q    Type
REMARK                         _______ _______ _______ _____ _____    ______ ____
ROOT
ATOM      1  C   UNL     1       6.030   4.625  17.873  0.00  0.00    +0.000 A 
ATOM      2  C   UNL     1       6.232   5.389  19.031  0.00  0.00    +0.000 A 
ATOM      3  N   UNL     1       5.278   5.205  19.935  0.00  0.00    +0.000 NA
ATOM      4  N   UNL     1       4.427   4.297  19.382  0.00  0.00    +0.000 N 
ATOM      5  C   UNL     1       4.888   3.877  18.148  0.00  0.00    +0.000 A 
ENDROOT
BRANCH   4   6
ATOM      6  C   UNL     1       3.262   3.864  20.093  0.00  0.00    +0.000 A 
ATOM      7  N   UNL     1       2.163   4.667  20.011  0.00  0.00    +0.000 NA
ATOM      8  C   UNL     1       1.034   4.257  20.633  0.00  0.00    +0.000 A 
ATOM      9  C   UNL     1       0.947   3.084  21.360  0.00  0.00    +0.000 A 
ATOM     10  C   UNL     1       2.084   2.289  21.466  0.00  0.00    +0.000 A 
ATOM     11  C   UNL     1       3.267   2.673  20.830  0.00  0.00    +0.000 A 
ATOM     12 CL   UNL     1       4.662   1.711  21.175  0.00  0.00    +0.000 Cl
ENDBRANCH   4   6
BRANCH   1  14
ATOM     13  N   UNL     1       6.064   4.861  15.509  0.00  0.00    +0.000 N 
ATOM     14  C   UNL     1       6.808   4.598  16.647  0.00  0.00    +0.000 C 
ATOM     15  O   UNL     1       8.008   4.365  16.682  0.00  0.00    +0.000 OA
ATOM     16  H   UNL     1       5.113   5.193  15.622  0.00  0.00    +0.000 HD
BRANCH  13  23
ATOM     17  C   UNL     1       6.051   2.201  11.347  0.00  0.00    +0.000 C 
ATOM     18  C   UNL     1       6.519   3.396  12.123  0.00  0.00    +0.000 A 
ATOM     19  C   UNL     1       7.344   4.351  11.521  0.00  0.00    +0.000 A 
ATOM     20  C   UNL     1       7.764   5.456  12.249  0.00  0.00    +0.000 A 
ATOM     21  F   UNL     1       8.576   6.352  11.673  0.00  0.00    +0.000 F 
ATOM     22  C   UNL     1       7.361   5.648  13.565  0.00  0.00    +0.000 A 
ATOM     23  C   UNL     1       6.520   4.720  14.179  0.00  0.00    +0.000 A 
ATOM     24  C   UNL     1       6.127   3.578  13.460  0.00  0.00    +0.000 A 
ENDBRANCH  13  23
ENDBRANCH   1  14
BRANCH   5  25
ATOM     25  C   UNL     1       4.118   2.934  17.311  0.00  0.00    +0.000 C 
ATOM     26  F   UNL     1       3.692   1.849  18.009  0.00  0.00    +0.000 F 
ATOM     27  F   UNL     1       3.015   3.487  16.757  0.00  0.00    +0.000 F 
ATOM     28  F   UNL     1       4.881   2.418  16.311  0.00  0.00    +0.000 F 
ENDBRANCH   5  25
TORSDOF 4
ENDMDL
MODEL 4
REMARK VINA RESULT:      -7.6      4.721      6.539
REMARK  Name = 
REMARK  5 active torsions:
REMARK  status: ('A' for Active; 'I' for Inactive)
REMARK    1  A    between atoms: C_1  and  C_2
REMARK    2  A    between atoms: C_7  and  N_8
REMARK    3  A    between atoms: C_9  and  C_11
REMARK    4  A    between atoms: N_14  and  C_15
REMARK    5  A    between atoms: C_22  and  C_23
REMARK                            x       y       z     vdW  Elec       q    Type
REMARK                         _______ _______ _______ _____ _____    ______ ____
ROOT
ATOM      1  C   UNL     1       7.362   6.808  18.233  0.00  0.00    +0.000 A 
ATOM      2  C   UNL     1       7.989   5.756  18.913  0.00  0.00    +0.000 A 
ATOM      3  N   UNL     1       7.208   4.691  19.036  0.00  0.00    +0.000 NA
ATOM      4  N   UNL     1       6.040   5.027  18.421  0.00  0.00    +0.000 N 
ATOM      5  C   UNL     1       6.122   6.292  17.867  0.00  0.00    +0.000 A 
ENDROOT
BRANCH   4   6
ATOM      6  C   UNL     1       4.952   4.099  18.367  0.00  0.00    +0.000 A 
ATOM      7  N   UNL     1       4.272   3.886  19.530  0.00  0.00    +0.000 NA
ATOM      8  C   UNL     1       3.209   3.052  19.496  0.00  0.00    +0.000 A 
ATOM      9  C   UNL     1       2.793   2.392  18.355  0.00  0.00    +0.000 A 
ATOM     10  C   UNL     1       3.514   2.589  17.181  0.00  0.00    +0.000 A 
ATOM     11  C   UNL     1       4.613   3.451  17.172  0.00  0.00    +0.000 A 
ATOM     12 CL   UNL     1       5.542   3.483  15.714  0.00  0.00    +0.000 Cl
ENDBRANCH   4   6
BRANCH   1  14
ATOM     13  N   UNL     1       8.723   8.628  18.928  0.00  0.00    +0.000 N 
ATOM     14  C   UNL     1       7.858   8.146  17.959  0.00  0.00    +0.000 C 
ATOM     15  O   UNL     1       7.510   8.738  16.947  0.00  0.00    +0.000 OA
ATOM     16  H   UNL     1       9.056   7.987  19.637  0.00  0.00    +0.000 HD
BRANCH  13  23
ATOM     17  C   UNL     1       9.658  12.564  21.761  0.00  0.00    +0.000 C 
ATOM     18  C   UNL     1       9.658  11.904  20.414  0.00  0.00    +0.000 A 
ATOM     19  C   UNL     1      10.162  12.577  19.297  0.00  0.00    +0.000 A 
ATOM     20  C   UNL     1      10.163  11.951  18.058  0.00  0.00    +0.000 A 
ATOM     21  F   UNL     1      10.624  12.613  16.988  0.00  0.00    +0.000 F 
ATOM     22  C   UNL     1       9.692  10.652  17.906  0.00  0.00    +0.000 A 
ATOM     23  C   UNL     1       9.204   9.954  19.010  0.00  0.00    +0.000 A 
ATOM     24  C   UNL     1       9.162  10.598  20.258  0.00  0.00    +0.000 A 
ENDBRANCH  13  23
ENDBRANCH   1  14
BRANCH   5  25
ATOM     25  C   UNL     1       4.968   6.918  17.190  0.00  0.00    +0.000 C 
ATOM     26  F   UNL     1       3.819   6.214  17.361  0.00  0.00    +0.000 F 
ATOM     27  F   UNL     1       4.712   8.175  17.622  0.00  0.00    +0.000 F 
ATOM     28  F   UNL     1       5.144   6.962  15.843  0.00  0.00    +0.000 F 
ENDBRANCH   5  25
TORSDOF 4
ENDMDL
MODEL 5
REMARK VINA RESULT:      -7.5      5.772      8.276
REMARK  Name = 
REMARK  5 active torsions:
REMARK  status: ('A' for Active; 'I' for Inactive)
REMARK    1  A    between atoms: C_1  and  C_2
REMARK    2  A    between atoms: C_7  and  N_8
REMARK    3  A    between atoms: C_9  and  C_11
REMARK    4  A    between atoms: N_14  and  C_15
REMARK    5  A    between atoms: C_22  and  C_23
REMARK                            x       y       z     vdW  Elec       q    Type
REMARK                         _______ _______ _______ _____ _____    ______ ____
ROOT
ATOM      1  C   UNL     1       2.213   8.134  18.751  0.00  0.00    +0.000 A 
ATOM      2  C   UNL     1       2.361   8.838  17.548  0.00  0.00    +0.000 A 
ATOM      3  N   UNL     1       1.739  10.010  17.563  0.00  0.00    +0.000 NA
ATOM      4  N   UNL     1       1.172  10.102  18.798  0.00  0.00    +0.000 N 
ATOM      5  C   UNL     1       1.492   8.999  19.570  0.00  0.00    +0.000 A 
ENDROOT
BRANCH   4   6
ATOM      6  C   UNL     1       0.408  11.255  19.164  0.00  0.00    +0.000 A 
ATOM      7  N   UNL     1       1.074  12.246  19.821  0.00  0.00    +0.000 NA
ATOM      8  C   UNL     1       0.387  13.368  20.136  0.00  0.00    +0.000 A 
ATOM      9  C   UNL     1      -0.953  13.549  19.846  0.00  0.00    +0.000 A 
ATOM     10  C   UNL     1      -1.632  12.517  19.206  0.00  0.00    +0.000 A 
ATOM     11  C   UNL     1      -0.956  11.346  18.855  0.00  0.00    +0.000 A 
ATOM     12 CL   UNL     1      -1.932  10.062  18.231  0.00  0.00    +0.000 Cl
ENDBRANCH   4   6
BRANCH   1  14
ATOM     13  N   UNL     1       1.697   5.833  19.041  0.00  0.00    +0.000 N 
ATOM     14  C   UNL     1       2.683   6.804  19.097  0.00  0.00    +0.000 C 
ATOM     15  O   UNL     1       3.854   6.622  19.397  0.00  0.00    +0.000 OA
ATOM     16  H   UNL     1       0.804   6.077  18.629  0.00  0.00    +0.000 HD
BRANCH  13  23
ATOM     17  C   UNL     1       3.535   1.313  18.274  0.00  0.00    +0.000 C 
ATOM     18  C   UNL     1       2.733   2.264  19.113  0.00  0.00    +0.000 A 
ATOM     19  C   UNL     1       2.179   1.843  20.326  0.00  0.00    +0.000 A 
ATOM     20  C   UNL     1       1.446   2.736  21.095  0.00  0.00    +0.000 A 
ATOM     21  F   UNL     1       0.896   2.317  22.243  0.00  0.00    +0.000 F 
ATOM     22  C   UNL     1       1.268   4.055  20.696  0.00  0.00    +0.000 A 
ATOM     23  C   UNL     1       1.829   4.503  19.500  0.00  0.00    +0.000 A 
ATOM     24  C   UNL     1       2.536   3.592  18.697  0.00  0.00    +0.000 A 
ENDBRANCH  13  23
ENDBRANCH   1  14
BRANCH   5  25
ATOM     25  C   UNL     1       0.954   8.826  20.935  0.00  0.00    +0.000 C 
ATOM     26  F   UNL     1       1.302   7.633  21.483  0.00  0.00    +0.000 F 
ATOM     27  F   UNL     1       1.371   9.778  21.800  0.00  0.00    +0.000 F 
ATOM     28  F   UNL     1      -0.405   8.819  20.937  0.00  0.00    +0.000 F 
ENDBRANCH   5  25
TORSDOF 4
ENDMDL
MODEL 6
REMARK VINA RESULT:      -7.4      5.977      7.960
REMARK  Name = 
REMARK  5 active torsions:
REMARK  status: ('A' for Active; 'I' for Inactive)
REMARK    1  A    between atoms: C_1  and  C_2
REMARK    2  A    between atoms: C_7  and  N_8
REMARK    3  A    between atoms: C_9  and  C_11
REMARK    4  A    between atoms: N_14  and  C_15
REMARK    5  A    between atoms: C_22  and  C_23
REMARK                            x       y       z     vdW  Elec       q    Type
REMARK                         _______ _______ _______ _____ _____    ______ ____
ROOT
ATOM      1  C   UNL     1       1.373   8.413  20.662  0.00  0.00    +0.000 A 
ATOM      2  C   UNL     1       1.237   9.072  21.892  0.00  0.00    +0.000 A 
ATOM      3  N   UNL     1       1.031  10.375  21.753  0.00  0.00    +0.000 NA
ATOM      4  N   UNL     1       1.019  10.597  20.409  0.00  0.00    +0.000 N 
ATOM      5  C   UNL     1       1.165   9.411  19.713  0.00  0.00    +0.000 A 
ENDROOT
BRANCH   4   6
ATOM      6  C   UNL     1       0.822  11.916  19.891  0.00  0.00    +0.000 A 
ATOM      7  N   UNL     1       1.906  12.743  19.894  0.00  0.00    +0.000 NA
ATOM      8  C   UNL     1       1.761  13.978  19.365  0.00  0.00    +0.000 A 
ATOM      9  C   UNL     1       0.570  14.449  18.844  0.00  0.00    +0.000 A 
ATOM     10  C   UNL     1      -0.541  13.611  18.877  0.00  0.00    +0.000 A 
ATOM     11  C   UNL     1      -0.429  12.323  19.406  0.00  0.00    +0.000 A 
ATOM     12 CL   UNL     1      -1.904  11.434  19.563  0.00  0.00    +0.000 Cl
ENDBRANCH   4   6
BRANCH   1  14
ATOM     13  N   UNL     1       2.926   6.806  19.856  0.00  0.00    +0.000 N 
ATOM     14  C   UNL     1       1.669   7.016  20.399  0.00  0.00    +0.000 C 
ATOM     15  O   UNL     1       0.845   6.150  20.660  0.00  0.00    +0.000 OA
ATOM     16  H   UNL     1       3.576   7.583  19.832  0.00  0.00    +0.000 HD
BRANCH  13  23
ATOM     17  C   UNL     1       4.950   4.382  16.059  0.00  0.00    +0.000 C 
ATOM     18  C   UNL     1       4.395   4.381  17.452  0.00  0.00    +0.000 A 
ATOM     19  C   UNL     1       4.395   3.208  18.213  0.00  0.00    +0.000 A 
ATOM     20  C   UNL     1       3.885   3.224  19.504  0.00  0.00    +0.000 A 
ATOM     21  F   UNL     1       3.865   2.090  20.216  0.00  0.00    +0.000 F 
ATOM     22  C   UNL     1       3.392   4.393  20.070  0.00  0.00    +0.000 A 
ATOM     23  C   UNL     1       3.401   5.580  19.338  0.00  0.00    +0.000 A 
ATOM     24  C   UNL     1       3.877   5.560  18.016  0.00  0.00    +0.000 A 
ENDBRANCH  13  23
ENDBRANCH   1  14
BRANCH   5  25
ATOM     25  C   UNL     1       1.242   9.381  18.238  0.00  0.00    +0.000 C 
ATOM     26  F   UNL     1       1.643   8.174  17.762  0.00  0.00    +0.000 F 
ATOM     27  F   UNL     1       0.062   9.655  17.635  0.00  0.00    +0.000 F 
ATOM     28  F   UNL     1       2.169  10.258  17.770  0.00  0.00    +0.000 F 
ENDBRANCH   5  25
TORSDOF 4
ENDMDL
MODEL 7
REMARK VINA RESULT:      -7.4      5.152      6.459
REMARK  Name = 
REMARK  5 active torsions:
REMARK  status: ('A' for Active; 'I' for Inactive)
REMARK    1  A    between atoms: C_1  and  C_2
REMARK    2  A    between atoms: C_7  and  N_8
REMARK    3  A    between atoms: C_9  and  C_11
REMARK    4  A    between atoms: N_14  and  C_15
REMARK    5  A    between atoms: C_22  and  C_23
REMARK                            x       y       z     vdW  Elec       q    Type
REMARK                         _______ _______ _______ _____ _____    ______ ____
ROOT
ATOM      1  C   UNL     1       2.087   7.239  19.617  0.00  0.00    +0.000 A 
ATOM      2  C   UNL     1       1.588   7.192  20.927  0.00  0.00    +0.000 A 
ATOM      3  N   UNL     1       1.006   8.327  21.292  0.00  0.00    +0.000 NA
ATOM      4  N   UNL     1       1.106   9.148  20.209  0.00  0.00    +0.000 N 
ATOM      5  C   UNL     1       1.708   8.494  19.149  0.00  0.00    +0.000 A 
ENDROOT
BRANCH   4   6
ATOM      6  C   UNL     1       0.578  10.478  20.253  0.00  0.00    +0.000 A 
ATOM      7  N   UNL     1       1.261  11.382  21.012  0.00  0.00    +0.000 NA
ATOM      8  C   UNL     1       0.812  12.657  21.031  0.00  0.00    +0.000 A 
ATOM      9  C   UNL     1      -0.309  13.082  20.342  0.00  0.00    +0.000 A 
ATOM     10  C   UNL     1      -1.019  12.144  19.598  0.00  0.00    +0.000 A 
ATOM     11  C   UNL     1      -0.582  10.818  19.545  0.00  0.00    +0.000 A 
ATOM     12 CL   UNL     1      -1.633   9.703  18.744  0.00  0.00    +0.000 Cl
ENDBRANCH   4   6
BRANCH   1  14
ATOM     13  N   UNL     1       4.198   6.488  18.826  0.00  0.00    +0.000 N 
ATOM     14  C   UNL     1       2.838   6.233  18.887  0.00  0.00    +0.000 C 
ATOM     15  O   UNL     1       2.265   5.269  18.398  0.00  0.00    +0.000 OA
ATOM     16  H   UNL     1       4.574   7.233  19.401  0.00  0.00    +0.000 HD
BRANCH  13  23
ATOM     17  C   UNL     1       5.322   4.567  14.417  0.00  0.00    +0.000 C 
ATOM     18  C   UNL     1       5.680   4.824  15.851  0.00  0.00    +0.000 A 
ATOM     19  C   UNL     1       6.915   4.410  16.357  0.00  0.00    +0.000 A 
ATOM     20  C   UNL     1       7.236   4.662  17.683  0.00  0.00    +0.000 A 
ATOM     21  F   UNL     1       8.412   4.238  18.167  0.00  0.00    +0.000 F 
ATOM     22  C   UNL     1       6.359   5.341  18.521  0.00  0.00    +0.000 A 
ATOM     23  C   UNL     1       5.130   5.782  18.033  0.00  0.00    +0.000 A 
ATOM     24  C   UNL     1       4.783   5.493  16.702  0.00  0.00    +0.000 A 
ENDBRANCH  13  23
ENDBRANCH   1  14
BRANCH   5  25
ATOM     25  C   UNL     1       1.987   9.182  17.872  0.00  0.00    +0.000 C 
ATOM     26  F   UNL     1       0.871   9.350  17.117  0.00  0.00    +0.000 F 
ATOM     27  F   UNL     1       2.528  10.412  18.032  0.00  0.00    +0.000 F 
ATOM     28  F   UNL     1       2.823   8.452  17.086  0.00  0.00    +0.000 F 
ENDBRANCH   5  25
TORSDOF 4
ENDMDL
MODEL 8
REMARK VINA RESULT:      -7.4      5.691      8.085
REMARK  Name = 
REMARK  5 active torsions:
REMARK  status: ('A' for Active; 'I' for Inactive)
REMARK    1  A    between atoms: C_1  and  C_2
REMARK    2  A    between atoms: C_7  and  N_8
REMARK    3  A    between atoms: C_9  and  C_11
REMARK    4  A    between atoms: N_14  and  C_15
REMARK    5  A    between atoms: C_22  and  C_23
REMARK                            x       y       z     vdW  Elec       q    Type
REMARK                         _______ _______ _______ _____ _____    ______ ____
ROOT
ATOM      1  C   UNL     1       2.208   8.220  18.655  0.00  0.00    +0.000 A 
ATOM      2  C   UNL     1       2.328   9.044  17.527  0.00  0.00    +0.000 A 
ATOM      3  N   UNL     1       1.687  10.197  17.668  0.00  0.00    +0.000 NA
ATOM      4  N   UNL     1       1.135  10.153  18.912  0.00  0.00    +0.000 N 
ATOM      5  C   UNL     1       1.483   8.984  19.565  0.00  0.00    +0.000 A 
ENDROOT
BRANCH   4   6
ATOM      6  C   UNL     1       0.355  11.249  19.401  0.00  0.00    +0.000 A 
ATOM      7  N   UNL     1       0.998  12.146  20.202  0.00  0.00    +0.000 NA
ATOM      8  C   UNL     1       0.298  13.218  20.639  0.00  0.00    +0.000 A 
ATOM      9  C   UNL     1      -1.033  13.436  20.333  0.00  0.00    +0.000 A 
ATOM     10  C   UNL     1      -1.689  12.496  19.543  0.00  0.00    +0.000 A 
ATOM     11  C   UNL     1      -0.999  11.381  19.065  0.00  0.00    +0.000 A 
ATOM     12 CL   UNL     1      -1.951  10.190  18.248  0.00  0.00    +0.000 Cl
ENDBRANCH   4   6
BRANCH   1  14
ATOM     13  N   UNL     1       1.758   5.886  18.629  0.00  0.00    +0.000 N 
ATOM     14  C   UNL     1       2.705   6.870  18.860  0.00  0.00    +0.000 C 
ATOM     15  O   UNL     1       3.865   6.685  19.202  0.00  0.00    +0.000 OA
ATOM     16  H   UNL     1       0.880   6.155  18.200  0.00  0.00    +0.000 HD
BRANCH  13  23
ATOM     17  C   UNL     1       1.357   2.265  21.962  0.00  0.00    +0.000 C 
ATOM     18  C   UNL     1       1.721   2.724  20.581  0.00  0.00    +0.000 A 
ATOM     19  C   UNL     1       2.153   1.805  19.621  0.00  0.00    +0.000 A 
ATOM     20  C   UNL     1       2.479   2.243  18.345  0.00  0.00    +0.000 A 
ATOM     21  F   UNL     1       2.919   1.360  17.439  0.00  0.00    +0.000 F 
ATOM     22  C   UNL     1       2.362   3.582  17.991  0.00  0.00    +0.000 A 
ATOM     23  C   UNL     1       1.912   4.514  18.926  0.00  0.00    +0.000 A 
ATOM     24  C   UNL     1       1.621   4.081  20.231  0.00  0.00    +0.000 A 
ENDBRANCH  13  23
ENDBRANCH   1  14
BRANCH   5  25
ATOM     25  C   UNL     1       0.966   8.664  20.911  0.00  0.00    +0.000 C 
ATOM     26  F   UNL     1      -0.371   8.876  21.019  0.00  0.00    +0.000 F 
ATOM     27  F   UNL     1       1.178   7.379  21.275  0.00  0.00    +0.000 F 
ATOM     28  F   UNL     1       1.516   9.468  21.860  0.00  0.00    +0.000 F 
ENDBRANCH   5  25
TORSDOF 4
ENDMDL
MODEL 9
REMARK VINA RESULT:      -7.4      4.497      5.878
REMARK  Name = 
REMARK  5 active torsions:
REMARK  status: ('A' for Active; 'I' for Inactive)
REMARK    1  A    between atoms: C_1  and  C_2
REMARK    2  A    between atoms: C_7  and  N_8
REMARK    3  A    between atoms: C_9  and  C_11
REMARK    4  A    between atoms: N_14  and  C_15
REMARK    5  A    between atoms: C_22  and  C_23
REMARK                            x       y       z     vdW  Elec       q    Type
REMARK                         _______ _______ _______ _____ _____    ______ ____
ROOT
ATOM      1  C   UNL     1       7.069   6.472  18.381  0.00  0.00    +0.000 A 
ATOM      2  C   UNL     1       7.354   5.607  19.447  0.00  0.00    +0.000 A 
ATOM      3  N   UNL     1       6.391   4.717  19.652  0.00  0.00    +0.000 NA
ATOM      4  N   UNL     1       5.449   4.980  18.704  0.00  0.00    +0.000 N 
ATOM      5  C   UNL     1       5.859   6.008  17.874  0.00  0.00    +0.000 A 
ENDROOT
BRANCH   4   6
ATOM      6  C   UNL     1       4.250   4.201  18.633  0.00  0.00    +0.000 A 
ATOM      7  N   UNL     1       4.341   2.996  18.003  0.00  0.00    +0.000 NA
ATOM      8  C   UNL     1       3.235   2.218  17.965  0.00  0.00    +0.000 A 
ATOM      9  C   UNL     1       2.021   2.592  18.510  0.00  0.00    +0.000 A 
ATOM     10  C   UNL     1       1.929   3.839  19.120  0.00  0.00    +0.000 A 
ATOM     11  C   UNL     1       3.051   4.668  19.189  0.00  0.00    +0.000 A 
ATOM     12 CL   UNL     1       2.783   6.262  19.805  0.00  0.00    +0.000 Cl
ENDBRANCH   4   6
BRANCH   1  14
ATOM     13  N   UNL     1       8.205   8.496  18.889  0.00  0.00    +0.000 N 
ATOM     14  C   UNL     1       7.834   7.607  17.894  0.00  0.00    +0.000 C 
ATOM     15  O   UNL     1       8.099   7.708  16.704  0.00  0.00    +0.000 OA
ATOM     16  H   UNL     1       8.064   8.225  19.854  0.00  0.00    +0.000 HD
BRANCH  13  23
ATOM     17  C   UNL     1       7.743  13.050  17.032  0.00  0.00    +0.000 C 
ATOM     18  C   UNL     1       8.561  12.017  17.749  0.00  0.00    +0.000 A 
ATOM     19  C   UNL     1       9.838  12.330  18.224  0.00  0.00    +0.000 A 
ATOM     20  C   UNL     1      10.580  11.366  18.893  0.00  0.00    +0.000 A 
ATOM     21  F   UNL     1      11.813  11.666  19.321  0.00  0.00    +0.000 F 
ATOM     22  C   UNL     1      10.070  10.094  19.123  0.00  0.00    +0.000 A 
ATOM     23  C   UNL     1       8.789   9.765  18.678  0.00  0.00    +0.000 A 
ATOM     24  C   UNL     1       8.051  10.725  17.963  0.00  0.00    +0.000 A 
ENDBRANCH  13  23
ENDBRANCH   1  14
BRANCH   5  25
ATOM     25  C   UNL     1       4.992   6.526  16.795  0.00  0.00    +0.000 C 
ATOM     26  F   UNL     1       4.225   5.557  16.234  0.00  0.00    +0.000 F 
ATOM     27  F   UNL     1       4.142   7.493  17.211  0.00  0.00    +0.000 F 
ATOM     28  F   UNL     1       5.725   7.023  15.764  0.00  0.00    +0.000 F 
ENDBRANCH   5  25
TORSDOF 4
ENDMDL
