MODEL 1
REMARK VINA RESULT:      -8.3      0.000      0.000
REMARK  Name = 
REMARK  4 active torsions:
REMARK  status: ('A' for Active; 'I' for Inactive)
REMARK    1  A    between atoms: C_2  and  C_14
REMARK    2  A    between atoms: N_3  and  C_4
REMARK    3  A    between atoms: C_16  and  C_17
REMARK    4  A    between atoms: N_21  and  C_22
REMARK                            x       y       z     vdW  Elec       q    Type
REMARK                         _______ _______ _______ _____ _____    ______ ____
ROOT
ATOM      1  O   UNL     1       1.221   7.124  17.441  0.00  0.00    +0.000 OA
ATOM      2  C   UNL     1       2.128   7.414  18.212  0.00  0.00    +0.000 C 
ATOM      3  N   UNL     1       2.064   8.422  19.159  0.00  0.00    +0.000 N 
ATOM      4  H   UNL     1       2.902   8.661  19.681  0.00  0.00    +0.000 HD
ENDROOT
BRANCH   3   5
ATOM      5  C   UNL     1       1.009   9.366  19.311  0.00  0.00    +0.000 A 
ATOM      6  C   UNL     1       0.478  10.077  18.227  0.00  0.00    +0.000 A 
ATOM      7  C   UNL     1      -0.479  11.066  18.422  0.00  0.00    +0.000 A 
ATOM      8  C   UNL     1      -0.923  11.347  19.706  0.00  0.00    +0.000 A 
ATOM      9  C   UNL     1      -0.433  10.615  20.798  0.00  0.00    +0.000 A 
ATOM     10  C   UNL     1      -0.886  10.891  22.094  0.00  0.00    +0.000 A 
ATOM     11  C   UNL     1      -0.399  10.157  23.165  0.00  0.00    +0.000 A 
ATOM     12  C   UNL     1       0.525   9.167  22.901  0.00  0.00    +0.000 A 
ATOM     13  N   UNL     1       1.007   8.883  21.667  0.00  0.00    +0.000 NA
ATOM     14  C   UNL     1       0.533   9.597  20.615  0.00  0.00    +0.000 A 
ENDBRANCH   3   5
BRANCH   2  15
ATOM     15  C   UNL     1       3.395   6.735  18.148  0.00  0.00    +0.000 A 
ATOM     16  C   UNL     1       4.583   7.151  17.574  0.00  0.00    +0.000 A 
ATOM     17  C   UNL     1       5.535   6.208  17.989  0.00  0.00    +0.000 A 
ATOM     18  N   UNL     1       5.018   5.283  18.794  0.00  0.00    +0.000 NA
ATOM     19  N   UNL     1       3.679   5.535  18.794  0.00  0.00    +0.000 N 
BRANCH  19  20
ATOM     20  C   UNL     1       2.786   4.562  19.336  0.00  0.00    +0.000 A 
ATOM     21  C   UNL     1       2.191   3.621  18.483  0.00  0.00    +0.000 A 
ATOM     22  C   UNL     1       1.322   2.655  18.998  0.00  0.00    +0.000 A 
ATOM     23  C   UNL     1       1.017   2.640  20.359  0.00  0.00    +0.000 A 
ATOM     24  C   UNL     1       1.578   3.594  21.206  0.00  0.00    +0.000 A 
ATOM     25  C   UNL     1       2.457   4.552  20.699  0.00  0.00    +0.000 A 
ENDBRANCH  19  20
BRANCH  17  26
ATOM     26  C   UNL     1       6.992   6.251  17.561  0.00  0.00    +0.000 C 
ATOM     27  C   UNL     1       8.015   6.671  18.600  0.00  0.00    +0.000 C 
ATOM     28  C   UNL     1       7.711   7.579  17.461  0.00  0.00    +0.000 C 
ENDBRANCH  17  26
ENDBRANCH   2  15
TORSDOF 4
ENDMDL
MODEL 2
REMARK VINA RESULT:      -8.1      1.606      2.714
REMARK  Name = 
REMARK  4 active torsions:
REMARK  status: ('A' for Active; 'I' for Inactive)
REMARK    1  A    between atoms: C_2  and  C_14
REMARK    2  A    between atoms: N_3  and  C_4
REMARK    3  A    between atoms: C_16  and  C_17
REMARK    4  A    between atoms: N_21  and  C_22
REMARK                            x       y       z     vdW  Elec       q    Type
REMARK                         _______ _______ _______ _____ _____    ______ ____
ROOT
ATOM      1  O   UNL     1       1.733   7.424  20.519  0.00  0.00    +0.000 OA
ATOM      2  C   UNL     1       2.062   7.856  19.421  0.00  0.00    +0.000 C 
ATOM      3  N   UNL     1       1.671   9.080  18.907  0.00  0.00    +0.000 N 
ATOM      4  H   UNL     1       1.905   9.308  17.946  0.00  0.00    +0.000 HD
ENDROOT
BRANCH   3   5
ATOM      5  C   UNL     1       0.731   9.976  19.493  0.00  0.00    +0.000 A 
ATOM      6  C   UNL     1       0.936  10.558  20.751  0.00  0.00    +0.000 A 
ATOM      7  C   UNL     1      -0.046  11.346  21.341  0.00  0.00    +0.000 A 
ATOM      8  C   UNL     1      -1.241  11.568  20.671  0.00  0.00    +0.000 A 
ATOM      9  C   UNL     1      -1.445  11.027  19.393  0.00  0.00    +0.000 A 
ATOM     10  C   UNL     1      -2.647  11.256  18.712  0.00  0.00    +0.000 A 
ATOM     11  C   UNL     1      -2.835  10.722  17.446  0.00  0.00    +0.000 A 
ATOM     12  C   UNL     1      -1.809   9.977  16.903  0.00  0.00    +0.000 A 
ATOM     13  N   UNL     1      -0.640   9.711  17.536  0.00  0.00    +0.000 NA
ATOM     14  C   UNL     1      -0.450  10.232  18.774  0.00  0.00    +0.000 A 
ENDBRANCH   3   5
BRANCH   2  15
ATOM     15  C   UNL     1       2.867   7.064  18.530  0.00  0.00    +0.000 A 
ATOM     16  C   UNL     1       3.618   7.466  17.439  0.00  0.00    +0.000 A 
ATOM     17  C   UNL     1       4.361   6.334  17.074  0.00  0.00    +0.000 A 
ATOM     18  N   UNL     1       4.142   5.299  17.881  0.00  0.00    +0.000 NA
ATOM     19  N   UNL     1       3.134   5.709  18.701  0.00  0.00    +0.000 N 
BRANCH  19  20
ATOM     20  C   UNL     1       2.459   4.747  19.512  0.00  0.00    +0.000 A 
ATOM     21  C   UNL     1       1.378   4.031  18.977  0.00  0.00    +0.000 A 
ATOM     22  C   UNL     1       0.713   3.078  19.754  0.00  0.00    +0.000 A 
ATOM     23  C   UNL     1       1.100   2.855  21.075  0.00  0.00    +0.000 A 
ATOM     24  C   UNL     1       2.152   3.587  21.623  0.00  0.00    +0.000 A 
ATOM     25  C   UNL     1       2.829   4.530  20.848  0.00  0.00    +0.000 A 
ENDBRANCH  19  20
BRANCH  17  26
ATOM     26  C   UNL     1       5.309   6.306  15.887  0.00  0.00    +0.000 C 
ATOM     27  C   UNL     1       5.377   5.025  15.075  0.00  0.00    +0.000 C 
ATOM     28  C   UNL     1       6.536   5.420  15.922  0.00  0.00    +0.000 C 
ENDBRANCH  17  26
ENDBRANCH   2  15
TORSDOF 4
ENDMDL
MODEL 3
REMARK VINA RESULT:      -8.1      2.167      2.866
REMARK  Name = 
REMARK  4 active torsions:
REMARK  status: ('A' for Active; 'I' for Inactive)
REMARK    1  A    between atoms: C_2  and  C_14
REMARK    2  A    between atoms: N_3  and  C_4
REMARK    3  A    between atoms: C_16  and  C_17
REMARK    4  A    between atoms: N_21  and  C_22
REMARK                            x       y       z     vdW  Elec       q    Type
REMARK                         _______ _______ _______ _____ _____    ______ ____
ROOT
ATOM      1  O   UNL     1       2.066   7.717  19.856  0.00  0.00    +0.000 OA
ATOM      2  C   UNL     1       2.345   7.878  18.675  0.00  0.00    +0.000 C 
ATOM      3  N   UNL     1       1.835   8.887  17.876  0.00  0.00    +0.000 N 
ATOM      4  H   UNL     1       2.040   8.879  16.882  0.00  0.00    +0.000 HD
ENDROOT
BRANCH   3   5
ATOM      5  C   UNL     1       0.818   9.815  18.241  0.00  0.00    +0.000 A 
ATOM      6  C   UNL     1      -0.512   9.423  18.450  0.00  0.00    +0.000 A 
ATOM      7  C   UNL     1      -1.502  10.366  18.703  0.00  0.00    +0.000 A 
ATOM      8  C   UNL     1      -1.168  11.712  18.760  0.00  0.00    +0.000 A 
ATOM      9  C   UNL     1       0.165  12.117  18.595  0.00  0.00    +0.000 A 
ATOM     10  C   UNL     1       0.505  13.474  18.660  0.00  0.00    +0.000 A 
ATOM     11  C   UNL     1       1.827  13.861  18.502  0.00  0.00    +0.000 A 
ATOM     12  C   UNL     1       2.766  12.874  18.286  0.00  0.00    +0.000 A 
ATOM     13  N   UNL     1       2.478  11.553  18.193  0.00  0.00    +0.000 NA
ATOM     14  C   UNL     1       1.187  11.168  18.348  0.00  0.00    +0.000 A 
ENDBRANCH   3   5
BRANCH   2  15
ATOM     15  C   UNL     1       3.217   6.960  17.991  0.00  0.00    +0.000 A 
ATOM     16  C   UNL     1       4.119   7.204  16.972  0.00  0.00    +0.000 A 
ATOM     17  C   UNL     1       4.845   6.012  16.837  0.00  0.00    +0.000 A 
ATOM     18  N   UNL     1       4.472   5.087  17.719  0.00  0.00    +0.000 NA
ATOM     19  N   UNL     1       3.390   5.626  18.347  0.00  0.00    +0.000 N 
BRANCH  19  20
ATOM     20  C   UNL     1       2.570   4.789  19.163  0.00  0.00    +0.000 A 
ATOM     21  C   UNL     1       2.862   4.658  20.529  0.00  0.00    +0.000 A 
ATOM     22  C   UNL     1       2.063   3.852  21.344  0.00  0.00    +0.000 A 
ATOM     23  C   UNL     1       0.989   3.149  20.800  0.00  0.00    +0.000 A 
ATOM     24  C   UNL     1       0.714   3.248  19.438  0.00  0.00    +0.000 A 
ATOM     25  C   UNL     1       1.500   4.062  18.620  0.00  0.00    +0.000 A 
ENDBRANCH  19  20
BRANCH  17  26
ATOM     26  C   UNL     1       5.934   5.811  15.797  0.00  0.00    +0.000 C 
ATOM     27  C   UNL     1       5.698   4.757  14.730  0.00  0.00    +0.000 C 
ATOM     28  C   UNL     1       6.731   4.524  15.777  0.00  0.00    +0.000 C 
ENDBRANCH  17  26
ENDBRANCH   2  15
TORSDOF 4
ENDMDL
MODEL 4
REMARK VINA RESULT:      -7.7      3.061      5.652
REMARK  Name = 
REMARK  4 active torsions:
REMARK  status: ('A' for Active; 'I' for Inactive)
REMARK    1  A    between atoms: C_2  and  C_14
REMARK    2  A    between atoms: N_3  and  C_4
REMARK    3  A    between atoms: C_16  and  C_17
REMARK    4  A    between atoms: N_21  and  C_22
REMARK                            x       y       z     vdW  Elec       q    Type
REMARK                         _______ _______ _______ _____ _____    ______ ____
ROOT
ATOM      1  O   UNL     1       3.291   3.407  17.012  0.00  0.00    +0.000 OA
ATOM      2  C   UNL     1       4.176   4.251  16.953  0.00  0.00    +0.000 C 
ATOM      3  N   UNL     1       4.338   5.286  17.858  0.00  0.00    +0.000 N 
ATOM      4  H   UNL     1       5.035   6.001  17.670  0.00  0.00    +0.000 HD
ENDROOT
BRANCH   3   5
ATOM      5  C   UNL     1       3.446   5.624  18.917  0.00  0.00    +0.000 A 
ATOM      6  C   UNL     1       3.165   4.742  19.969  0.00  0.00    +0.000 A 
ATOM      7  C   UNL     1       2.213   5.059  20.931  0.00  0.00    +0.000 A 
ATOM      8  C   UNL     1       1.539   6.270  20.855  0.00  0.00    +0.000 A 
ATOM      9  C   UNL     1       1.838   7.182  19.831  0.00  0.00    +0.000 A 
ATOM     10  C   UNL     1       1.164   8.407  19.757  0.00  0.00    +0.000 A 
ATOM     11  C   UNL     1       1.473   9.304  18.746  0.00  0.00    +0.000 A 
ATOM     12  C   UNL     1       2.451   8.943  17.842  0.00  0.00    +0.000 A 
ATOM     13  N   UNL     1       3.111   7.759  17.863  0.00  0.00    +0.000 NA
ATOM     14  C   UNL     1       2.814   6.878  18.851  0.00  0.00    +0.000 A 
ENDBRANCH   3   5
BRANCH   2  15
ATOM     15  C   UNL     1       5.117   4.259  15.865  0.00  0.00    +0.000 A 
ATOM     16  C   UNL     1       5.037   3.628  14.636  0.00  0.00    +0.000 A 
ATOM     17  C   UNL     1       6.109   4.145  13.894  0.00  0.00    +0.000 A 
ATOM     18  N   UNL     1       6.801   5.060  14.569  0.00  0.00    +0.000 NA
ATOM     19  N   UNL     1       6.266   5.042  15.822  0.00  0.00    +0.000 N 
BRANCH  19  20
ATOM     20  C   UNL     1       6.953   5.706  16.883  0.00  0.00    +0.000 A 
ATOM     21  C   UNL     1       7.130   7.096  16.826  0.00  0.00    +0.000 A 
ATOM     22  C   UNL     1       7.791   7.763  17.861  0.00  0.00    +0.000 A 
ATOM     23  C   UNL     1       8.305   7.048  18.942  0.00  0.00    +0.000 A 
ATOM     24  C   UNL     1       8.162   5.662  18.988  0.00  0.00    +0.000 A 
ATOM     25  C   UNL     1       7.491   4.992  17.964  0.00  0.00    +0.000 A 
ENDBRANCH  19  20
BRANCH  17  26
ATOM     26  C   UNL     1       6.434   3.701  12.477  0.00  0.00    +0.000 C 
ATOM     27  C   UNL     1       5.273   3.526  11.515  0.00  0.00    +0.000 C 
ATOM     28  C   UNL     1       6.012   2.328  12.001  0.00  0.00    +0.000 C 
ENDBRANCH  17  26
ENDBRANCH   2  15
TORSDOF 4
ENDMDL
MODEL 5
REMARK VINA RESULT:      -7.6      3.190      6.104
REMARK  Name = 
REMARK  4 active torsions:
REMARK  status: ('A' for Active; 'I' for Inactive)
REMARK    1  A    between atoms: C_2  and  C_14
REMARK    2  A    between atoms: N_3  and  C_4
REMARK    3  A    between atoms: C_16  and  C_17
REMARK    4  A    between atoms: N_21  and  C_22
REMARK                            x       y       z     vdW  Elec       q    Type
REMARK                         _______ _______ _______ _____ _____    ______ ____
ROOT
ATOM      1  O   UNL     1       3.329   3.441  16.602  0.00  0.00    +0.000 OA
ATOM      2  C   UNL     1       4.241   4.257  16.647  0.00  0.00    +0.000 C 
ATOM      3  N   UNL     1       4.375   5.234  17.617  0.00  0.00    +0.000 N 
ATOM      4  H   UNL     1       5.104   5.934  17.514  0.00  0.00    +0.000 HD
ENDROOT
BRANCH   3   5
ATOM      5  C   UNL     1       3.428   5.544  18.635  0.00  0.00    +0.000 A 
ATOM      6  C   UNL     1       2.807   6.797  18.723  0.00  0.00    +0.000 A 
ATOM      7  C   UNL     1       1.966   7.104  19.787  0.00  0.00    +0.000 A 
ATOM      8  C   UNL     1       1.730   6.153  20.770  0.00  0.00    +0.000 A 
ATOM      9  C   UNL     1       2.311   4.880  20.675  0.00  0.00    +0.000 A 
ATOM     10  C   UNL     1       2.068   3.917  21.662  0.00  0.00    +0.000 A 
ATOM     11  C   UNL     1       2.642   2.659  21.554  0.00  0.00    +0.000 A 
ATOM     12  C   UNL     1       3.440   2.407  20.457  0.00  0.00    +0.000 A 
ATOM     13  N   UNL     1       3.720   3.317  19.492  0.00  0.00    +0.000 NA
ATOM     14  C   UNL     1       3.160   4.548  19.591  0.00  0.00    +0.000 A 
ENDBRANCH   3   5
BRANCH   2  15
ATOM     15  C   UNL     1       5.250   4.292  15.621  0.00  0.00    +0.000 A 
ATOM     16  C   UNL     1       5.238   3.719  14.362  0.00  0.00    +0.000 A 
ATOM     17  C   UNL     1       6.365   4.245  13.715  0.00  0.00    +0.000 A 
ATOM     18  N   UNL     1       7.030   5.113  14.473  0.00  0.00    +0.000 NA
ATOM     19  N   UNL     1       6.415   5.050  15.688  0.00  0.00    +0.000 N 
BRANCH  19  20
ATOM     20  C   UNL     1       7.045   5.650  16.820  0.00  0.00    +0.000 A 
ATOM     21  C   UNL     1       7.224   7.041  16.853  0.00  0.00    +0.000 A 
ATOM     22  C   UNL     1       7.829   7.646  17.958  0.00  0.00    +0.000 A 
ATOM     23  C   UNL     1       8.286   6.868  19.021  0.00  0.00    +0.000 A 
ATOM     24  C   UNL     1       8.142   5.482  18.979  0.00  0.00    +0.000 A 
ATOM     25  C   UNL     1       7.526   4.874  17.884  0.00  0.00    +0.000 A 
ENDBRANCH  19  20
BRANCH  17  26
ATOM     26  C   UNL     1       6.771   3.858  12.302  0.00  0.00    +0.000 C 
ATOM     27  C   UNL     1       5.685   3.337  11.379  0.00  0.00    +0.000 C 
ATOM     28  C   UNL     1       6.735   2.406  11.877  0.00  0.00    +0.000 C 
ENDBRANCH  17  26
ENDBRANCH   2  15
TORSDOF 4
ENDMDL
MODEL 6
REMARK VINA RESULT:      -7.6      3.159      6.200
REMARK  Name = 
REMARK  4 active torsions:
REMARK  status: ('A' for Active; 'I' for Inactive)
REMARK    1  A    between atoms: C_2  and  C_14
REMARK    2  A    between atoms: N_3  and  C_4
REMARK    3  A    between atoms: C_16  and  C_17
REMARK    4  A    between atoms: N_21  and  C_22
REMARK                            x       y       z     vdW  Elec       q    Type
REMARK                         _______ _______ _______ _____ _____    ______ ____
ROOT
ATOM      1  O   UNL     1       5.406   3.193  18.192  0.00  0.00    +0.000 OA
ATOM      2  C   UNL     1       4.873   3.758  17.245  0.00  0.00    +0.000 C 
ATOM      3  N   UNL     1       3.544   4.142  17.205  0.00  0.00    +0.000 N 
ATOM      4  H   UNL     1       3.163   4.508  16.337  0.00  0.00    +0.000 HD
ENDROOT
BRANCH   3   5
ATOM      5  C   UNL     1       2.550   3.836  18.179  0.00  0.00    +0.000 A 
ATOM      6  C   UNL     1       1.913   2.589  18.232  0.00  0.00    +0.000 A 
ATOM      7  C   UNL     1       0.876   2.355  19.128  0.00  0.00    +0.000 A 
ATOM      8  C   UNL     1       0.471   3.367  19.987  0.00  0.00    +0.000 A 
ATOM      9  C   UNL     1       1.127   4.608  19.975  0.00  0.00    +0.000 A 
ATOM     10  C   UNL     1       0.725   5.627  20.847  0.00  0.00    +0.000 A 
ATOM     11  C   UNL     1       1.384   6.847  20.831  0.00  0.00    +0.000 A 
ATOM     12  C   UNL     1       2.427   7.004  19.942  0.00  0.00    +0.000 A 
ATOM     13  N   UNL     1       2.833   6.053  19.066  0.00  0.00    +0.000 NA
ATOM     14  C   UNL     1       2.193   4.857  19.078  0.00  0.00    +0.000 A 
ENDBRANCH   3   5
BRANCH   2  15
ATOM     15  C   UNL     1       5.608   4.025  16.037  0.00  0.00    +0.000 A 
ATOM     16  C   UNL     1       5.534   3.391  14.810  0.00  0.00    +0.000 A 
ATOM     17  C   UNL     1       6.300   4.186  13.946  0.00  0.00    +0.000 A 
ATOM     18  N   UNL     1       6.797   5.263  14.550  0.00  0.00    +0.000 NA
ATOM     19  N   UNL     1       6.473   5.101  15.863  0.00  0.00    +0.000 N 
BRANCH  19  20
ATOM     20  C   UNL     1       7.090   5.937  16.842  0.00  0.00    +0.000 A 
ATOM     21  C   UNL     1       7.210   7.313  16.596  0.00  0.00    +0.000 A 
ATOM     22  C   UNL     1       7.803   8.148  17.548  0.00  0.00    +0.000 A 
ATOM     23  C   UNL     1       8.305   7.615  18.734  0.00  0.00    +0.000 A 
ATOM     24  C   UNL     1       8.220   6.243  18.969  0.00  0.00    +0.000 A 
ATOM     25  C   UNL     1       7.617   5.406  18.028  0.00  0.00    +0.000 A 
ENDBRANCH  19  20
BRANCH  17  26
ATOM     26  C   UNL     1       6.530   3.845  12.483  0.00  0.00    +0.000 C 
ATOM     27  C   UNL     1       5.320   3.442  11.659  0.00  0.00    +0.000 C 
ATOM     28  C   UNL     1       6.348   2.421  12.002  0.00  0.00    +0.000 C 
ENDBRANCH  17  26
ENDBRANCH   2  15
TORSDOF 4
ENDMDL
MODEL 7
REMARK VINA RESULT:      -7.5      1.981      2.363
REMARK  Name = 
REMARK  4 active torsions:
REMARK  status: ('A' for Active; 'I' for Inactive)
REMARK    1  A    between atoms: C_2  and  C_14
REMARK    2  A    between atoms: N_3  and  C_4
REMARK    3  A    between atoms: C_16  and  C_17
REMARK    4  A    between atoms: N_21  and  C_22
REMARK                            x       y       z     vdW  Elec       q    Type
REMARK                         _______ _______ _______ _____ _____    ______ ____
ROOT
ATOM      1  O   UNL     1       1.468   7.803  19.830  0.00  0.00    +0.000 OA
ATOM      2  C   UNL     1       2.050   8.093  18.792  0.00  0.00    +0.000 C 
ATOM      3  N   UNL     1       1.669   9.110  17.935  0.00  0.00    +0.000 N 
ATOM      4  H   UNL     1       2.147   9.209  17.044  0.00  0.00    +0.000 HD
ENDROOT
BRANCH   3   5
ATOM      5  C   UNL     1       0.485   9.895  18.035  0.00  0.00    +0.000 A 
ATOM      6  C   UNL     1      -0.765   9.421  17.612  0.00  0.00    +0.000 A 
ATOM      7  C   UNL     1      -1.883  10.247  17.627  0.00  0.00    +0.000 A 
ATOM      8  C   UNL     1      -1.764  11.555  18.075  0.00  0.00    +0.000 A 
ATOM      9  C   UNL     1      -0.529  12.032  18.540  0.00  0.00    +0.000 A 
ATOM     10  C   UNL     1      -0.408  13.350  19.000  0.00  0.00    +0.000 A 
ATOM     11  C   UNL     1       0.815  13.808  19.464  0.00  0.00    +0.000 A 
ATOM     12  C   UNL     1       1.878  12.929  19.454  0.00  0.00    +0.000 A 
ATOM     13  N   UNL     1       1.811  11.654  18.997  0.00  0.00    +0.000 NA
ATOM     14  C   UNL     1       0.616  11.200  18.543  0.00  0.00    +0.000 A 
ENDBRANCH   3   5
BRANCH   2  15
ATOM     15  C   UNL     1       3.185   7.330  18.346  0.00  0.00    +0.000 A 
ATOM     16  C   UNL     1       4.324   7.760  17.689  0.00  0.00    +0.000 A 
ATOM     17  C   UNL     1       5.183   6.651  17.692  0.00  0.00    +0.000 A 
ATOM     18  N   UNL     1       4.663   5.605  18.329  0.00  0.00    +0.000 NA
ATOM     19  N   UNL     1       3.387   5.982  18.625  0.00  0.00    +0.000 N 
BRANCH  19  20
ATOM     20  C   UNL     1       2.454   4.996  19.067  0.00  0.00    +0.000 A 
ATOM     21  C   UNL     1       2.306   4.752  20.440  0.00  0.00    +0.000 A 
ATOM     22  C   UNL     1       1.390   3.798  20.891  0.00  0.00    +0.000 A 
ATOM     23  C   UNL     1       0.638   3.061  19.976  0.00  0.00    +0.000 A 
ATOM     24  C   UNL     1       0.804   3.274  18.609  0.00  0.00    +0.000 A 
ATOM     25  C   UNL     1       1.708   4.235  18.154  0.00  0.00    +0.000 A 
ENDBRANCH  19  20
BRANCH  17  26
ATOM     26  C   UNL     1       6.554   6.657  17.037  0.00  0.00    +0.000 C 
ATOM     27  C   UNL     1       7.761   6.460  17.937  0.00  0.00    +0.000 C 
ATOM     28  C   UNL     1       7.519   7.790  17.314  0.00  0.00    +0.000 C 
ENDBRANCH  17  26
ENDBRANCH   2  15
TORSDOF 4
ENDMDL
MODEL 8
REMARK VINA RESULT:      -7.4      1.271      2.433
REMARK  Name = 
REMARK  4 active torsions:
REMARK  status: ('A' for Active; 'I' for Inactive)
REMARK    1  A    between atoms: C_2  and  C_14
REMARK    2  A    between atoms: N_3  and  C_4
REMARK    3  A    between atoms: C_16  and  C_17
REMARK    4  A    between atoms: N_21  and  C_22
REMARK                            x       y       z     vdW  Elec       q    Type
REMARK                         _______ _______ _______ _____ _____    ______ ____
ROOT
ATOM      1  O   UNL     1       1.169   8.006  17.429  0.00  0.00    +0.000 OA
ATOM      2  C   UNL     1       2.052   7.970  18.277  0.00  0.00    +0.000 C 
ATOM      3  N   UNL     1       2.024   8.666  19.473  0.00  0.00    +0.000 N 
ATOM      4  H   UNL     1       2.848   8.659  20.067  0.00  0.00    +0.000 HD
ENDROOT
BRANCH   3   5
ATOM      5  C   UNL     1       1.050   9.630  19.862  0.00  0.00    +0.000 A 
ATOM      6  C   UNL     1      -0.027   9.309  20.700  0.00  0.00    +0.000 A 
ATOM      7  C   UNL     1      -1.018  10.244  20.979  0.00  0.00    +0.000 A 
ATOM      8  C   UNL     1      -0.935  11.514  20.427  0.00  0.00    +0.000 A 
ATOM      9  C   UNL     1       0.158  11.865  19.620  0.00  0.00    +0.000 A 
ATOM     10  C   UNL     1       0.246  13.149  19.069  0.00  0.00    +0.000 A 
ATOM     11  C   UNL     1       1.335  13.486  18.278  0.00  0.00    +0.000 A 
ATOM     12  C   UNL     1       2.300  12.523  18.067  0.00  0.00    +0.000 A 
ATOM     13  N   UNL     1       2.242  11.263  18.562  0.00  0.00    +0.000 NA
ATOM     14  C   UNL     1       1.181  10.928  19.337  0.00  0.00    +0.000 A 
ENDBRANCH   3   5
BRANCH   2  15
ATOM     15  C   UNL     1       3.255   7.212  18.056  0.00  0.00    +0.000 A 
ATOM     16  C   UNL     1       4.457   7.619  17.505  0.00  0.00    +0.000 A 
ATOM     17  C   UNL     1       5.337   6.550  17.729  0.00  0.00    +0.000 A 
ATOM     18  N   UNL     1       4.768   5.553  18.401  0.00  0.00    +0.000 NA
ATOM     19  N   UNL     1       3.455   5.907  18.496  0.00  0.00    +0.000 N 
BRANCH  19  20
ATOM     20  C   UNL     1       2.499   4.934  18.918  0.00  0.00    +0.000 A 
ATOM     21  C   UNL     1       2.154   4.849  20.275  0.00  0.00    +0.000 A 
ATOM     22  C   UNL     1       1.213   3.909  20.703  0.00  0.00    +0.000 A 
ATOM     23  C   UNL     1       0.633   3.030  19.789  0.00  0.00    +0.000 A 
ATOM     24  C   UNL     1       0.997   3.086  18.445  0.00  0.00    +0.000 A 
ATOM     25  C   UNL     1       1.926   4.032  18.009  0.00  0.00    +0.000 A 
ENDBRANCH  19  20
BRANCH  17  26
ATOM     26  C   UNL     1       6.780   6.545  17.252  0.00  0.00    +0.000 C 
ATOM     27  C   UNL     1       7.866   6.679  18.305  0.00  0.00    +0.000 C 
ATOM     28  C   UNL     1       7.615   7.803  17.360  0.00  0.00    +0.000 C 
ENDBRANCH  17  26
ENDBRANCH   2  15
TORSDOF 4
ENDMDL
MODEL 9
REMARK VINA RESULT:      -7.4      1.228      2.321
REMARK  Name = 
REMARK  4 active torsions:
REMARK  status: ('A' for Active; 'I' for Inactive)
REMARK    1  A    between atoms: C_2  and  C_14
REMARK    2  A    between atoms: N_3  and  C_4
REMARK    3  A    between atoms: C_16  and  C_17
REMARK    4  A    between atoms: N_21  and  C_22
REMARK                            x       y       z     vdW  Elec       q    Type
REMARK                         _______ _______ _______ _____ _____    ______ ____
ROOT
ATOM      1  O   UNL     1       1.222   7.883  17.504  0.00  0.00    +0.000 OA
ATOM      2  C   UNL     1       2.097   7.663  18.333  0.00  0.00    +0.000 C 
ATOM      3  N   UNL     1       2.118   8.186  19.614  0.00  0.00    +0.000 N 
ATOM      4  H   UNL     1       2.937   8.035  20.194  0.00  0.00    +0.000 HD
ENDROOT
BRANCH   3   5
ATOM      5  C   UNL     1       1.217   9.156  20.140  0.00  0.00    +0.000 A 
ATOM      6  C   UNL     1       0.286   8.847  21.141  0.00  0.00    +0.000 A 
ATOM      7  C   UNL     1      -0.648   9.787  21.561  0.00  0.00    +0.000 A 
ATOM      8  C   UNL     1      -0.653  11.051  20.989  0.00  0.00    +0.000 A 
ATOM      9  C   UNL     1       0.299  11.390  20.016  0.00  0.00    +0.000 A 
ATOM     10  C   UNL     1       0.300  12.668  19.443  0.00  0.00    +0.000 A 
ATOM     11  C   UNL     1       1.251  12.993  18.487  0.00  0.00    +0.000 A 
ATOM     12  C   UNL     1       2.170  12.026  18.138  0.00  0.00    +0.000 A 
ATOM     13  N   UNL     1       2.191  10.772  18.649  0.00  0.00    +0.000 NA
ATOM     14  C   UNL     1       1.264  10.448  19.586  0.00  0.00    +0.000 A 
ENDBRANCH   3   5
BRANCH   2  15
ATOM     15  C   UNL     1       3.240   6.855  18.000  0.00  0.00    +0.000 A 
ATOM     16  C   UNL     1       4.384   7.203  17.303  0.00  0.00    +0.000 A 
ATOM     17  C   UNL     1       5.248   6.109  17.458  0.00  0.00    +0.000 A 
ATOM     18  N   UNL     1       4.726   5.151  18.220  0.00  0.00    +0.000 NA
ATOM     19  N   UNL     1       3.445   5.556  18.453  0.00  0.00    +0.000 N 
BRANCH  19  20
ATOM     20  C   UNL     1       2.512   4.630  19.009  0.00  0.00    +0.000 A 
ATOM     21  C   UNL     1       1.805   3.768  18.158  0.00  0.00    +0.000 A 
ATOM     22  C   UNL     1       0.894   2.849  18.686  0.00  0.00    +0.000 A 
ATOM     23  C   UNL     1       0.661   2.803  20.060  0.00  0.00    +0.000 A 
ATOM     24  C   UNL     1       1.335   3.680  20.908  0.00  0.00    +0.000 A 
ATOM     25  C   UNL     1       2.255   4.591  20.387  0.00  0.00    +0.000 A 
ENDBRANCH  19  20
BRANCH  17  26
ATOM     26  C   UNL     1       6.626   6.037  16.821  0.00  0.00    +0.000 C 
ATOM     27  C   UNL     1       6.791   5.140  15.607  0.00  0.00    +0.000 C 
ATOM     28  C   UNL     1       7.427   4.755  16.897  0.00  0.00    +0.000 C 
ENDBRANCH  17  26
ENDBRANCH   2  15
TORSDOF 4
ENDMDL
