MODEL 1
REMARK VINA RESULT:      -8.2      0.000      0.000
REMARK  Name = 
REMARK  6 active torsions:
REMARK  status: ('A' for Active; 'I' for Inactive)
REMARK    1  A    between atoms: C_1  and  C_2
REMARK    2  A    between atoms: C_5  and  N_6
REMARK    3  A    between atoms: N_9  and  C_10
REMARK    4  A    between atoms: N_9  and  C_13
REMARK    5  A    between atoms: C_24  and  S_25
REMARK    6  A    between atoms: S_25  and  C_26
REMARK                            x       y       z     vdW  Elec       q    Type
REMARK                         _______ _______ _______ _____ _____    ______ ____
ROOT
ATOM      1  N   UNL     1       1.849   7.714  19.795  0.00  0.00    +0.000 N 
ATOM      2  C   UNL     1       1.273   8.921  19.391  0.00  0.00    +0.000 C 
ATOM      3  O   UNL     1       1.453   9.423  18.283  0.00  0.00    +0.000 OA
ATOM      4  N   UNL     1       0.484   9.575  20.375  0.00  0.00    +0.000 N 
ATOM      5  H   UNL     1       1.756   7.474  20.767  0.00  0.00    +0.000 HD
ENDROOT
BRANCH   4   6
ATOM      6  C   UNL     1      -0.092  10.936  20.036  0.00  0.00    +0.000 C 
ATOM      7  C   UNL     1       1.005  12.006  19.826  0.00  0.00    +0.000 C 
ATOM      8  C   UNL     1       0.525  13.330  19.220  0.00  0.00    +0.000 C 
ATOM      9  C   UNL     1      -0.488  13.227  18.083  0.00  0.00    +0.000 C 
ATOM     10  C   UNL     1      -1.239  11.932  17.970  0.00  0.00    +0.000 A 
ATOM     11  C   UNL     1      -2.147  11.802  16.900  0.00  0.00    +0.000 A 
ATOM     12  C   UNL     1      -2.940  10.666  16.767  0.00  0.00    +0.000 A 
ATOM     13  C   UNL     1      -2.867   9.664  17.726  0.00  0.00    +0.000 A 
ATOM     14  C   UNL     1      -1.974   9.783  18.789  0.00  0.00    +0.000 A 
ATOM     15  C   UNL     1      -1.103  10.885  18.895  0.00  0.00    +0.000 A 
ENDBRANCH   4   6
BRANCH   1  20
ATOM     16  C   UNL     1       5.278   4.228  16.700  0.00  0.00    +0.000 C 
ATOM     17  C   UNL     1       4.389   5.088  17.556  0.00  0.00    +0.000 A 
ATOM     18  C   UNL     1       4.244   6.437  17.202  0.00  0.00    +0.000 A 
ATOM     19  C   UNL     1       3.429   7.309  17.934  0.00  0.00    +0.000 A 
ATOM     20  C   UNL     1       2.705   6.866  19.039  0.00  0.00    +0.000 A 
ATOM     21  C   UNL     1       2.823   5.509  19.396  0.00  0.00    +0.000 A 
ATOM     22  C   UNL     1       3.677   4.632  18.677  0.00  0.00    +0.000 A 
BRANCH  22  23
ATOM     23  S   UNL     1       3.759   2.918  19.211  0.00  0.00    +0.000 S 
ATOM     24  C   UNL     1       2.486   2.761  20.433  0.00  0.00    +0.000 C 
ATOM     25  O   UNL     1       3.376   2.103  18.080  0.00  0.00    +0.000 OA
ATOM     26  O   UNL     1       5.040   2.686  19.846  0.00  0.00    +0.000 OA
ENDBRANCH  22  23
ENDBRANCH   1  20
BRANCH   4  27
ATOM     27  C   UNL     1       0.124   8.948  21.641  0.00  0.00    +0.000 C 
ATOM     28  C   UNL     1      -0.582   9.607  22.803  0.00  0.00    +0.000 C 
ATOM     29  C   UNL     1       0.876   9.318  22.907  0.00  0.00    +0.000 C 
ENDBRANCH   4  27
TORSDOF 4
ENDMDL
MODEL 2
REMARK VINA RESULT:      -8.1      2.990      8.277
REMARK  Name = 
REMARK  6 active torsions:
REMARK  status: ('A' for Active; 'I' for Inactive)
REMARK    1  A    between atoms: C_1  and  C_2
REMARK    2  A    between atoms: C_5  and  N_6
REMARK    3  A    between atoms: N_9  and  C_10
REMARK    4  A    between atoms: N_9  and  C_13
REMARK    5  A    between atoms: C_24  and  S_25
REMARK    6  A    between atoms: S_25  and  C_26
REMARK                            x       y       z     vdW  Elec       q    Type
REMARK                         _______ _______ _______ _____ _____    ______ ____
ROOT
ATOM      1  N   UNL     1       1.895   7.317  19.751  0.00  0.00    +0.000 N 
ATOM      2  C   UNL     1       2.732   6.518  18.966  0.00  0.00    +0.000 C 
ATOM      3  O   UNL     1       3.259   6.906  17.925  0.00  0.00    +0.000 OA
ATOM      4  N   UNL     1       2.905   5.186  19.426  0.00  0.00    +0.000 N 
ATOM      5  H   UNL     1       1.401   6.854  20.495  0.00  0.00    +0.000 HD
ENDROOT
BRANCH   4   6
ATOM      6  C   UNL     1       3.723   4.238  18.571  0.00  0.00    +0.000 C 
ATOM      7  C   UNL     1       3.058   3.953  17.204  0.00  0.00    +0.000 C 
ATOM      8  C   UNL     1       3.941   3.229  16.182  0.00  0.00    +0.000 C 
ATOM      9  C   UNL     1       5.395   3.684  16.098  0.00  0.00    +0.000 C 
ATOM     10  C   UNL     1       5.929   4.442  17.279  0.00  0.00    +0.000 A 
ATOM     11  C   UNL     1       7.256   4.909  17.201  0.00  0.00    +0.000 A 
ATOM     12  C   UNL     1       7.853   5.551  18.281  0.00  0.00    +0.000 A 
ATOM     13  C   UNL     1       7.147   5.697  19.468  0.00  0.00    +0.000 A 
ATOM     14  C   UNL     1       5.835   5.237  19.557  0.00  0.00    +0.000 A 
ATOM     15  C   UNL     1       5.183   4.660  18.448  0.00  0.00    +0.000 A 
ENDBRANCH   4   6
BRANCH   1  20
ATOM     16  C   UNL     1       0.396  12.833  18.853  0.00  0.00    +0.000 C 
ATOM     17  C   UNL     1       0.738  11.396  19.136  0.00  0.00    +0.000 A 
ATOM     18  C   UNL     1       1.458  10.690  18.162  0.00  0.00    +0.000 A 
ATOM     19  C   UNL     1       1.830   9.351  18.345  0.00  0.00    +0.000 A 
ATOM     20  C   UNL     1       1.517   8.668  19.518  0.00  0.00    +0.000 A 
ATOM     21  C   UNL     1       0.811   9.368  20.515  0.00  0.00    +0.000 A 
ATOM     22  C   UNL     1       0.402  10.713  20.317  0.00  0.00    +0.000 A 
BRANCH  22  23
ATOM     23  S   UNL     1      -0.494  11.521  21.648  0.00  0.00    +0.000 S 
ATOM     24  C   UNL     1      -0.619  10.295  22.922  0.00  0.00    +0.000 C 
ATOM     25  O   UNL     1       0.355  12.579  22.150  0.00  0.00    +0.000 OA
ATOM     26  O   UNL     1      -1.828  11.846  21.187  0.00  0.00    +0.000 OA
ENDBRANCH  22  23
ENDBRANCH   1  20
BRANCH   4  27
ATOM     27  C   UNL     1       2.424   4.732  20.726  0.00  0.00    +0.000 C 
ATOM     28  C   UNL     1       2.488   3.323  21.267  0.00  0.00    +0.000 C 
ATOM     29  C   UNL     1       1.179   3.866  20.808  0.00  0.00    +0.000 C 
ENDBRANCH   4  27
TORSDOF 4
ENDMDL
MODEL 3
REMARK VINA RESULT:      -8.0      1.452      2.653
REMARK  Name = 
REMARK  6 active torsions:
REMARK  status: ('A' for Active; 'I' for Inactive)
REMARK    1  A    between atoms: C_1  and  C_2
REMARK    2  A    between atoms: C_5  and  N_6
REMARK    3  A    between atoms: N_9  and  C_10
REMARK    4  A    between atoms: N_9  and  C_13
REMARK    5  A    between atoms: C_24  and  S_25
REMARK    6  A    between atoms: S_25  and  C_26
REMARK                            x       y       z     vdW  Elec       q    Type
REMARK                         _______ _______ _______ _____ _____    ______ ____
ROOT
ATOM      1  N   UNL     1       2.154   8.041  19.230  0.00  0.00    +0.000 N 
ATOM      2  C   UNL     1       1.340   9.035  18.679  0.00  0.00    +0.000 C 
ATOM      3  O   UNL     1       1.119   9.141  17.475  0.00  0.00    +0.000 OA
ATOM      4  N   UNL     1       0.807   9.967  19.611  0.00  0.00    +0.000 N 
ATOM      5  H   UNL     1       2.386   8.138  20.204  0.00  0.00    +0.000 HD
ENDROOT
BRANCH   4   6
ATOM      6  C   UNL     1      -0.007  11.126  19.070  0.00  0.00    +0.000 C 
ATOM      7  C   UNL     1      -1.314  11.351  19.864  0.00  0.00    +0.000 C 
ATOM      8  C   UNL     1      -2.054  12.658  19.557  0.00  0.00    +0.000 C 
ATOM      9  C   UNL     1      -1.189  13.904  19.392  0.00  0.00    +0.000 C 
ATOM     10  C   UNL     1       0.266  13.676  19.101  0.00  0.00    +0.000 A 
ATOM     11  C   UNL     1       1.090  14.814  18.990  0.00  0.00    +0.000 A 
ATOM     12  C   UNL     1       2.433  14.695  18.645  0.00  0.00    +0.000 A 
ATOM     13  C   UNL     1       2.960  13.441  18.364  0.00  0.00    +0.000 A 
ATOM     14  C   UNL     1       2.154  12.309  18.469  0.00  0.00    +0.000 A 
ATOM     15  C   UNL     1       0.815  12.399  18.899  0.00  0.00    +0.000 A 
ENDBRANCH   4   6
BRANCH   1  20
ATOM     16  C   UNL     1       4.898   3.805  16.400  0.00  0.00    +0.000 C 
ATOM     17  C   UNL     1       4.165   4.859  17.182  0.00  0.00    +0.000 A 
ATOM     18  C   UNL     1       4.480   6.202  16.928  0.00  0.00    +0.000 A 
ATOM     19  C   UNL     1       3.841   7.251  17.602  0.00  0.00    +0.000 A 
ATOM     20  C   UNL     1       2.842   7.004  18.542  0.00  0.00    +0.000 A 
ATOM     21  C   UNL     1       2.499   5.663  18.794  0.00  0.00    +0.000 A 
ATOM     22  C   UNL     1       3.171   4.597  18.140  0.00  0.00    +0.000 A 
BRANCH  22  23
ATOM     23  S   UNL     1       2.661   2.919  18.530  0.00  0.00    +0.000 S 
ATOM     24  C   UNL     1       1.345   3.104  19.703  0.00  0.00    +0.000 C 
ATOM     25  O   UNL     1       2.089   2.359  17.325  0.00  0.00    +0.000 OA
ATOM     26  O   UNL     1       3.760   2.232  19.174  0.00  0.00    +0.000 OA
ENDBRANCH  22  23
ENDBRANCH   1  20
BRANCH   4  27
ATOM     27  C   UNL     1       0.921   9.791  21.053  0.00  0.00    +0.000 C 
ATOM     28  C   UNL     1       1.286   8.518  21.779  0.00  0.00    +0.000 C 
ATOM     29  C   UNL     1      -0.128   8.985  21.799  0.00  0.00    +0.000 C 
ENDBRANCH   4  27
TORSDOF 4
ENDMDL
MODEL 4
REMARK VINA RESULT:      -7.9      1.114      2.641
REMARK  Name = 
REMARK  6 active torsions:
REMARK  status: ('A' for Active; 'I' for Inactive)
REMARK    1  A    between atoms: C_1  and  C_2
REMARK    2  A    between atoms: C_5  and  N_6
REMARK    3  A    between atoms: N_9  and  C_10
REMARK    4  A    between atoms: N_9  and  C_13
REMARK    5  A    between atoms: C_24  and  S_25
REMARK    6  A    between atoms: S_25  and  C_26
REMARK                            x       y       z     vdW  Elec       q    Type
REMARK                         _______ _______ _______ _____ _____    ______ ____
ROOT
ATOM      1  N   UNL     1       2.044   7.833  19.267  0.00  0.00    +0.000 N 
ATOM      2  C   UNL     1       1.389   8.948  18.735  0.00  0.00    +0.000 C 
ATOM      3  O   UNL     1       1.540   9.335  17.578  0.00  0.00    +0.000 OA
ATOM      4  N   UNL     1       0.556   9.653  19.645  0.00  0.00    +0.000 N 
ATOM      5  H   UNL     1       1.964   7.697  20.260  0.00  0.00    +0.000 HD
ENDROOT
BRANCH   4   6
ATOM      6  C   UNL     1      -0.108  10.927  19.160  0.00  0.00    +0.000 C 
ATOM      7  C   UNL     1      -1.650  10.859  19.250  0.00  0.00    +0.000 C 
ATOM      8  C   UNL     1      -2.380  12.190  19.039  0.00  0.00    +0.000 C 
ATOM      9  C   UNL     1      -1.758  13.418  19.697  0.00  0.00    +0.000 C 
ATOM     10  C   UNL     1      -0.312  13.307  20.090  0.00  0.00    +0.000 A 
ATOM     11  C   UNL     1       0.268  14.415  20.741  0.00  0.00    +0.000 A 
ATOM     12  C   UNL     1       1.620  14.425  21.068  0.00  0.00    +0.000 A 
ATOM     13  C   UNL     1       2.420  13.347  20.710  0.00  0.00    +0.000 A 
ATOM     14  C   UNL     1       1.857  12.248  20.066  0.00  0.00    +0.000 A 
ATOM     15  C   UNL     1       0.475  12.181  19.802  0.00  0.00    +0.000 A 
ENDBRANCH   4   6
BRANCH   1  20
ATOM     16  C   UNL     1       5.705   4.269  16.552  0.00  0.00    +0.000 C 
ATOM     17  C   UNL     1       4.752   5.150  17.310  0.00  0.00    +0.000 A 
ATOM     18  C   UNL     1       4.640   6.490  16.912  0.00  0.00    +0.000 A 
ATOM     19  C   UNL     1       3.770   7.381  17.553  0.00  0.00    +0.000 A 
ATOM     20  C   UNL     1       2.956   6.966  18.605  0.00  0.00    +0.000 A 
ATOM     21  C   UNL     1       3.041   5.619  19.005  0.00  0.00    +0.000 A 
ATOM     22  C   UNL     1       3.948   4.723  18.381  0.00  0.00    +0.000 A 
BRANCH  22  23
ATOM     23  S   UNL     1       3.983   3.023  18.962  0.00  0.00    +0.000 S 
ATOM     24  C   UNL     1       2.617   2.899  20.085  0.00  0.00    +0.000 C 
ATOM     25  O   UNL     1       3.685   2.180  17.825  0.00  0.00    +0.000 OA
ATOM     26  O   UNL     1       5.209   2.804  19.700  0.00  0.00    +0.000 OA
ENDBRANCH  22  23
ENDBRANCH   1  20
BRANCH   4  27
ATOM     27  C   UNL     1       0.235   9.146  20.973  0.00  0.00    +0.000 C 
ATOM     28  C   UNL     1      -0.089   9.970  22.197  0.00  0.00    +0.000 C 
ATOM     29  C   UNL     1       1.238   9.300  22.102  0.00  0.00    +0.000 C 
ENDBRANCH   4  27
TORSDOF 4
ENDMDL
MODEL 5
REMARK VINA RESULT:      -7.8      2.200      3.565
REMARK  Name = 
REMARK  6 active torsions:
REMARK  status: ('A' for Active; 'I' for Inactive)
REMARK    1  A    between atoms: C_1  and  C_2
REMARK    2  A    between atoms: C_5  and  N_6
REMARK    3  A    between atoms: N_9  and  C_10
REMARK    4  A    between atoms: N_9  and  C_13
REMARK    5  A    between atoms: C_24  and  S_25
REMARK    6  A    between atoms: S_25  and  C_26
REMARK                            x       y       z     vdW  Elec       q    Type
REMARK                         _______ _______ _______ _____ _____    ______ ____
ROOT
ATOM      1  N   UNL     1       2.416   7.757  18.984  0.00  0.00    +0.000 N 
ATOM      2  C   UNL     1       1.589   8.728  18.411  0.00  0.00    +0.000 C 
ATOM      3  O   UNL     1       1.380   8.814  17.202  0.00  0.00    +0.000 OA
ATOM      4  N   UNL     1       1.027   9.660  19.323  0.00  0.00    +0.000 N 
ATOM      5  H   UNL     1       2.634   7.871  19.959  0.00  0.00    +0.000 HD
ENDROOT
BRANCH   4   6
ATOM      6  C   UNL     1       0.197  10.797  18.758  0.00  0.00    +0.000 C 
ATOM      7  C   UNL     1      -1.177  10.928  19.455  0.00  0.00    +0.000 C 
ATOM      8  C   UNL     1      -1.958  12.207  19.133  0.00  0.00    +0.000 C 
ATOM      9  C   UNL     1      -1.149  13.499  19.075  0.00  0.00    +0.000 C 
ATOM     10  C   UNL     1       0.334  13.354  18.891  0.00  0.00    +0.000 A 
ATOM     11  C   UNL     1       1.103  14.535  18.880  0.00  0.00    +0.000 A 
ATOM     12  C   UNL     1       2.472  14.495  18.636  0.00  0.00    +0.000 A 
ATOM     13  C   UNL     1       3.083  13.279  18.358  0.00  0.00    +0.000 A 
ATOM     14  C   UNL     1       2.333  12.106  18.365  0.00  0.00    +0.000 A 
ATOM     15  C   UNL     1       0.962  12.114  18.692  0.00  0.00    +0.000 A 
ENDBRANCH   4   6
BRANCH   1  20
ATOM     16  C   UNL     1       5.368   3.551  16.324  0.00  0.00    +0.000 C 
ATOM     17  C   UNL     1       4.651   4.688  16.999  0.00  0.00    +0.000 A 
ATOM     18  C   UNL     1       3.284   4.533  17.268  0.00  0.00    +0.000 A 
ATOM     19  C   UNL     1       2.538   5.535  17.903  0.00  0.00    +0.000 A 
ATOM     20  C   UNL     1       3.132   6.726  18.317  0.00  0.00    +0.000 A 
ATOM     21  C   UNL     1       4.509   6.889  18.073  0.00  0.00    +0.000 A 
ATOM     22  C   UNL     1       5.259   5.891  17.397  0.00  0.00    +0.000 A 
BRANCH  22  23
ATOM     23  S   UNL     1       7.010   6.192  17.132  0.00  0.00    +0.000 S 
ATOM     24  C   UNL     1       7.253   7.888  17.588  0.00  0.00    +0.000 C 
ATOM     25  O   UNL     1       7.729   5.381  18.089  0.00  0.00    +0.000 OA
ATOM     26  O   UNL     1       7.304   6.046  15.722  0.00  0.00    +0.000 OA
ENDBRANCH  22  23
ENDBRANCH   1  20
BRANCH   4  27
ATOM     27  C   UNL     1       1.126   9.505  20.770  0.00  0.00    +0.000 C 
ATOM     28  C   UNL     1       1.320   8.211  21.525  0.00  0.00    +0.000 C 
ATOM     29  C   UNL     1      -0.017   8.868  21.539  0.00  0.00    +0.000 C 
ENDBRANCH   4  27
TORSDOF 4
ENDMDL
MODEL 6
REMARK VINA RESULT:      -7.7      3.093      8.114
REMARK  Name = 
REMARK  6 active torsions:
REMARK  status: ('A' for Active; 'I' for Inactive)
REMARK    1  A    between atoms: C_1  and  C_2
REMARK    2  A    between atoms: C_5  and  N_6
REMARK    3  A    between atoms: N_9  and  C_10
REMARK    4  A    between atoms: N_9  and  C_13
REMARK    5  A    between atoms: C_24  and  S_25
REMARK    6  A    between atoms: S_25  and  C_26
REMARK                            x       y       z     vdW  Elec       q    Type
REMARK                         _______ _______ _______ _____ _____    ______ ____
ROOT
ATOM      1  N   UNL     1       1.763   6.735  20.910  0.00  0.00    +0.000 N 
ATOM      2  C   UNL     1       2.479   6.183  19.845  0.00  0.00    +0.000 C 
ATOM      3  O   UNL     1       2.791   6.814  18.837  0.00  0.00    +0.000 OA
ATOM      4  N   UNL     1       2.794   4.803  19.976  0.00  0.00    +0.000 N 
ATOM      5  H   UNL     1       1.434   6.093  21.611  0.00  0.00    +0.000 HD
ENDROOT
BRANCH   4   6
ATOM      6  C   UNL     1       3.486   4.118  18.814  0.00  0.00    +0.000 C 
ATOM      7  C   UNL     1       2.595   4.053  17.552  0.00  0.00    +0.000 C 
ATOM      8  C   UNL     1       3.309   3.625  16.265  0.00  0.00    +0.000 C 
ATOM      9  C   UNL     1       4.699   4.210  16.032  0.00  0.00    +0.000 C 
ATOM     10  C   UNL     1       5.404   4.762  17.238  0.00  0.00    +0.000 A 
ATOM     11  C   UNL     1       6.670   5.347  17.036  0.00  0.00    +0.000 A 
ATOM     12  C   UNL     1       7.424   5.810  18.110  0.00  0.00    +0.000 A 
ATOM     13  C   UNL     1       6.941   5.656  19.403  0.00  0.00    +0.000 A 
ATOM     14  C   UNL     1       5.692   5.078  19.614  0.00  0.00    +0.000 A 
ATOM     15  C   UNL     1       4.876   4.679  18.537  0.00  0.00    +0.000 A 
ENDBRANCH   4   6
BRANCH   1  20
ATOM     16  C   UNL     1      -0.215  12.152  21.377  0.00  0.00    +0.000 C 
ATOM     17  C   UNL     1       0.337  10.765  21.202  0.00  0.00    +0.000 A 
ATOM     18  C   UNL     1       0.212   9.870  22.274  0.00  0.00    +0.000 A 
ATOM     19  C   UNL     1       0.687   8.554  22.196  0.00  0.00    +0.000 A 
ATOM     20  C   UNL     1       1.288   8.070  21.037  0.00  0.00    +0.000 A 
ATOM     21  C   UNL     1       1.404   8.949  19.943  0.00  0.00    +0.000 A 
ATOM     22  C   UNL     1       0.956  10.293  20.032  0.00  0.00    +0.000 A 
BRANCH  22  23
ATOM     23  S   UNL     1       1.148  11.338  18.583  0.00  0.00    +0.000 S 
ATOM     24  C   UNL     1       2.132  12.704  19.134  0.00  0.00    +0.000 C 
ATOM     25  O   UNL     1       1.937  10.595  17.626  0.00  0.00    +0.000 OA
ATOM     26  O   UNL     1      -0.153  11.837  18.188  0.00  0.00    +0.000 OA
ENDBRANCH  22  23
ENDBRANCH   1  20
BRANCH   4  27
ATOM     27  C   UNL     1       2.577   4.060  21.211  0.00  0.00    +0.000 C 
ATOM     28  C   UNL     1       2.737   2.570  21.405  0.00  0.00    +0.000 C 
ATOM     29  C   UNL     1       1.367   3.152  21.342  0.00  0.00    +0.000 C 
ENDBRANCH   4  27
TORSDOF 4
ENDMDL
MODEL 7
REMARK VINA RESULT:      -7.6      1.988      2.367
REMARK  Name = 
REMARK  6 active torsions:
REMARK  status: ('A' for Active; 'I' for Inactive)
REMARK    1  A    between atoms: C_1  and  C_2
REMARK    2  A    between atoms: C_5  and  N_6
REMARK    3  A    between atoms: N_9  and  C_10
REMARK    4  A    between atoms: N_9  and  C_13
REMARK    5  A    between atoms: C_24  and  S_25
REMARK    6  A    between atoms: S_25  and  C_26
REMARK                            x       y       z     vdW  Elec       q    Type
REMARK                         _______ _______ _______ _____ _____    ______ ____
ROOT
ATOM      1  N   UNL     1       2.011   7.475  19.523  0.00  0.00    +0.000 N 
ATOM      2  C   UNL     1       1.471   8.719  19.182  0.00  0.00    +0.000 C 
ATOM      3  O   UNL     1       1.606   9.237  18.076  0.00  0.00    +0.000 OA
ATOM      4  N   UNL     1       0.780   9.386  20.229  0.00  0.00    +0.000 N 
ATOM      5  H   UNL     1       1.967   7.217  20.494  0.00  0.00    +0.000 HD
ENDROOT
BRANCH   4   6
ATOM      6  C   UNL     1       0.252  10.781  19.956  0.00  0.00    +0.000 C 
ATOM      7  C   UNL     1       1.384  11.793  19.661  0.00  0.00    +0.000 C 
ATOM      8  C   UNL     1       0.927  13.150  19.113  0.00  0.00    +0.000 C 
ATOM      9  C   UNL     1      -0.187  13.120  18.070  0.00  0.00    +0.000 C 
ATOM     10  C   UNL     1      -1.015  11.869  18.010  0.00  0.00    +0.000 A 
ATOM     11  C   UNL     1      -2.019  11.805  17.024  0.00  0.00    +0.000 A 
ATOM     12  C   UNL     1      -2.882  10.716  16.950  0.00  0.00    +0.000 A 
ATOM     13  C   UNL     1      -2.781   9.697  17.888  0.00  0.00    +0.000 A 
ATOM     14  C   UNL     1      -1.793   9.751  18.869  0.00  0.00    +0.000 A 
ATOM     15  C   UNL     1      -0.856  10.802  18.909  0.00  0.00    +0.000 A 
ENDBRANCH   4   6
BRANCH   1  20
ATOM     16  C   UNL     1       5.155   3.925  16.207  0.00  0.00    +0.000 C 
ATOM     17  C   UNL     1       4.383   4.898  17.055  0.00  0.00    +0.000 A 
ATOM     18  C   UNL     1       3.059   4.573  17.384  0.00  0.00    +0.000 A 
ATOM     19  C   UNL     1       2.268   5.414  18.178  0.00  0.00    +0.000 A 
ATOM     20  C   UNL     1       2.773   6.605  18.695  0.00  0.00    +0.000 A 
ATOM     21  C   UNL     1       4.107   6.936  18.391  0.00  0.00    +0.000 A 
ATOM     22  C   UNL     1       4.899   6.104  17.558  0.00  0.00    +0.000 A 
BRANCH  22  23
ATOM     23  S   UNL     1       6.590   6.613  17.227  0.00  0.00    +0.000 S 
ATOM     24  C   UNL     1       7.578   5.672  18.359  0.00  0.00    +0.000 C 
ATOM     25  O   UNL     1       6.916   6.162  15.892  0.00  0.00    +0.000 OA
ATOM     26  O   UNL     1       6.730   8.017  17.551  0.00  0.00    +0.000 OA
ENDBRANCH  22  23
ENDBRANCH   1  20
BRANCH   4  27
ATOM     27  C   UNL     1       0.469   8.747  21.501  0.00  0.00    +0.000 C 
ATOM     28  C   UNL     1      -0.414   9.301  22.595  0.00  0.00    +0.000 C 
ATOM     29  C   UNL     1       1.063   9.296  22.786  0.00  0.00    +0.000 C 
ENDBRANCH   4  27
TORSDOF 4
ENDMDL
MODEL 8
REMARK VINA RESULT:      -7.6      1.741      2.858
REMARK  Name = 
REMARK  6 active torsions:
REMARK  status: ('A' for Active; 'I' for Inactive)
REMARK    1  A    between atoms: C_1  and  C_2
REMARK    2  A    between atoms: C_5  and  N_6
REMARK    3  A    between atoms: N_9  and  C_10
REMARK    4  A    between atoms: N_9  and  C_13
REMARK    5  A    between atoms: C_24  and  S_25
REMARK    6  A    between atoms: S_25  and  C_26
REMARK                            x       y       z     vdW  Elec       q    Type
REMARK                         _______ _______ _______ _____ _____    ______ ____
ROOT
ATOM      1  N   UNL     1       1.857   8.299  19.824  0.00  0.00    +0.000 N 
ATOM      2  C   UNL     1       1.081   9.299  19.230  0.00  0.00    +0.000 C 
ATOM      3  O   UNL     1       0.764   9.296  18.042  0.00  0.00    +0.000 OA
ATOM      4  N   UNL     1       0.712  10.370  20.088  0.00  0.00    +0.000 N 
ATOM      5  H   UNL     1       2.181   8.478  20.759  0.00  0.00    +0.000 HD
ENDROOT
BRANCH   4   6
ATOM      6  C   UNL     1      -0.048  11.535  19.484  0.00  0.00    +0.000 C 
ATOM      7  C   UNL     1      -1.272  11.946  20.335  0.00  0.00    +0.000 C 
ATOM      8  C   UNL     1      -1.929  13.274  19.943  0.00  0.00    +0.000 C 
ATOM      9  C   UNL     1      -0.986  14.420  19.592  0.00  0.00    +0.000 C 
ATOM     10  C   UNL     1       0.422  14.043  19.231  0.00  0.00    +0.000 A 
ATOM     11  C   UNL     1       1.321  15.091  18.947  0.00  0.00    +0.000 A 
ATOM     12  C   UNL     1       2.621  14.826  18.528  0.00  0.00    +0.000 A 
ATOM     13  C   UNL     1       3.027  13.511  18.346  0.00  0.00    +0.000 A 
ATOM     14  C   UNL     1       2.147  12.467  18.621  0.00  0.00    +0.000 A 
ATOM     15  C   UNL     1       0.855  12.711  19.127  0.00  0.00    +0.000 A 
ENDBRANCH   4   6
BRANCH   1  20
ATOM     16  C   UNL     1       3.978   3.547  17.297  0.00  0.00    +0.000 C 
ATOM     17  C   UNL     1       3.416   4.744  18.011  0.00  0.00    +0.000 A 
ATOM     18  C   UNL     1       3.687   6.013  17.477  0.00  0.00    +0.000 A 
ATOM     19  C   UNL     1       3.196   7.183  18.069  0.00  0.00    +0.000 A 
ATOM     20  C   UNL     1       2.393   7.136  19.207  0.00  0.00    +0.000 A 
ATOM     21  C   UNL     1       2.094   5.870  19.744  0.00  0.00    +0.000 A 
ATOM     22  C   UNL     1       2.620   4.684  19.167  0.00  0.00    +0.000 A 
BRANCH  22  23
ATOM     23  S   UNL     1       2.181   3.116  19.925  0.00  0.00    +0.000 S 
ATOM     24  C   UNL     1       1.162   2.300  18.726  0.00  0.00    +0.000 C 
ATOM     25  O   UNL     1       3.400   2.349  20.049  0.00  0.00    +0.000 OA
ATOM     26  O   UNL     1       1.386   3.373  21.108  0.00  0.00    +0.000 OA
ENDBRANCH  22  23
ENDBRANCH   1  20
BRANCH   4  27
ATOM     27  C   UNL     1       0.938  10.340  21.527  0.00  0.00    +0.000 C 
ATOM     28  C   UNL     1       1.240   9.120  22.366  0.00  0.00    +0.000 C 
ATOM     29  C   UNL     1      -0.113   9.738  22.443  0.00  0.00    +0.000 C 
ENDBRANCH   4  27
TORSDOF 4
ENDMDL
MODEL 9
REMARK VINA RESULT:      -7.6      2.317      3.615
REMARK  Name = 
REMARK  6 active torsions:
REMARK  status: ('A' for Active; 'I' for Inactive)
REMARK    1  A    between atoms: C_1  and  C_2
REMARK    2  A    between atoms: C_5  and  N_6
REMARK    3  A    between atoms: N_9  and  C_10
REMARK    4  A    between atoms: N_9  and  C_13
REMARK    5  A    between atoms: C_24  and  S_25
REMARK    6  A    between atoms: S_25  and  C_26
REMARK                            x       y       z     vdW  Elec       q    Type
REMARK                         _______ _______ _______ _____ _____    ______ ____
ROOT
ATOM      1  N   UNL     1       2.154   7.672  19.072  0.00  0.00    +0.000 N 
ATOM      2  C   UNL     1       1.504   8.792  18.547  0.00  0.00    +0.000 C 
ATOM      3  O   UNL     1       1.617   9.156  17.378  0.00  0.00    +0.000 OA
ATOM      4  N   UNL     1       0.722   9.530  19.475  0.00  0.00    +0.000 N 
ATOM      5  H   UNL     1       2.111   7.554  20.070  0.00  0.00    +0.000 HD
ENDROOT
BRANCH   4   6
ATOM      6  C   UNL     1       0.067  10.810  18.994  0.00  0.00    +0.000 C 
ATOM      7  C   UNL     1      -1.477  10.742  19.055  0.00  0.00    +0.000 C 
ATOM      8  C   UNL     1      -2.203  12.076  18.847  0.00  0.00    +0.000 C 
ATOM      9  C   UNL     1      -1.593  13.295  19.532  0.00  0.00    +0.000 C 
ATOM     10  C   UNL     1      -0.155  13.179  19.951  0.00  0.00    +0.000 A 
ATOM     11  C   UNL     1       0.413  14.278  20.626  0.00  0.00    +0.000 A 
ATOM     12  C   UNL     1       1.759  14.284  20.978  0.00  0.00    +0.000 A 
ATOM     13  C   UNL     1       2.565  13.210  20.623  0.00  0.00    +0.000 A 
ATOM     14  C   UNL     1       2.015  12.120  19.954  0.00  0.00    +0.000 A 
ATOM     15  C   UNL     1       0.637  12.056  19.663  0.00  0.00    +0.000 A 
ENDBRANCH   4   6
BRANCH   1  20
ATOM     16  C   UNL     1       5.718   4.012  16.355  0.00  0.00    +0.000 C 
ATOM     17  C   UNL     1       4.836   5.014  17.047  0.00  0.00    +0.000 A 
ATOM     18  C   UNL     1       3.500   4.660  17.281  0.00  0.00    +0.000 A 
ATOM     19  C   UNL     1       2.609   5.525  17.929  0.00  0.00    +0.000 A 
ATOM     20  C   UNL     1       3.021   6.774  18.391  0.00  0.00    +0.000 A 
ATOM     21  C   UNL     1       4.365   7.138  18.182  0.00  0.00    +0.000 A 
ATOM     22  C   UNL     1       5.260   6.277  17.494  0.00  0.00    +0.000 A 
BRANCH  22  23
ATOM     23  S   UNL     1       6.955   6.831  17.276  0.00  0.00    +0.000 S 
ATOM     24  C   UNL     1       7.824   6.202  18.687  0.00  0.00    +0.000 C 
ATOM     25  O   UNL     1       7.477   6.153  16.110  0.00  0.00    +0.000 OA
ATOM     26  O   UNL     1       6.986   8.278  17.323  0.00  0.00    +0.000 OA
ENDBRANCH  22  23
ENDBRANCH   1  20
BRANCH   4  27
ATOM     27  C   UNL     1       0.441   9.053  20.824  0.00  0.00    +0.000 C 
ATOM     28  C   UNL     1       0.122   9.903  22.031  0.00  0.00    +0.000 C 
ATOM     29  C   UNL     1       1.464   9.265  21.926  0.00  0.00    +0.000 C 
ENDBRANCH   4  27
TORSDOF 4
ENDMDL
