MODEL 1
REMARK VINA RESULT:      -8.8      0.000      0.000
REMARK  Name = 
REMARK  6 active torsions:
REMARK  status: ('A' for Active; 'I' for Inactive)
REMARK    1  A    between atoms: C_1  and  C_2
REMARK    2  A    between atoms: C_8  and  N_9
REMARK    3  A    between atoms: C_10  and  C_12
REMARK    4  A    between atoms: C_12  and  O_13
REMARK    5  A    between atoms: C_12  and  C_20
REMARK    6  A    between atoms: O_13  and  C_14
REMARK                            x       y       z     vdW  Elec       q    Type
REMARK                         _______ _______ _______ _____ _____    ______ ____
ROOT
ATOM      1  N   UNL     1       2.019   8.474  17.886  0.00  0.00    +0.000 N 
ATOM      2  C   UNL     1       2.337   7.528  18.860  0.00  0.00    +0.000 C 
ATOM      3  O   UNL     1       2.097   7.706  20.054  0.00  0.00    +0.000 OA
ATOM      4  H   UNL     1       2.539   8.443  17.016  0.00  0.00    +0.000 HD
ENDROOT
BRANCH   1  12
ATOM      5  C   UNL     1      -3.525  10.127  17.724  0.00  0.00    +0.000 C 
ATOM      6  C   UNL     1      -2.374  10.982  18.105  0.00  0.00    +0.000 A 
ATOM      7  N   UNL     1      -2.577  12.272  18.417  0.00  0.00    +0.000 NA
ATOM      8  N   UNL     1      -1.339  12.732  18.678  0.00  0.00    +0.000 N 
ATOM      9  C   UNL     1      -0.362  11.789  18.549  0.00  0.00    +0.000 A 
ATOM     10  N   UNL     1       0.950  11.984  18.745  0.00  0.00    +0.000 NA
ATOM     11  C   UNL     1       1.681  10.858  18.503  0.00  0.00    +0.000 A 
ATOM     12  C   UNL     1       1.188   9.608  18.115  0.00  0.00    +0.000 A 
ATOM     13  C   UNL     1      -0.201   9.471  17.975  0.00  0.00    +0.000 A 
ATOM     14  C   UNL     1      -1.002  10.617  18.180  0.00  0.00    +0.000 A 
ATOM     15  H   UNL     1      -1.213  13.702  18.936  0.00  0.00    +0.000 HD
ENDBRANCH   1  12
BRANCH   2  16
ATOM     16  C   UNL     1       3.023   6.232  18.318  0.00  0.00    +0.000 C 
BRANCH  16  17
ATOM     17  C   UNL     1       2.392   4.964  18.895  0.00  0.00    +0.000 A 
ATOM     18  C   UNL     1       1.591   4.138  18.090  0.00  0.00    +0.000 A 
ATOM     19  C   UNL     1       0.957   3.014  18.630  0.00  0.00    +0.000 A 
ATOM     20  C   UNL     1       1.114   2.699  19.977  0.00  0.00    +0.000 A 
ATOM     21  C   UNL     1       1.932   3.485  20.780  0.00  0.00    +0.000 A 
ATOM     22  C   UNL     1       2.583   4.594  20.238  0.00  0.00    +0.000 A 
ENDBRANCH  16  17
BRANCH  16  23
ATOM     23  O   UNL     1       4.414   6.219  18.640  0.00  0.00    +0.000 OA
BRANCH  23  24
ATOM     24  C   UNL     1       5.317   5.723  17.745  0.00  0.00    +0.000 A 
ATOM     25  C   UNL     1       4.965   5.903  16.402  0.00  0.00    +0.000 A 
ATOM     26  C   UNL     1       5.766   5.395  15.378  0.00  0.00    +0.000 A 
ATOM     27  C   UNL     1       6.941   4.716  15.688  0.00  0.00    +0.000 A 
ATOM     28  C   UNL     1       7.332   4.590  17.020  0.00  0.00    +0.000 A 
ATOM     29  C   UNL     1       6.531   5.107  18.045  0.00  0.00    +0.000 A 
ENDBRANCH  23  24
ENDBRANCH  16  23
ENDBRANCH   2  16
TORSDOF 5
ENDMDL
MODEL 2
REMARK VINA RESULT:      -8.6      0.237      1.320
REMARK  Name = 
REMARK  6 active torsions:
REMARK  status: ('A' for Active; 'I' for Inactive)
REMARK    1  A    between atoms: C_1  and  C_2
REMARK    2  A    between atoms: C_8  and  N_9
REMARK    3  A    between atoms: C_10  and  C_12
REMARK    4  A    between atoms: C_12  and  O_13
REMARK    5  A    between atoms: C_12  and  C_20
REMARK    6  A    between atoms: O_13  and  C_14
REMARK                            x       y       z     vdW  Elec       q    Type
REMARK                         _______ _______ _______ _____ _____    ______ ____
ROOT
ATOM      1  N   UNL     1       1.878   8.509  17.880  0.00  0.00    +0.000 N 
ATOM      2  C   UNL     1       2.234   7.570  18.848  0.00  0.00    +0.000 C 
ATOM      3  O   UNL     1       2.033   7.754  20.049  0.00  0.00    +0.000 OA
ATOM      4  H   UNL     1       2.370   8.475  16.994  0.00  0.00    +0.000 HD
ENDROOT
BRANCH   1  12
ATOM      5  C   UNL     1      -3.655  10.195  17.697  0.00  0.00    +0.000 C 
ATOM      6  C   UNL     1      -2.503  11.033  18.115  0.00  0.00    +0.000 A 
ATOM      7  N   UNL     1      -2.704  12.316  18.460  0.00  0.00    +0.000 NA
ATOM      8  N   UNL     1      -1.467  12.762  18.749  0.00  0.00    +0.000 N 
ATOM      9  C   UNL     1      -0.493  11.817  18.605  0.00  0.00    +0.000 A 
ATOM     10  N   UNL     1       0.817  12.000  18.822  0.00  0.00    +0.000 NA
ATOM     11  C   UNL     1       1.546  10.877  18.559  0.00  0.00    +0.000 A 
ATOM     12  C   UNL     1       1.051   9.640  18.130  0.00  0.00    +0.000 A 
ATOM     13  C   UNL     1      -0.337   9.515  17.970  0.00  0.00    +0.000 A 
ATOM     14  C   UNL     1      -1.135  10.660  18.197  0.00  0.00    +0.000 A 
ATOM     15  H   UNL     1      -1.339  13.724  19.034  0.00  0.00    +0.000 HD
ENDBRANCH   1  12
BRANCH   2  16
ATOM     16  C   UNL     1       2.907   6.274  18.291  0.00  0.00    +0.000 C 
BRANCH  16  17
ATOM     17  C   UNL     1       2.281   5.006  18.875  0.00  0.00    +0.000 A 
ATOM     18  C   UNL     1       2.428   4.703  20.238  0.00  0.00    +0.000 A 
ATOM     19  C   UNL     1       1.916   3.512  20.763  0.00  0.00    +0.000 A 
ATOM     20  C   UNL     1       1.249   2.610  19.937  0.00  0.00    +0.000 A 
ATOM     21  C   UNL     1       1.061   2.912  18.594  0.00  0.00    +0.000 A 
ATOM     22  C   UNL     1       1.553   4.110  18.073  0.00  0.00    +0.000 A 
ENDBRANCH  16  17
BRANCH  16  23
ATOM     23  O   UNL     1       4.302   6.256  18.592  0.00  0.00    +0.000 OA
BRANCH  23  24
ATOM     24  C   UNL     1       5.181   5.686  17.717  0.00  0.00    +0.000 A 
ATOM     25  C   UNL     1       6.368   5.225  18.300  0.00  0.00    +0.000 A 
ATOM     26  C   UNL     1       7.382   4.672  17.517  0.00  0.00    +0.000 A 
ATOM     27  C   UNL     1       7.212   4.558  16.139  0.00  0.00    +0.000 A 
ATOM     28  C   UNL     1       6.008   4.954  15.560  0.00  0.00    +0.000 A 
ATOM     29  C   UNL     1       4.988   5.501  16.348  0.00  0.00    +0.000 A 
ENDBRANCH  23  24
ENDBRANCH  16  23
ENDBRANCH   2  16
TORSDOF 5
ENDMDL
MODEL 3
REMARK VINA RESULT:      -8.6      3.484      7.605
REMARK  Name = 
REMARK  6 active torsions:
REMARK  status: ('A' for Active; 'I' for Inactive)
REMARK    1  A    between atoms: C_1  and  C_2
REMARK    2  A    between atoms: C_8  and  N_9
REMARK    3  A    between atoms: C_10  and  C_12
REMARK    4  A    between atoms: C_12  and  O_13
REMARK    5  A    between atoms: C_12  and  C_20
REMARK    6  A    between atoms: O_13  and  C_14
REMARK                            x       y       z     vdW  Elec       q    Type
REMARK                         _______ _______ _______ _____ _____    ______ ____
ROOT
ATOM      1  N   UNL     1       4.252   5.403  17.088  0.00  0.00    +0.000 N 
ATOM      2  C   UNL     1       4.563   5.525  18.442  0.00  0.00    +0.000 C 
ATOM      3  O   UNL     1       5.688   5.290  18.883  0.00  0.00    +0.000 OA
ATOM      4  H   UNL     1       3.279   5.258  16.843  0.00  0.00    +0.000 HD
ENDROOT
BRANCH   1  12
ATOM      5  C   UNL     1       4.948   2.969  11.883  0.00  0.00    +0.000 C 
ATOM      6  C   UNL     1       5.973   3.748  12.624  0.00  0.00    +0.000 A 
ATOM      7  N   UNL     1       7.198   3.904  12.098  0.00  0.00    +0.000 NA
ATOM      8  N   UNL     1       7.853   4.622  13.030  0.00  0.00    +0.000 N 
ATOM      9  C   UNL     1       7.093   4.930  14.121  0.00  0.00    +0.000 A 
ATOM     10  N   UNL     1       7.500   5.628  15.190  0.00  0.00    +0.000 NA
ATOM     11  C   UNL     1       6.523   5.743  16.135  0.00  0.00    +0.000 A 
ATOM     12  C   UNL     1       5.221   5.236  16.057  0.00  0.00    +0.000 A 
ATOM     13  C   UNL     1       4.856   4.558  14.886  0.00  0.00    +0.000 A 
ATOM     14  C   UNL     1       5.843   4.380  13.889  0.00  0.00    +0.000 A 
ATOM     15  H   UNL     1       8.821   4.871  12.878  0.00  0.00    +0.000 HD
ENDBRANCH   1  12
BRANCH   2  16
ATOM     16  C   UNL     1       3.375   5.979  19.351  0.00  0.00    +0.000 C 
BRANCH  16  17
ATOM     17  C   UNL     1       2.532   4.794  19.826  0.00  0.00    +0.000 A 
ATOM     18  C   UNL     1       2.604   4.360  21.160  0.00  0.00    +0.000 A 
ATOM     19  C   UNL     1       1.887   3.236  21.584  0.00  0.00    +0.000 A 
ATOM     20  C   UNL     1       1.087   2.533  20.685  0.00  0.00    +0.000 A 
ATOM     21  C   UNL     1       0.975   2.971  19.370  0.00  0.00    +0.000 A 
ATOM     22  C   UNL     1       1.674   4.105  18.951  0.00  0.00    +0.000 A 
ENDBRANCH  16  17
BRANCH  16  23
ATOM     23  O   UNL     1       2.516   6.880  18.653  0.00  0.00    +0.000 OA
BRANCH  23  24
ATOM     24  C   UNL     1       1.919   7.909  19.322  0.00  0.00    +0.000 A 
ATOM     25  C   UNL     1       1.594   9.012  18.524  0.00  0.00    +0.000 A 
ATOM     26  C   UNL     1       1.031  10.160  19.085  0.00  0.00    +0.000 A 
ATOM     27  C   UNL     1       0.771  10.209  20.452  0.00  0.00    +0.000 A 
ATOM     28  C   UNL     1       1.031   9.091  21.242  0.00  0.00    +0.000 A 
ATOM     29  C   UNL     1       1.588   7.938  20.677  0.00  0.00    +0.000 A 
ENDBRANCH  23  24
ENDBRANCH  16  23
ENDBRANCH   2  16
TORSDOF 5
ENDMDL
MODEL 4
REMARK VINA RESULT:      -8.5      1.086      2.231
REMARK  Name = 
REMARK  6 active torsions:
REMARK  status: ('A' for Active; 'I' for Inactive)
REMARK    1  A    between atoms: C_1  and  C_2
REMARK    2  A    between atoms: C_8  and  N_9
REMARK    3  A    between atoms: C_10  and  C_12
REMARK    4  A    between atoms: C_12  and  O_13
REMARK    5  A    between atoms: C_12  and  C_20
REMARK    6  A    between atoms: O_13  and  C_14
REMARK                            x       y       z     vdW  Elec       q    Type
REMARK                         _______ _______ _______ _____ _____    ______ ____
ROOT
ATOM      1  N   UNL     1       1.932   8.738  17.906  0.00  0.00    +0.000 N 
ATOM      2  C   UNL     1       2.221   7.782  18.880  0.00  0.00    +0.000 C 
ATOM      3  O   UNL     1       1.986   7.967  20.074  0.00  0.00    +0.000 OA
ATOM      4  H   UNL     1       2.451   8.692  17.037  0.00  0.00    +0.000 HD
ENDROOT
BRANCH   1  12
ATOM      5  C   UNL     1       2.392  14.374  19.140  0.00  0.00    +0.000 C 
ATOM      6  C   UNL     1       1.124  13.628  18.939  0.00  0.00    +0.000 A 
ATOM      7  N   UNL     1      -0.051  14.264  19.076  0.00  0.00    +0.000 NA
ATOM      8  N   UNL     1      -0.961  13.296  18.854  0.00  0.00    +0.000 N 
ATOM      9  C   UNL     1      -0.412  12.078  18.577  0.00  0.00    +0.000 A 
ATOM     10  N   UNL     1      -1.091  10.950  18.324  0.00  0.00    +0.000 NA
ATOM     11  C   UNL     1      -0.264   9.884  18.119  0.00  0.00    +0.000 A 
ATOM     12  C   UNL     1       1.135   9.896  18.135  0.00  0.00    +0.000 A 
ATOM     13  C   UNL     1       1.772  11.125  18.362  0.00  0.00    +0.000 A 
ATOM     14  C   UNL     1       0.961  12.254  18.615  0.00  0.00    +0.000 A 
ATOM     15  H   UNL     1      -1.946  13.518  18.908  0.00  0.00    +0.000 HD
ENDBRANCH   1  12
BRANCH   2  16
ATOM     16  C   UNL     1       2.868   6.467  18.338  0.00  0.00    +0.000 C 
BRANCH  16  17
ATOM     17  C   UNL     1       2.131   5.220  18.830  0.00  0.00    +0.000 A 
ATOM     18  C   UNL     1       1.892   5.030  20.201  0.00  0.00    +0.000 A 
ATOM     19  C   UNL     1       1.280   3.861  20.663  0.00  0.00    +0.000 A 
ATOM     20  C   UNL     1       0.895   2.868  19.765  0.00  0.00    +0.000 A 
ATOM     21  C   UNL     1       1.091   3.055  18.402  0.00  0.00    +0.000 A 
ATOM     22  C   UNL     1       1.683   4.231  17.937  0.00  0.00    +0.000 A 
ENDBRANCH  16  17
BRANCH  16  23
ATOM     23  O   UNL     1       4.232   6.364  18.746  0.00  0.00    +0.000 OA
BRANCH  23  24
ATOM     24  C   UNL     1       5.164   5.852  17.891  0.00  0.00    +0.000 A 
ATOM     25  C   UNL     1       4.869   6.032  16.534  0.00  0.00    +0.000 A 
ATOM     26  C   UNL     1       5.705   5.509  15.545  0.00  0.00    +0.000 A 
ATOM     27  C   UNL     1       6.856   4.814  15.905  0.00  0.00    +0.000 A 
ATOM     28  C   UNL     1       7.190   4.688  17.252  0.00  0.00    +0.000 A 
ATOM     29  C   UNL     1       6.356   5.220  18.242  0.00  0.00    +0.000 A 
ENDBRANCH  23  24
ENDBRANCH  16  23
ENDBRANCH   2  16
TORSDOF 5
ENDMDL
MODEL 5
REMARK VINA RESULT:      -8.4      3.494      7.578
REMARK  Name = 
REMARK  6 active torsions:
REMARK  status: ('A' for Active; 'I' for Inactive)
REMARK    1  A    between atoms: C_1  and  C_2
REMARK    2  A    between atoms: C_8  and  N_9
REMARK    3  A    between atoms: C_10  and  C_12
REMARK    4  A    between atoms: C_12  and  O_13
REMARK    5  A    between atoms: C_12  and  C_20
REMARK    6  A    between atoms: O_13  and  C_14
REMARK                            x       y       z     vdW  Elec       q    Type
REMARK                         _______ _______ _______ _____ _____    ______ ____
ROOT
ATOM      1  N   UNL     1       4.222   5.355  17.081  0.00  0.00    +0.000 N 
ATOM      2  C   UNL     1       4.520   5.610  18.419  0.00  0.00    +0.000 C 
ATOM      3  O   UNL     1       5.664   5.522  18.867  0.00  0.00    +0.000 OA
ATOM      4  H   UNL     1       3.268   5.096  16.855  0.00  0.00    +0.000 HD
ENDROOT
BRANCH   1  12
ATOM      5  C   UNL     1       5.000   2.962  11.869  0.00  0.00    +0.000 C 
ATOM      6  C   UNL     1       6.006   3.751  12.623  0.00  0.00    +0.000 A 
ATOM      7  N   UNL     1       7.233   3.929  12.108  0.00  0.00    +0.000 NA
ATOM      8  N   UNL     1       7.869   4.652  13.050  0.00  0.00    +0.000 N 
ATOM      9  C   UNL     1       7.095   4.943  14.136  0.00  0.00    +0.000 A 
ATOM     10  N   UNL     1       7.483   5.641  15.212  0.00  0.00    +0.000 NA
ATOM     11  C   UNL     1       6.496   5.735  16.149  0.00  0.00    +0.000 A 
ATOM     12  C   UNL     1       5.202   5.210  16.058  0.00  0.00    +0.000 A 
ATOM     13  C   UNL     1       4.858   4.532  14.880  0.00  0.00    +0.000 A 
ATOM     14  C   UNL     1       5.856   4.375  13.890  0.00  0.00    +0.000 A 
ATOM     15  H   UNL     1       8.834   4.917  12.907  0.00  0.00    +0.000 HD
ENDBRANCH   1  12
BRANCH   2  16
ATOM     16  C   UNL     1       3.294   6.010  19.301  0.00  0.00    +0.000 C 
BRANCH  16  17
ATOM     17  C   UNL     1       2.560   4.785  19.852  0.00  0.00    +0.000 A 
ATOM     18  C   UNL     1       1.599   4.122  19.071  0.00  0.00    +0.000 A 
ATOM     19  C   UNL     1       0.877   3.044  19.594  0.00  0.00    +0.000 A 
ATOM     20  C   UNL     1       1.105   2.613  20.899  0.00  0.00    +0.000 A 
ATOM     21  C   UNL     1       2.078   3.234  21.673  0.00  0.00    +0.000 A 
ATOM     22  C   UNL     1       2.814   4.296  21.145  0.00  0.00    +0.000 A 
ENDBRANCH  16  17
BRANCH  16  23
ATOM     23  O   UNL     1       2.359   6.785  18.551  0.00  0.00    +0.000 OA
BRANCH  23  24
ATOM     24  C   UNL     1       1.879   7.956  19.062  0.00  0.00    +0.000 A 
ATOM     25  C   UNL     1       1.620   7.929  20.437  0.00  0.00    +0.000 A 
ATOM     26  C   UNL     1       1.073   9.038  21.085  0.00  0.00    +0.000 A 
ATOM     27  C   UNL     1       0.793  10.195  20.362  0.00  0.00    +0.000 A 
ATOM     28  C   UNL     1       1.108  10.252  19.006  0.00  0.00    +0.000 A 
ATOM     29  C   UNL     1       1.665   9.142  18.360  0.00  0.00    +0.000 A 
ENDBRANCH  23  24
ENDBRANCH  16  23
ENDBRANCH   2  16
TORSDOF 5
ENDMDL
MODEL 6
REMARK VINA RESULT:      -8.4      1.087      2.248
REMARK  Name = 
REMARK  6 active torsions:
REMARK  status: ('A' for Active; 'I' for Inactive)
REMARK    1  A    between atoms: C_1  and  C_2
REMARK    2  A    between atoms: C_8  and  N_9
REMARK    3  A    between atoms: C_10  and  C_12
REMARK    4  A    between atoms: C_12  and  O_13
REMARK    5  A    between atoms: C_12  and  C_20
REMARK    6  A    between atoms: O_13  and  C_14
REMARK                            x       y       z     vdW  Elec       q    Type
REMARK                         _______ _______ _______ _____ _____    ______ ____
ROOT
ATOM      1  N   UNL     1       1.986   8.750  17.893  0.00  0.00    +0.000 N 
ATOM      2  C   UNL     1       2.227   7.760  18.845  0.00  0.00    +0.000 C 
ATOM      3  O   UNL     1       1.947   7.908  20.035  0.00  0.00    +0.000 OA
ATOM      4  H   UNL     1       2.540   8.727  17.044  0.00  0.00    +0.000 HD
ENDROOT
BRANCH   1  12
ATOM      5  C   UNL     1       2.461  14.380  19.146  0.00  0.00    +0.000 C 
ATOM      6  C   UNL     1       1.192  13.638  18.946  0.00  0.00    +0.000 A 
ATOM      7  N   UNL     1       0.019  14.275  19.089  0.00  0.00    +0.000 NA
ATOM      8  N   UNL     1      -0.894  13.311  18.866  0.00  0.00    +0.000 N 
ATOM      9  C   UNL     1      -0.349  12.092  18.583  0.00  0.00    +0.000 A 
ATOM     10  N   UNL     1      -1.031  10.967  18.328  0.00  0.00    +0.000 NA
ATOM     11  C   UNL     1      -0.206   9.900  18.117  0.00  0.00    +0.000 A 
ATOM     12  C   UNL     1       1.193   9.909  18.129  0.00  0.00    +0.000 A 
ATOM     13  C   UNL     1       1.833  11.135  18.358  0.00  0.00    +0.000 A 
ATOM     14  C   UNL     1       1.025  12.266  18.617  0.00  0.00    +0.000 A 
ATOM     15  H   UNL     1      -1.878  13.534  18.924  0.00  0.00    +0.000 HD
ENDBRANCH   1  12
BRANCH   2  16
ATOM     16  C   UNL     1       2.882   6.456  18.286  0.00  0.00    +0.000 C 
BRANCH  16  17
ATOM     17  C   UNL     1       2.273   5.197  18.905  0.00  0.00    +0.000 A 
ATOM     18  C   UNL     1       1.621   4.251  18.097  0.00  0.00    +0.000 A 
ATOM     19  C   UNL     1       1.003   3.132  18.665  0.00  0.00    +0.000 A 
ATOM     20  C   UNL     1       1.029   2.941  20.045  0.00  0.00    +0.000 A 
ATOM     21  C   UNL     1       1.701   3.848  20.856  0.00  0.00    +0.000 A 
ATOM     22  C   UNL     1       2.336   4.953  20.288  0.00  0.00    +0.000 A 
ENDBRANCH  16  17
BRANCH  16  23
ATOM     23  O   UNL     1       4.286   6.440  18.545  0.00  0.00    +0.000 OA
BRANCH  23  24
ATOM     24  C   UNL     1       5.139   5.873  17.643  0.00  0.00    +0.000 A 
ATOM     25  C   UNL     1       6.239   5.220  18.212  0.00  0.00    +0.000 A 
ATOM     26  C   UNL     1       7.224   4.644  17.408  0.00  0.00    +0.000 A 
ATOM     27  C   UNL     1       7.110   4.702  16.021  0.00  0.00    +0.000 A 
ATOM     28  C   UNL     1       5.986   5.293  15.448  0.00  0.00    +0.000 A 
ATOM     29  C   UNL     1       4.995   5.862  16.256  0.00  0.00    +0.000 A 
ENDBRANCH  23  24
ENDBRANCH  16  23
ENDBRANCH   2  16
TORSDOF 5
ENDMDL
MODEL 7
REMARK VINA RESULT:      -8.3      2.000      2.358
REMARK  Name = 
REMARK  6 active torsions:
REMARK  status: ('A' for Active; 'I' for Inactive)
REMARK    1  A    between atoms: C_1  and  C_2
REMARK    2  A    between atoms: C_8  and  N_9
REMARK    3  A    between atoms: C_10  and  C_12
REMARK    4  A    between atoms: C_12  and  O_13
REMARK    5  A    between atoms: C_12  and  C_20
REMARK    6  A    between atoms: O_13  and  C_14
REMARK                            x       y       z     vdW  Elec       q    Type
REMARK                         _______ _______ _______ _____ _____    ______ ____
ROOT
ATOM      1  N   UNL     1       1.973   7.207  18.368  0.00  0.00    +0.000 N 
ATOM      2  C   UNL     1       3.265   6.805  18.030  0.00  0.00    +0.000 C 
ATOM      3  O   UNL     1       4.203   7.599  17.955  0.00  0.00    +0.000 OA
ATOM      4  H   UNL     1       1.206   6.613  18.073  0.00  0.00    +0.000 HD
ENDROOT
BRANCH   1  12
ATOM      5  C   UNL     1      -0.153   9.767  23.103  0.00  0.00    +0.000 C 
ATOM      6  C   UNL     1       0.282  10.456  21.863  0.00  0.00    +0.000 A 
ATOM      7  N   UNL     1       0.163  11.790  21.766  0.00  0.00    +0.000 NA
ATOM      8  N   UNL     1       0.619  12.059  20.528  0.00  0.00    +0.000 N 
ATOM      9  C   UNL     1       1.025  10.954  19.839  0.00  0.00    +0.000 A 
ATOM     10  N   UNL     1       1.514  10.941  18.591  0.00  0.00    +0.000 NA
ATOM     11  C   UNL     1       1.799   9.678  18.160  0.00  0.00    +0.000 A 
ATOM     12  C   UNL     1       1.646   8.492  18.887  0.00  0.00    +0.000 A 
ATOM     13  C   UNL     1       1.173   8.593  20.203  0.00  0.00    +0.000 A 
ATOM     14  C   UNL     1       0.829   9.876  20.687  0.00  0.00    +0.000 A 
ATOM     15  H   UNL     1       0.627  13.014  20.197  0.00  0.00    +0.000 HD
ENDBRANCH   1  12
BRANCH   2  16
ATOM     16  C   UNL     1       3.425   5.275  17.751  0.00  0.00    +0.000 C 
BRANCH  16  17
ATOM     17  C   UNL     1       2.648   4.424  18.757  0.00  0.00    +0.000 A 
ATOM     18  C   UNL     1       1.601   3.594  18.326  0.00  0.00    +0.000 A 
ATOM     19  C   UNL     1       0.843   2.865  19.249  0.00  0.00    +0.000 A 
ATOM     20  C   UNL     1       1.121   2.953  20.611  0.00  0.00    +0.000 A 
ATOM     21  C   UNL     1       2.178   3.742  21.052  0.00  0.00    +0.000 A 
ATOM     22  C   UNL     1       2.948   4.453  20.130  0.00  0.00    +0.000 A 
ENDBRANCH  16  17
BRANCH  16  23
ATOM     23  O   UNL     1       4.798   4.888  17.812  0.00  0.00    +0.000 OA
BRANCH  23  24
ATOM     24  C   UNL     1       5.544   4.837  16.671  0.00  0.00    +0.000 A 
ATOM     25  C   UNL     1       4.864   4.338  15.553  0.00  0.00    +0.000 A 
ATOM     26  C   UNL     1       5.519   4.175  14.331  0.00  0.00    +0.000 A 
ATOM     27  C   UNL     1       6.861   4.527  14.210  0.00  0.00    +0.000 A 
ATOM     28  C   UNL     1       7.526   5.086  15.300  0.00  0.00    +0.000 A 
ATOM     29  C   UNL     1       6.865   5.256  16.522  0.00  0.00    +0.000 A 
ENDBRANCH  23  24
ENDBRANCH  16  23
ENDBRANCH   2  16
TORSDOF 5
ENDMDL
MODEL 8
REMARK VINA RESULT:      -8.3      1.729      2.226
REMARK  Name = 
REMARK  6 active torsions:
REMARK  status: ('A' for Active; 'I' for Inactive)
REMARK    1  A    between atoms: C_1  and  C_2
REMARK    2  A    between atoms: C_8  and  N_9
REMARK    3  A    between atoms: C_10  and  C_12
REMARK    4  A    between atoms: C_12  and  O_13
REMARK    5  A    between atoms: C_12  and  C_20
REMARK    6  A    between atoms: O_13  and  C_14
REMARK                            x       y       z     vdW  Elec       q    Type
REMARK                         _______ _______ _______ _____ _____    ______ ____
ROOT
ATOM      1  N   UNL     1       1.646   7.481  19.916  0.00  0.00    +0.000 N 
ATOM      2  C   UNL     1       2.380   7.368  18.735  0.00  0.00    +0.000 C 
ATOM      3  O   UNL     1       2.511   8.307  17.949  0.00  0.00    +0.000 OA
ATOM      4  H   UNL     1       1.281   6.627  20.323  0.00  0.00    +0.000 HD
ENDROOT
BRANCH   1  12
ATOM      5  C   UNL     1      -0.807  12.476  18.327  0.00  0.00    +0.000 C 
ATOM      6  C   UNL     1      -0.428  12.095  19.711  0.00  0.00    +0.000 A 
ATOM      7  N   UNL     1      -0.620  12.963  20.717  0.00  0.00    +0.000 NA
ATOM      8  N   UNL     1      -0.149  12.307  21.794  0.00  0.00    +0.000 N 
ATOM      9  C   UNL     1       0.328  11.059  21.514  0.00  0.00    +0.000 A 
ATOM     10  N   UNL     1       0.855  10.202  22.400  0.00  0.00    +0.000 NA
ATOM     11  C   UNL     1       1.278   9.046  21.812  0.00  0.00    +0.000 A 
ATOM     12  C   UNL     1       1.185   8.716  20.455  0.00  0.00    +0.000 A 
ATOM     13  C   UNL     1       0.579   9.646  19.599  0.00  0.00    +0.000 A 
ATOM     14  C   UNL     1       0.155  10.876  20.152  0.00  0.00    +0.000 A 
ATOM     15  H   UNL     1      -0.171  12.756  22.700  0.00  0.00    +0.000 HD
ENDBRANCH   1  12
BRANCH   2  16
ATOM     16  C   UNL     1       3.016   5.962  18.488  0.00  0.00    +0.000 C 
BRANCH  16  17
ATOM     17  C   UNL     1       2.345   4.873  19.328  0.00  0.00    +0.000 A 
ATOM     18  C   UNL     1       2.686   4.708  20.681  0.00  0.00    +0.000 A 
ATOM     19  C   UNL     1       2.127   3.672  21.436  0.00  0.00    +0.000 A 
ATOM     20  C   UNL     1       1.219   2.790  20.854  0.00  0.00    +0.000 A 
ATOM     21  C   UNL     1       0.842   2.962  19.527  0.00  0.00    +0.000 A 
ATOM     22  C   UNL     1       1.384   4.008  18.778  0.00  0.00    +0.000 A 
ENDBRANCH  16  17
BRANCH  16  23
ATOM     23  O   UNL     1       4.407   5.970  18.805  0.00  0.00    +0.000 OA
BRANCH  23  24
ATOM     24  C   UNL     1       5.320   5.555  17.879  0.00  0.00    +0.000 A 
ATOM     25  C   UNL     1       4.923   5.735  16.548  0.00  0.00    +0.000 A 
ATOM     26  C   UNL     1       5.732   5.305  15.495  0.00  0.00    +0.000 A 
ATOM     27  C   UNL     1       6.958   4.702  15.763  0.00  0.00    +0.000 A 
ATOM     28  C   UNL     1       7.389   4.578  17.083  0.00  0.00    +0.000 A 
ATOM     29  C   UNL     1       6.581   5.018  18.137  0.00  0.00    +0.000 A 
ENDBRANCH  23  24
ENDBRANCH  16  23
ENDBRANCH   2  16
TORSDOF 5
ENDMDL
MODEL 9
REMARK VINA RESULT:      -8.2      2.028      4.773
REMARK  Name = 
REMARK  6 active torsions:
REMARK  status: ('A' for Active; 'I' for Inactive)
REMARK    1  A    between atoms: C_1  and  C_2
REMARK    2  A    between atoms: C_8  and  N_9
REMARK    3  A    between atoms: C_10  and  C_12
REMARK    4  A    between atoms: C_12  and  O_13
REMARK    5  A    between atoms: C_12  and  C_20
REMARK    6  A    between atoms: O_13  and  C_14
REMARK                            x       y       z     vdW  Elec       q    Type
REMARK                         _______ _______ _______ _____ _____    ______ ____
ROOT
ATOM      1  N   UNL     1       2.511   6.706  18.840  0.00  0.00    +0.000 N 
ATOM      2  C   UNL     1       3.665   6.537  18.076  0.00  0.00    +0.000 C 
ATOM      3  O   UNL     1       4.170   7.458  17.434  0.00  0.00    +0.000 OA
ATOM      4  H   UNL     1       1.958   5.880  19.041  0.00  0.00    +0.000 HD
ENDROOT
BRANCH   1  12
ATOM      5  C   UNL     1      -0.023   9.567  23.186  0.00  0.00    +0.000 C 
ATOM      6  C   UNL     1       0.249  10.107  21.830  0.00  0.00    +0.000 A 
ATOM      7  N   UNL     1      -0.136  11.356  21.522  0.00  0.00    +0.000 NA
ATOM      8  N   UNL     1       0.240  11.495  20.237  0.00  0.00    +0.000 N 
ATOM      9  C   UNL     1       0.851  10.389  19.720  0.00  0.00    +0.000 A 
ATOM     10  N   UNL     1       1.316  10.261  18.469  0.00  0.00    +0.000 NA
ATOM     11  C   UNL     1       1.843   9.023  18.239  0.00  0.00    +0.000 A 
ATOM     12  C   UNL     1       1.940   7.971  19.156  0.00  0.00    +0.000 A 
ATOM     13  C   UNL     1       1.474   8.199  20.459  0.00  0.00    +0.000 A 
ATOM     14  C   UNL     1       0.885   9.454  20.741  0.00  0.00    +0.000 A 
ATOM     15  H   UNL     1       0.052  12.363  19.753  0.00  0.00    +0.000 HD
ENDBRANCH   1  12
BRANCH   2  16
ATOM     16  C   UNL     1       4.260   5.092  18.095  0.00  0.00    +0.000 C 
BRANCH  16  17
ATOM     17  C   UNL     1       5.209   4.846  16.921  0.00  0.00    +0.000 A 
ATOM     18  C   UNL     1       6.595   5.013  17.079  0.00  0.00    +0.000 A 
ATOM     19  C   UNL     1       7.461   4.856  15.992  0.00  0.00    +0.000 A 
ATOM     20  C   UNL     1       6.958   4.529  14.735  0.00  0.00    +0.000 A 
ATOM     21  C   UNL     1       5.594   4.323  14.569  0.00  0.00    +0.000 A 
ATOM     22  C   UNL     1       4.730   4.459  15.657  0.00  0.00    +0.000 A 
ENDBRANCH  16  17
BRANCH  16  23
ATOM     23  O   UNL     1       3.223   4.113  18.036  0.00  0.00    +0.000 OA
BRANCH  23  24
ATOM     24  C   UNL     1       2.713   3.589  19.188  0.00  0.00    +0.000 A 
ATOM     25  C   UNL     1       1.314   3.558  19.245  0.00  0.00    +0.000 A 
ATOM     26  C   UNL     1       0.654   3.101  20.388  0.00  0.00    +0.000 A 
ATOM     27  C   UNL     1       1.390   2.654  21.482  0.00  0.00    +0.000 A 
ATOM     28  C   UNL     1       2.781   2.621  21.408  0.00  0.00    +0.000 A 
ATOM     29  C   UNL     1       3.441   3.071  20.259  0.00  0.00    +0.000 A 
ENDBRANCH  23  24
ENDBRANCH  16  23
ENDBRANCH   2  16
TORSDOF 5
ENDMDL
