MODEL 1
REMARK VINA RESULT:      -9.0      0.000      0.000
REMARK  Name = 
REMARK  4 active torsions:
REMARK  status: ('A' for Active; 'I' for Inactive)
REMARK    1  A    between atoms: C_2  and  C_14
REMARK    2  A    between atoms: N_3  and  C_4
REMARK    3  A    between atoms: C_18  and  S_19
REMARK    4  A    between atoms: S_19  and  N_22
REMARK                            x       y       z     vdW  Elec       q    Type
REMARK                         _______ _______ _______ _____ _____    ______ ____
ROOT
ATOM      1  O   UNL     1       2.063   9.816  17.500  0.00  0.00    +0.000 OA
ATOM      2  C   UNL     1       1.831   9.016  18.403  0.00  0.00    +0.000 C 
ATOM      3  N   UNL     1       0.970   9.239  19.467  0.00  0.00    +0.000 N 
ATOM      4  H   UNL     1       1.176   8.741  20.323  0.00  0.00    +0.000 HD
ENDROOT
BRANCH   3   5
ATOM      5  C   UNL     1       0.248  10.457  19.562  0.00  0.00    +0.000 A 
ATOM      6  C   UNL     1       0.736  11.464  20.407  0.00  0.00    +0.000 A 
ATOM      7  C   UNL     1       0.036  12.653  20.558  0.00  0.00    +0.000 A 
ATOM      8  C   UNL     1      -1.166  12.830  19.877  0.00  0.00    +0.000 A 
ATOM      9  C   UNL     1      -1.682  11.857  19.035  0.00  0.00    +0.000 A 
ATOM     10  N   UNL     1      -2.872  12.096  18.456  0.00  0.00    +0.000 NA
ATOM     11  C   UNL     1      -3.408  11.136  17.677  0.00  0.00    +0.000 A 
ATOM     12  C   UNL     1      -2.795   9.930  17.415  0.00  0.00    +0.000 A 
ATOM     13  C   UNL     1      -1.556   9.690  18.002  0.00  0.00    +0.000 A 
ATOM     14  C   UNL     1      -0.961  10.653  18.845  0.00  0.00    +0.000 A 
ENDBRANCH   3   5
BRANCH   2  15
ATOM     15  C   UNL     1       2.571   7.732  18.392  0.00  0.00    +0.000 A 
ATOM     16  C   UNL     1       2.383   6.864  19.476  0.00  0.00    +0.000 A 
ATOM     17  C   UNL     1       3.158   5.713  19.601  0.00  0.00    +0.000 A 
ATOM     18  C   UNL     1       4.120   5.416  18.636  0.00  0.00    +0.000 A 
ATOM     19  C   UNL     1       4.290   6.268  17.534  0.00  0.00    +0.000 A 
ATOM     20  C   UNL     1       3.510   7.426  17.401  0.00  0.00    +0.000 A 
BRANCH  19  21
ATOM     21  S   UNL     1       5.353   5.752  16.193  0.00  0.00    +0.000 S 
ATOM     22  O   UNL     1       5.107   4.348  15.971  0.00  0.00    +0.000 OA
ATOM     23  O   UNL     1       5.161   6.719  15.126  0.00  0.00    +0.000 OA
BRANCH  21  24
ATOM     24  N   UNL     1       6.923   5.923  16.772  0.00  0.00    +0.000 NA
ATOM     25  C   UNL     1       7.541   4.852  17.566  0.00  0.00    +0.000 C 
ATOM     26  C   UNL     1       7.703   5.471  18.941  0.00  0.00    +0.000 C 
ATOM     27  C   UNL     1       8.010   6.932  18.649  0.00  0.00    +0.000 C 
ATOM     28  C   UNL     1       7.374   7.227  17.294  0.00  0.00    +0.000 C 
ENDBRANCH  21  24
ENDBRANCH  19  21
ENDBRANCH   2  15
TORSDOF 4
ENDMDL
MODEL 2
REMARK VINA RESULT:      -8.7      1.828      2.374
REMARK  Name = 
REMARK  4 active torsions:
REMARK  status: ('A' for Active; 'I' for Inactive)
REMARK    1  A    between atoms: C_2  and  C_14
REMARK    2  A    between atoms: N_3  and  C_4
REMARK    3  A    between atoms: C_18  and  S_19
REMARK    4  A    between atoms: S_19  and  N_22
REMARK                            x       y       z     vdW  Elec       q    Type
REMARK                         _______ _______ _______ _____ _____    ______ ____
ROOT
ATOM      1  O   UNL     1       1.450   5.773  20.512  0.00  0.00    +0.000 OA
ATOM      2  C   UNL     1       2.059   6.332  19.601  0.00  0.00    +0.000 C 
ATOM      3  N   UNL     1       2.095   7.701  19.386  0.00  0.00    +0.000 N 
ATOM      4  H   UNL     1       2.237   8.002  18.432  0.00  0.00    +0.000 HD
ENDROOT
BRANCH   3   5
ATOM      5  C   UNL     1       1.420   8.584  20.270  0.00  0.00    +0.000 A 
ATOM      6  C   UNL     1       1.647   8.462  21.648  0.00  0.00    +0.000 A 
ATOM      7  C   UNL     1       0.974   9.279  22.544  0.00  0.00    +0.000 A 
ATOM      8  C   UNL     1       0.056  10.211  22.065  0.00  0.00    +0.000 A 
ATOM      9  C   UNL     1      -0.197  10.360  20.710  0.00  0.00    +0.000 A 
ATOM     10  N   UNL     1      -1.134  11.252  20.342  0.00  0.00    +0.000 NA
ATOM     11  C   UNL     1      -1.426  11.369  19.032  0.00  0.00    +0.000 A 
ATOM     12  C   UNL     1      -0.800  10.645  18.040  0.00  0.00    +0.000 A 
ATOM     13  C   UNL     1       0.180   9.733  18.420  0.00  0.00    +0.000 A 
ATOM     14  C   UNL     1       0.508   9.556  19.782  0.00  0.00    +0.000 A 
ENDBRANCH   3   5
BRANCH   2  15
ATOM     15  C   UNL     1       2.762   5.475  18.618  0.00  0.00    +0.000 A 
ATOM     16  C   UNL     1       2.484   4.102  18.639  0.00  0.00    +0.000 A 
ATOM     17  C   UNL     1       3.217   3.222  17.844  0.00  0.00    +0.000 A 
ATOM     18  C   UNL     1       4.226   3.711  17.015  0.00  0.00    +0.000 A 
ATOM     19  C   UNL     1       4.485   5.090  16.971  0.00  0.00    +0.000 A 
ATOM     20  C   UNL     1       3.748   5.981  17.765  0.00  0.00    +0.000 A 
BRANCH  19  21
ATOM     21  S   UNL     1       5.612   5.722  15.735  0.00  0.00    +0.000 S 
ATOM     22  O   UNL     1       5.742   4.705  14.719  0.00  0.00    +0.000 OA
ATOM     23  O   UNL     1       5.141   7.054  15.398  0.00  0.00    +0.000 OA
BRANCH  21  24
ATOM     24  N   UNL     1       7.094   5.877  16.514  0.00  0.00    +0.000 NA
ATOM     25  C   UNL     1       7.576   4.815  17.409  0.00  0.00    +0.000 C 
ATOM     26  C   UNL     1       7.568   5.468  18.778  0.00  0.00    +0.000 C 
ATOM     27  C   UNL     1       7.946   6.914  18.494  0.00  0.00    +0.000 C 
ATOM     28  C   UNL     1       7.503   7.185  17.060  0.00  0.00    +0.000 C 
ENDBRANCH  21  24
ENDBRANCH  19  21
ENDBRANCH   2  15
TORSDOF 4
ENDMDL
MODEL 3
REMARK VINA RESULT:      -8.7      1.011      1.013
REMARK  Name = 
REMARK  4 active torsions:
REMARK  status: ('A' for Active; 'I' for Inactive)
REMARK    1  A    between atoms: C_2  and  C_14
REMARK    2  A    between atoms: N_3  and  C_4
REMARK    3  A    between atoms: C_18  and  S_19
REMARK    4  A    between atoms: S_19  and  N_22
REMARK                            x       y       z     vdW  Elec       q    Type
REMARK                         _______ _______ _______ _____ _____    ______ ____
ROOT
ATOM      1  O   UNL     1       1.720   8.434  20.198  0.00  0.00    +0.000 OA
ATOM      2  C   UNL     1       1.926   8.307  18.993  0.00  0.00    +0.000 C 
ATOM      3  N   UNL     1       1.539   9.210  18.016  0.00  0.00    +0.000 N 
ATOM      4  H   UNL     1       1.369   8.830  17.095  0.00  0.00    +0.000 HD
ENDROOT
BRANCH   3   5
ATOM      5  C   UNL     1       0.873  10.412  18.374  0.00  0.00    +0.000 A 
ATOM      6  C   UNL     1       1.614  11.438  18.977  0.00  0.00    +0.000 A 
ATOM      7  C   UNL     1       0.990  12.610  19.379  0.00  0.00    +0.000 A 
ATOM      8  C   UNL     1      -0.383  12.753  19.194  0.00  0.00    +0.000 A 
ATOM      9  C   UNL     1      -1.150  11.760  18.603  0.00  0.00    +0.000 A 
ATOM     10  N   UNL     1      -2.476  11.965  18.508  0.00  0.00    +0.000 NA
ATOM     11  C   UNL     1      -3.238  10.986  17.983  0.00  0.00    +0.000 A 
ATOM     12  C   UNL     1      -2.735   9.793  17.511  0.00  0.00    +0.000 A 
ATOM     13  C   UNL     1      -1.361   9.588  17.595  0.00  0.00    +0.000 A 
ATOM     14  C   UNL     1      -0.520  10.572  18.157  0.00  0.00    +0.000 A 
ENDBRANCH   3   5
BRANCH   2  15
ATOM     15  C   UNL     1       2.588   7.061  18.537  0.00  0.00    +0.000 A 
ATOM     16  C   UNL     1       2.268   5.873  19.208  0.00  0.00    +0.000 A 
ATOM     17  C   UNL     1       2.961   4.697  18.929  0.00  0.00    +0.000 A 
ATOM     18  C   UNL     1       3.973   4.698  17.970  0.00  0.00    +0.000 A 
ATOM     19  C   UNL     1       4.274   5.880  17.275  0.00  0.00    +0.000 A 
ATOM     20  C   UNL     1       3.577   7.066  17.548  0.00  0.00    +0.000 A 
BRANCH  19  21
ATOM     21  S   UNL     1       5.401   5.809  15.890  0.00  0.00    +0.000 S 
ATOM     22  O   UNL     1       5.271   4.497  15.302  0.00  0.00    +0.000 OA
ATOM     23  O   UNL     1       5.154   7.004  15.102  0.00  0.00    +0.000 OA
BRANCH  21  24
ATOM     24  N   UNL     1       6.941   5.935  16.554  0.00  0.00    +0.000 NA
ATOM     25  C   UNL     1       7.534   4.798  17.272  0.00  0.00    +0.000 C 
ATOM     26  C   UNL     1       7.626   5.284  18.705  0.00  0.00    +0.000 C 
ATOM     27  C   UNL     1       7.930   6.768  18.567  0.00  0.00    +0.000 C 
ATOM     28  C   UNL     1       7.353   7.187  17.218  0.00  0.00    +0.000 C 
ENDBRANCH  21  24
ENDBRANCH  19  21
ENDBRANCH   2  15
TORSDOF 4
ENDMDL
MODEL 4
REMARK VINA RESULT:      -8.4      1.615      2.459
REMARK  Name = 
REMARK  4 active torsions:
REMARK  status: ('A' for Active; 'I' for Inactive)
REMARK    1  A    between atoms: C_2  and  C_14
REMARK    2  A    between atoms: N_3  and  C_4
REMARK    3  A    between atoms: C_18  and  S_19
REMARK    4  A    between atoms: S_19  and  N_22
REMARK                            x       y       z     vdW  Elec       q    Type
REMARK                         _______ _______ _______ _____ _____    ______ ____
ROOT
ATOM      1  O   UNL     1       1.396   8.565  20.391  0.00  0.00    +0.000 OA
ATOM      2  C   UNL     1       1.691   8.394  19.210  0.00  0.00    +0.000 C 
ATOM      3  N   UNL     1       1.270   9.191  18.157  0.00  0.00    +0.000 N 
ATOM      4  H   UNL     1       1.202   8.742  17.254  0.00  0.00    +0.000 HD
ENDROOT
BRANCH   3   5
ATOM      5  C   UNL     1       0.456  10.328  18.400  0.00  0.00    +0.000 A 
ATOM      6  C   UNL     1      -0.930  10.151  18.521  0.00  0.00    +0.000 A 
ATOM      7  C   UNL     1      -1.762  11.243  18.717  0.00  0.00    +0.000 A 
ATOM      8  C   UNL     1      -1.213  12.521  18.774  0.00  0.00    +0.000 A 
ATOM      9  C   UNL     1       0.152  12.738  18.656  0.00  0.00    +0.000 A 
ATOM     10  N   UNL     1       0.589  14.009  18.676  0.00  0.00    +0.000 NA
ATOM     11  C   UNL     1       1.907  14.235  18.511  0.00  0.00    +0.000 A 
ATOM     12  C   UNL     1       2.841  13.236  18.348  0.00  0.00    +0.000 A 
ATOM     13  C   UNL     1       2.391  11.919  18.343  0.00  0.00    +0.000 A 
ATOM     14  C   UNL     1       1.017  11.629  18.490  0.00  0.00    +0.000 A 
ENDBRANCH   3   5
BRANCH   2  15
ATOM     15  C   UNL     1       2.513   7.207  18.872  0.00  0.00    +0.000 A 
ATOM     16  C   UNL     1       2.466   6.115  19.749  0.00  0.00    +0.000 A 
ATOM     17  C   UNL     1       3.324   5.031  19.571  0.00  0.00    +0.000 A 
ATOM     18  C   UNL     1       4.226   5.027  18.508  0.00  0.00    +0.000 A 
ATOM     19  C   UNL     1       4.254   6.106  17.612  0.00  0.00    +0.000 A 
ATOM     20  C   UNL     1       3.390   7.199  17.783  0.00  0.00    +0.000 A 
BRANCH  19  21
ATOM     21  S   UNL     1       5.243   5.979  16.129  0.00  0.00    +0.000 S 
ATOM     22  O   UNL     1       5.058   4.645  15.608  0.00  0.00    +0.000 OA
ATOM     23  O   UNL     1       4.921   7.143  15.323  0.00  0.00    +0.000 OA
BRANCH  21  24
ATOM     24  N   UNL     1       6.839   6.125  16.638  0.00  0.00    +0.000 NA
ATOM     25  C   UNL     1       7.532   4.979  17.242  0.00  0.00    +0.000 C 
ATOM     26  C   UNL     1       7.759   5.411  18.678  0.00  0.00    +0.000 C 
ATOM     27  C   UNL     1       8.008   6.907  18.573  0.00  0.00    +0.000 C 
ATOM     28  C   UNL     1       7.284   7.361  17.309  0.00  0.00    +0.000 C 
ENDBRANCH  21  24
ENDBRANCH  19  21
ENDBRANCH   2  15
TORSDOF 4
ENDMDL
MODEL 5
REMARK VINA RESULT:      -8.4      3.171      8.586
REMARK  Name = 
REMARK  4 active torsions:
REMARK  status: ('A' for Active; 'I' for Inactive)
REMARK    1  A    between atoms: C_2  and  C_14
REMARK    2  A    between atoms: N_3  and  C_4
REMARK    3  A    between atoms: C_18  and  S_19
REMARK    4  A    between atoms: S_19  and  N_22
REMARK                            x       y       z     vdW  Elec       q    Type
REMARK                         _______ _______ _______ _____ _____    ______ ____
ROOT
ATOM      1  O   UNL     1       2.355   7.863  18.385  0.00  0.00    +0.000 OA
ATOM      2  C   UNL     1       2.066   7.701  19.569  0.00  0.00    +0.000 C 
ATOM      3  N   UNL     1       2.394   6.589  20.327  0.00  0.00    +0.000 N 
ATOM      4  H   UNL     1       1.774   6.370  21.095  0.00  0.00    +0.000 HD
ENDROOT
BRANCH   3   5
ATOM      5  C   UNL     1       3.150   5.530  19.758  0.00  0.00    +0.000 A 
ATOM      6  C   UNL     1       4.494   5.760  19.435  0.00  0.00    +0.000 A 
ATOM      7  C   UNL     1       5.253   4.763  18.839  0.00  0.00    +0.000 A 
ATOM      8  C   UNL     1       4.662   3.536  18.547  0.00  0.00    +0.000 A 
ATOM      9  C   UNL     1       3.335   3.271  18.849  0.00  0.00    +0.000 A 
ATOM     10  N   UNL     1       2.836   2.076  18.487  0.00  0.00    +0.000 NA
ATOM     11  C   UNL     1       1.534   1.826  18.729  0.00  0.00    +0.000 A 
ATOM     12  C   UNL     1       0.686   2.717  19.350  0.00  0.00    +0.000 A 
ATOM     13  C   UNL     1       1.206   3.948  19.738  0.00  0.00    +0.000 A 
ATOM     14  C   UNL     1       2.558   4.268  19.488  0.00  0.00    +0.000 A 
ENDBRANCH   3   5
BRANCH   2  15
ATOM     15  C   UNL     1       1.248   8.749  20.226  0.00  0.00    +0.000 A 
ATOM     16  C   UNL     1       1.234   8.777  21.627  0.00  0.00    +0.000 A 
ATOM     17  C   UNL     1       0.374   9.638  22.306  0.00  0.00    +0.000 A 
ATOM     18  C   UNL     1      -0.470  10.484  21.588  0.00  0.00    +0.000 A 
ATOM     19  C   UNL     1      -0.435  10.479  20.186  0.00  0.00    +0.000 A 
ATOM     20  C   UNL     1       0.431   9.618  19.496  0.00  0.00    +0.000 A 
BRANCH  19  21
ATOM     21  S   UNL     1      -1.345  11.731  19.290  0.00  0.00    +0.000 S 
ATOM     22  O   UNL     1      -2.047  12.528  20.267  0.00  0.00    +0.000 OA
ATOM     23  O   UNL     1      -0.400  12.342  18.372  0.00  0.00    +0.000 OA
BRANCH  21  24
ATOM     24  N   UNL     1      -2.485  10.894  18.380  0.00  0.00    +0.000 NA
ATOM     25  C   UNL     1      -2.087  10.206  17.144  0.00  0.00    +0.000 C 
ATOM     26  C   UNL     1      -2.801  10.981  16.054  0.00  0.00    +0.000 C 
ATOM     27  C   UNL     1      -4.114  11.395  16.701  0.00  0.00    +0.000 C 
ATOM     28  C   UNL     1      -3.837  11.458  18.200  0.00  0.00    +0.000 C 
ENDBRANCH  21  24
ENDBRANCH  19  21
ENDBRANCH   2  15
TORSDOF 4
ENDMDL
MODEL 6
REMARK VINA RESULT:      -8.4      1.445      2.113
REMARK  Name = 
REMARK  4 active torsions:
REMARK  status: ('A' for Active; 'I' for Inactive)
REMARK    1  A    between atoms: C_2  and  C_14
REMARK    2  A    between atoms: N_3  and  C_4
REMARK    3  A    between atoms: C_18  and  S_19
REMARK    4  A    between atoms: S_19  and  N_22
REMARK                            x       y       z     vdW  Elec       q    Type
REMARK                         _______ _______ _______ _____ _____    ______ ____
ROOT
ATOM      1  O   UNL     1       1.891   9.451  17.433  0.00  0.00    +0.000 OA
ATOM      2  C   UNL     1       1.846   8.756  18.447  0.00  0.00    +0.000 C 
ATOM      3  N   UNL     1       1.178   9.087  19.615  0.00  0.00    +0.000 N 
ATOM      4  H   UNL     1       1.546   8.693  20.470  0.00  0.00    +0.000 HD
ENDROOT
BRANCH   3   5
ATOM      5  C   UNL     1       0.444  10.300  19.702  0.00  0.00    +0.000 A 
ATOM      6  C   UNL     1       0.453  11.173  18.605  0.00  0.00    +0.000 A 
ATOM      7  C   UNL     1      -0.218  12.385  18.669  0.00  0.00    +0.000 A 
ATOM      8  C   UNL     1      -0.886  12.738  19.839  0.00  0.00    +0.000 A 
ATOM      9  C   UNL     1      -0.916  11.902  20.946  0.00  0.00    +0.000 A 
ATOM     10  N   UNL     1      -1.545  12.345  22.048  0.00  0.00    +0.000 NA
ATOM     11  C   UNL     1      -1.536  11.564  23.147  0.00  0.00    +0.000 A 
ATOM     12  C   UNL     1      -0.941  10.322  23.199  0.00  0.00    +0.000 A 
ATOM     13  C   UNL     1      -0.303   9.858  22.053  0.00  0.00    +0.000 A 
ATOM     14  C   UNL     1      -0.264  10.646  20.883  0.00  0.00    +0.000 A 
ENDBRANCH   3   5
BRANCH   2  15
ATOM     15  C   UNL     1       2.615   7.489  18.445  0.00  0.00    +0.000 A 
ATOM     16  C   UNL     1       2.437   6.620  19.530  0.00  0.00    +0.000 A 
ATOM     17  C   UNL     1       3.236   5.486  19.664  0.00  0.00    +0.000 A 
ATOM     18  C   UNL     1       4.212   5.208  18.709  0.00  0.00    +0.000 A 
ATOM     19  C   UNL     1       4.372   6.061  17.606  0.00  0.00    +0.000 A 
ATOM     20  C   UNL     1       3.568   7.201  17.462  0.00  0.00    +0.000 A 
BRANCH  19  21
ATOM     21  S   UNL     1       5.458   5.565  16.275  0.00  0.00    +0.000 S 
ATOM     22  O   UNL     1       5.264   4.149  16.073  0.00  0.00    +0.000 OA
ATOM     23  O   UNL     1       5.233   6.508  15.193  0.00  0.00    +0.000 OA
BRANCH  21  24
ATOM     24  N   UNL     1       7.019   5.802  16.855  0.00  0.00    +0.000 NA
ATOM     25  C   UNL     1       7.637   4.810  17.746  0.00  0.00    +0.000 C 
ATOM     26  C   UNL     1       7.776   5.548  19.064  0.00  0.00    +0.000 C 
ATOM     27  C   UNL     1       8.073   6.981  18.650  0.00  0.00    +0.000 C 
ATOM     28  C   UNL     1       7.450   7.151  17.267  0.00  0.00    +0.000 C 
ENDBRANCH  21  24
ENDBRANCH  19  21
ENDBRANCH   2  15
TORSDOF 4
ENDMDL
MODEL 7
REMARK VINA RESULT:      -8.3      3.016      8.453
REMARK  Name = 
REMARK  4 active torsions:
REMARK  status: ('A' for Active; 'I' for Inactive)
REMARK    1  A    between atoms: C_2  and  C_14
REMARK    2  A    between atoms: N_3  and  C_4
REMARK    3  A    between atoms: C_18  and  S_19
REMARK    4  A    between atoms: S_19  and  N_22
REMARK                            x       y       z     vdW  Elec       q    Type
REMARK                         _______ _______ _______ _____ _____    ______ ____
ROOT
ATOM      1  O   UNL     1       2.313   8.923  17.242  0.00  0.00    +0.000 OA
ATOM      2  C   UNL     1       2.000   8.518  18.360  0.00  0.00    +0.000 C 
ATOM      3  N   UNL     1       2.361   7.292  18.895  0.00  0.00    +0.000 N 
ATOM      4  H   UNL     1       1.731   6.900  19.583  0.00  0.00    +0.000 HD
ENDROOT
BRANCH   3   5
ATOM      5  C   UNL     1       3.179   6.398  18.155  0.00  0.00    +0.000 A 
ATOM      6  C   UNL     1       4.265   6.918  17.437  0.00  0.00    +0.000 A 
ATOM      7  C   UNL     1       5.063   6.082  16.669  0.00  0.00    +0.000 A 
ATOM      8  C   UNL     1       4.764   4.723  16.602  0.00  0.00    +0.000 A 
ATOM      9  C   UNL     1       3.698   4.172  17.295  0.00  0.00    +0.000 A 
ATOM     10  N   UNL     1       3.456   2.859  17.134  0.00  0.00    +0.000 NA
ATOM     11  C   UNL     1       2.391   2.323  17.762  0.00  0.00    +0.000 A 
ATOM     12  C   UNL     1       1.547   3.037  18.584  0.00  0.00    +0.000 A 
ATOM     13  C   UNL     1       1.807   4.392  18.764  0.00  0.00    +0.000 A 
ATOM     14  C   UNL     1       2.896   5.008  18.110  0.00  0.00    +0.000 A 
ENDBRANCH   3   5
BRANCH   2  15
ATOM     15  C   UNL     1       1.119   9.381  19.181  0.00  0.00    +0.000 A 
ATOM     16  C   UNL     1       1.046   9.113  20.555  0.00  0.00    +0.000 A 
ATOM     17  C   UNL     1       0.127   9.787  21.358  0.00  0.00    +0.000 A 
ATOM     18  C   UNL     1      -0.718  10.741  20.793  0.00  0.00    +0.000 A 
ATOM     19  C   UNL     1      -0.626  11.033  19.424  0.00  0.00    +0.000 A 
ATOM     20  C   UNL     1       0.300  10.360  18.611  0.00  0.00    +0.000 A 
BRANCH  19  21
ATOM     21  S   UNL     1      -1.545  12.418  18.767  0.00  0.00    +0.000 S 
ATOM     22  O   UNL     1      -2.225  13.042  19.877  0.00  0.00    +0.000 OA
ATOM     23  O   UNL     1      -0.612  13.173  17.948  0.00  0.00    +0.000 OA
BRANCH  21  24
ATOM     24  N   UNL     1      -2.705  11.749  17.750  0.00  0.00    +0.000 NA
ATOM     25  C   UNL     1      -3.745  10.864  18.294  0.00  0.00    +0.000 C 
ATOM     26  C   UNL     1      -3.426   9.514  17.682  0.00  0.00    +0.000 C 
ATOM     27  C   UNL     1      -2.897   9.858  16.298  0.00  0.00    +0.000 C 
ATOM     28  C   UNL     1      -2.315  11.264  16.412  0.00  0.00    +0.000 C 
ENDBRANCH  21  24
ENDBRANCH  19  21
ENDBRANCH   2  15
TORSDOF 4
ENDMDL
MODEL 8
REMARK VINA RESULT:      -8.3      5.029      8.082
REMARK  Name = 
REMARK  4 active torsions:
REMARK  status: ('A' for Active; 'I' for Inactive)
REMARK    1  A    between atoms: C_2  and  C_14
REMARK    2  A    between atoms: N_3  and  C_4
REMARK    3  A    between atoms: C_18  and  S_19
REMARK    4  A    between atoms: S_19  and  N_22
REMARK                            x       y       z     vdW  Elec       q    Type
REMARK                         _______ _______ _______ _____ _____    ______ ____
ROOT
ATOM      1  O   UNL     1       7.888  10.056  17.467  0.00  0.00    +0.000 OA
ATOM      2  C   UNL     1       8.377   9.262  18.269  0.00  0.00    +0.000 C 
ATOM      3  N   UNL     1       9.382   9.558  19.176  0.00  0.00    +0.000 N 
ATOM      4  H   UNL     1       9.977   8.788  19.453  0.00  0.00    +0.000 HD
ENDROOT
BRANCH   3   5
ATOM      5  C   UNL     1       9.912  10.872  19.256  0.00  0.00    +0.000 A 
ATOM      6  C   UNL     1      10.778  11.311  18.245  0.00  0.00    +0.000 A 
ATOM      7  C   UNL     1      11.349  12.574  18.311  0.00  0.00    +0.000 A 
ATOM      8  C   UNL     1      11.068  13.397  19.399  0.00  0.00    +0.000 A 
ATOM      9  C   UNL     1      10.218  12.997  20.419  0.00  0.00    +0.000 A 
ATOM     10  N   UNL     1      10.042  13.838  21.454  0.00  0.00    +0.000 NA
ATOM     11  C   UNL     1       9.259  13.439  22.476  0.00  0.00    +0.000 A 
ATOM     12  C   UNL     1       8.605  12.228  22.512  0.00  0.00    +0.000 A 
ATOM     13  C   UNL     1       8.775  11.364  21.434  0.00  0.00    +0.000 A 
ATOM     14  C   UNL     1       9.602  11.724  20.348  0.00  0.00    +0.000 A 
ENDBRANCH   3   5
BRANCH   2  15
ATOM     15  C   UNL     1       7.898   7.860  18.224  0.00  0.00    +0.000 A 
ATOM     16  C   UNL     1       8.418   6.966  19.171  0.00  0.00    +0.000 A 
ATOM     17  C   UNL     1       8.125   5.606  19.092  0.00  0.00    +0.000 A 
ATOM     18  C   UNL     1       7.301   5.132  18.072  0.00  0.00    +0.000 A 
ATOM     19  C   UNL     1       6.755   6.028  17.141  0.00  0.00    +0.000 A 
ATOM     20  C   UNL     1       7.043   7.399  17.218  0.00  0.00    +0.000 A 
BRANCH  19  21
ATOM     21  S   UNL     1       5.519   5.442  15.992  0.00  0.00    +0.000 S 
ATOM     22  O   UNL     1       5.210   6.537  15.104  0.00  0.00    +0.000 OA
ATOM     23  O   UNL     1       6.014   4.179  15.471  0.00  0.00    +0.000 OA
BRANCH  21  24
ATOM     24  N   UNL     1       4.155   5.120  16.922  0.00  0.00    +0.000 NA
ATOM     25  C   UNL     1       3.649   6.126  17.867  0.00  0.00    +0.000 C 
ATOM     26  C   UNL     1       3.877   5.490  19.225  0.00  0.00    +0.000 C 
ATOM     27  C   UNL     1       3.644   4.008  18.977  0.00  0.00    +0.000 C 
ATOM     28  C   UNL     1       3.964   3.778  17.503  0.00  0.00    +0.000 C 
ENDBRANCH  21  24
ENDBRANCH  19  21
ENDBRANCH   2  15
TORSDOF 4
ENDMDL
MODEL 9
REMARK VINA RESULT:      -8.1      2.285      3.575
REMARK  Name = 
REMARK  4 active torsions:
REMARK  status: ('A' for Active; 'I' for Inactive)
REMARK    1  A    between atoms: C_2  and  C_14
REMARK    2  A    between atoms: N_3  and  C_4
REMARK    3  A    between atoms: C_18  and  S_19
REMARK    4  A    between atoms: S_19  and  N_22
REMARK                            x       y       z     vdW  Elec       q    Type
REMARK                         _______ _______ _______ _____ _____    ______ ____
ROOT
ATOM      1  O   UNL     1       2.532   9.918  17.450  0.00  0.00    +0.000 OA
ATOM      2  C   UNL     1       2.196   8.908  18.066  0.00  0.00    +0.000 C 
ATOM      3  N   UNL     1       1.189   8.848  19.016  0.00  0.00    +0.000 N 
ATOM      4  H   UNL     1       1.285   8.138  19.728  0.00  0.00    +0.000 HD
ENDROOT
BRANCH   3   5
ATOM      5  C   UNL     1       0.427  10.005  19.327  0.00  0.00    +0.000 A 
ATOM      6  C   UNL     1       0.799  10.779  20.435  0.00  0.00    +0.000 A 
ATOM      7  C   UNL     1       0.054  11.892  20.795  0.00  0.00    +0.000 A 
ATOM      8  C   UNL     1      -1.079  12.226  20.057  0.00  0.00    +0.000 A 
ATOM      9  C   UNL     1      -1.481  11.484  18.957  0.00  0.00    +0.000 A 
ATOM     10  N   UNL     1      -2.614  11.852  18.333  0.00  0.00    +0.000 NA
ATOM     11  C   UNL     1      -3.042  11.109  17.294  0.00  0.00    +0.000 A 
ATOM     12  C   UNL     1      -2.372  10.005  16.814  0.00  0.00    +0.000 A 
ATOM     13  C   UNL     1      -1.192   9.633  17.450  0.00  0.00    +0.000 A 
ATOM     14  C   UNL     1      -0.710  10.365  18.557  0.00  0.00    +0.000 A 
ENDBRANCH   3   5
BRANCH   2  15
ATOM     15  C   UNL     1       2.967   7.666  17.820  0.00  0.00    +0.000 A 
ATOM     16  C   UNL     1       4.197   7.787  17.158  0.00  0.00    +0.000 A 
ATOM     17  C   UNL     1       4.899   6.649  16.764  0.00  0.00    +0.000 A 
ATOM     18  C   UNL     1       4.383   5.384  17.039  0.00  0.00    +0.000 A 
ATOM     19  C   UNL     1       3.166   5.261  17.729  0.00  0.00    +0.000 A 
ATOM     20  C   UNL     1       2.456   6.402  18.131  0.00  0.00    +0.000 A 
BRANCH  19  21
ATOM     21  S   UNL     1       2.639   3.645  18.280  0.00  0.00    +0.000 S 
ATOM     22  O   UNL     1       1.383   3.362  17.628  0.00  0.00    +0.000 OA
ATOM     23  O   UNL     1       3.782   2.764  18.109  0.00  0.00    +0.000 OA
BRANCH  21  24
ATOM     24  N   UNL     1       2.349   3.804  19.929  0.00  0.00    +0.000 NA
ATOM     25  C   UNL     1       3.295   3.246  20.905  0.00  0.00    +0.000 C 
ATOM     26  C   UNL     1       2.508   2.136  21.575  0.00  0.00    +0.000 C 
ATOM     27  C   UNL     1       1.085   2.670  21.614  0.00  0.00    +0.000 C 
ATOM     28  C   UNL     1       0.977   3.650  20.449  0.00  0.00    +0.000 C 
ENDBRANCH  21  24
ENDBRANCH  19  21
ENDBRANCH   2  15
TORSDOF 4
ENDMDL
