MODEL 1
REMARK VINA RESULT:      -8.3      0.000      0.000
REMARK  Name = 
REMARK  5 active torsions:
REMARK  status: ('A' for Active; 'I' for Inactive)
REMARK    1  A    between atoms: C_2  and  C_18
REMARK    2  A    between atoms: N_3  and  C_4
REMARK    3  A    between atoms: C_4  and  C_5
REMARK    4  A    between atoms: C_8  and  C_9
REMARK    5  A    between atoms: C_22  and  N_23
REMARK                            x       y       z     vdW  Elec       q    Type
REMARK                         _______ _______ _______ _____ _____    ______ ____
ROOT
ATOM      1  O   UNL     1      -0.936  11.635  18.337  0.00  0.00    +0.000 OA
ATOM      2  C   UNL     1      -0.442  11.240  19.386  0.00  0.00    +0.000 C 
ATOM      3  N   UNL     1       0.714  10.497  19.450  0.00  0.00    +0.000 N 
ATOM      4  H   UNL     1       1.017  10.110  20.332  0.00  0.00    +0.000 HD
ENDROOT
BRANCH   2   5
ATOM      5  C   UNL     1      -1.118  11.505  20.678  0.00  0.00    +0.000 A 
ATOM      6  C   UNL     1      -0.645  10.828  21.804  0.00  0.00    +0.000 A 
ATOM      7  C   UNL     1      -1.216  11.078  23.044  0.00  0.00    +0.000 A 
ATOM      8  C   UNL     1      -2.273  11.983  23.148  0.00  0.00    +0.000 A 
ATOM      9  C   UNL     1      -2.804  12.639  22.029  0.00  0.00    +0.000 A 
ATOM     10  C   UNL     1      -2.201  12.394  20.785  0.00  0.00    +0.000 A 
BRANCH   9  11
ATOM     11  N   UNL     1      -3.883  13.534  22.101  0.00  0.00    +0.000 N 
ATOM     12  C   UNL     1      -5.243  13.366  21.843  0.00  0.00    +0.000 A 
ATOM     13  N   UNL     1      -5.773  12.142  21.697  0.00  0.00    +0.000 NA
ATOM     14  C   UNL     1      -7.078  12.047  21.397  0.00  0.00    +0.000 A 
ATOM     15  C   UNL     1      -7.888  13.136  21.240  0.00  0.00    +0.000 A 
ATOM     16  C   UNL     1      -7.273  14.350  21.420  0.00  0.00    +0.000 A 
ATOM     17  N   UNL     1      -5.966  14.492  21.725  0.00  0.00    +0.000 NA
ATOM     18  H   UNL     1      -3.674  14.521  22.126  0.00  0.00    +0.000 HD
ENDBRANCH   9  11
ENDBRANCH   2   5
BRANCH   3  19
ATOM     19  C   UNL     1       1.401  10.069  18.256  0.00  0.00    +0.000 C 
BRANCH  19  20
ATOM     20  C   UNL     1       2.056   8.732  18.472  0.00  0.00    +0.000 A 
ATOM     21  C   UNL     1       1.784   7.994  19.630  0.00  0.00    +0.000 A 
ATOM     22  C   UNL     1       2.389   6.756  19.833  0.00  0.00    +0.000 A 
ATOM     23  C   UNL     1       3.335   6.274  18.919  0.00  0.00    +0.000 A 
ATOM     24  C   UNL     1       3.591   6.992  17.747  0.00  0.00    +0.000 A 
ATOM     25  C   UNL     1       2.958   8.219  17.528  0.00  0.00    +0.000 A 
BRANCH  23  26
ATOM     26  C   UNL     1       4.079   5.009  19.171  0.00  0.00    +0.000 C 
ATOM     27  O   UNL     1       5.130   5.069  19.804  0.00  0.00    +0.000 OA
ATOM     28  N   UNL     1       3.541   3.815  18.715  0.00  0.00    +0.000 N 
ATOM     29  C   UNL     1       2.252   3.588  18.086  0.00  0.00    +0.000 C 
ATOM     30  C   UNL     1       1.888   2.172  18.485  0.00  0.00    +0.000 C 
ATOM     31  C   UNL     1       3.237   1.467  18.535  0.00  0.00    +0.000 C 
ATOM     32  C   UNL     1       4.225   2.555  18.952  0.00  0.00    +0.000 C 
ENDBRANCH  23  26
ENDBRANCH  19  20
ENDBRANCH   3  19
TORSDOF 5
ENDMDL
MODEL 2
REMARK VINA RESULT:      -8.3      2.748     10.838
REMARK  Name = 
REMARK  5 active torsions:
REMARK  status: ('A' for Active; 'I' for Inactive)
REMARK    1  A    between atoms: C_2  and  C_18
REMARK    2  A    between atoms: N_3  and  C_4
REMARK    3  A    between atoms: C_4  and  C_5
REMARK    4  A    between atoms: C_8  and  C_9
REMARK    5  A    between atoms: C_22  and  N_23
REMARK                            x       y       z     vdW  Elec       q    Type
REMARK                         _______ _______ _______ _____ _____    ______ ____
ROOT
ATOM      1  O   UNL     1       1.680   8.445  21.483  0.00  0.00    +0.000 OA
ATOM      2  C   UNL     1       1.650   8.096  20.310  0.00  0.00    +0.000 C 
ATOM      3  N   UNL     1       1.388   8.953  19.267  0.00  0.00    +0.000 N 
ATOM      4  H   UNL     1       1.273   8.591  18.332  0.00  0.00    +0.000 HD
ENDROOT
BRANCH   2   5
ATOM      5  C   UNL     1       1.848   6.672  19.947  0.00  0.00    +0.000 A 
ATOM      6  C   UNL     1       1.242   5.710  20.757  0.00  0.00    +0.000 A 
ATOM      7  C   UNL     1       1.361   4.366  20.431  0.00  0.00    +0.000 A 
ATOM      8  C   UNL     1       2.107   3.990  19.314  0.00  0.00    +0.000 A 
ATOM      9  C   UNL     1       2.771   4.928  18.511  0.00  0.00    +0.000 A 
ATOM     10  C   UNL     1       2.621   6.285  18.839  0.00  0.00    +0.000 A 
BRANCH   9  11
ATOM     11  N   UNL     1       3.547   4.576  17.396  0.00  0.00    +0.000 N 
ATOM     12  C   UNL     1       4.928   4.562  17.198  0.00  0.00    +0.000 A 
ATOM     13  N   UNL     1       5.776   4.682  18.232  0.00  0.00    +0.000 NA
ATOM     14  C   UNL     1       7.092   4.716  17.973  0.00  0.00    +0.000 A 
ATOM     15  C   UNL     1       7.605   4.629  16.709  0.00  0.00    +0.000 A 
ATOM     16  C   UNL     1       6.673   4.493  15.710  0.00  0.00    +0.000 A 
ATOM     17  N   UNL     1       5.342   4.452  15.926  0.00  0.00    +0.000 NA
ATOM     18  H   UNL     1       3.088   4.526  16.500  0.00  0.00    +0.000 HD
ENDBRANCH   9  11
ENDBRANCH   2   5
BRANCH   3  19
ATOM     19  C   UNL     1       1.058  10.339  19.496  0.00  0.00    +0.000 C 
BRANCH  19  20
ATOM     20  C   UNL     1      -0.255  10.686  18.849  0.00  0.00    +0.000 A 
ATOM     21  C   UNL     1      -0.923  11.864  19.200  0.00  0.00    +0.000 A 
ATOM     22  C   UNL     1      -2.139  12.187  18.603  0.00  0.00    +0.000 A 
ATOM     23  C   UNL     1      -2.743  11.299  17.704  0.00  0.00    +0.000 A 
ATOM     24  C   UNL     1      -2.069  10.133  17.327  0.00  0.00    +0.000 A 
ATOM     25  C   UNL     1      -0.832   9.825  17.903  0.00  0.00    +0.000 A 
BRANCH  23  26
ATOM     26  C   UNL     1      -4.094  11.568  17.141  0.00  0.00    +0.000 C 
ATOM     27  O   UNL     1      -4.277  11.363  15.944  0.00  0.00    +0.000 OA
ATOM     28  N   UNL     1      -5.098  12.004  17.993  0.00  0.00    +0.000 N 
ATOM     29  C   UNL     1      -5.057  12.149  19.437  0.00  0.00    +0.000 C 
ATOM     30  C   UNL     1      -6.486  11.907  19.877  0.00  0.00    +0.000 C 
ATOM     31  C   UNL     1      -7.305  12.480  18.728  0.00  0.00    +0.000 C 
ATOM     32  C   UNL     1      -6.436  12.264  17.490  0.00  0.00    +0.000 C 
ENDBRANCH  23  26
ENDBRANCH  19  20
ENDBRANCH   3  19
TORSDOF 5
ENDMDL
MODEL 3
REMARK VINA RESULT:      -8.3      4.217     11.533
REMARK  Name = 
REMARK  5 active torsions:
REMARK  status: ('A' for Active; 'I' for Inactive)
REMARK    1  A    between atoms: C_2  and  C_18
REMARK    2  A    between atoms: N_3  and  C_4
REMARK    3  A    between atoms: C_4  and  C_5
REMARK    4  A    between atoms: C_8  and  C_9
REMARK    5  A    between atoms: C_22  and  N_23
REMARK                            x       y       z     vdW  Elec       q    Type
REMARK                         _______ _______ _______ _____ _____    ______ ____
ROOT
ATOM      1  O   UNL     1       2.651   5.239  17.993  0.00  0.00    +0.000 OA
ATOM      2  C   UNL     1       3.510   5.705  18.731  0.00  0.00    +0.000 C 
ATOM      3  N   UNL     1       3.229   6.388  19.891  0.00  0.00    +0.000 N 
ATOM      4  H   UNL     1       3.972   6.840  20.403  0.00  0.00    +0.000 HD
ENDROOT
BRANCH   2   5
ATOM      5  C   UNL     1       4.944   5.600  18.369  0.00  0.00    +0.000 A 
ATOM      6  C   UNL     1       5.851   5.338  19.397  0.00  0.00    +0.000 A 
ATOM      7  C   UNL     1       7.199   5.185  19.100  0.00  0.00    +0.000 A 
ATOM      8  C   UNL     1       7.635   5.321  17.782  0.00  0.00    +0.000 A 
ATOM      9  C   UNL     1       6.757   5.635  16.735  0.00  0.00    +0.000 A 
ATOM     10  C   UNL     1       5.394   5.763  17.048  0.00  0.00    +0.000 A 
BRANCH   9  11
ATOM     11  N   UNL     1       7.172   5.802  15.405  0.00  0.00    +0.000 N 
ATOM     12  C   UNL     1       6.920   5.051  14.257  0.00  0.00    +0.000 A 
ATOM     13  N   UNL     1       5.966   4.108  14.242  0.00  0.00    +0.000 NA
ATOM     14  C   UNL     1       5.807   3.382  13.125  0.00  0.00    +0.000 A 
ATOM     15  C   UNL     1       6.567   3.564  12.004  0.00  0.00    +0.000 A 
ATOM     16  C   UNL     1       7.510   4.558  12.094  0.00  0.00    +0.000 A 
ATOM     17  N   UNL     1       7.701   5.312  13.196  0.00  0.00    +0.000 NA
ATOM     18  H   UNL     1       7.953   6.415  15.230  0.00  0.00    +0.000 HD
ENDBRANCH   9  11
ENDBRANCH   2   5
BRANCH   3  19
ATOM     19  C   UNL     1       1.871   6.664  20.292  0.00  0.00    +0.000 C 
BRANCH  19  20
ATOM     20  C   UNL     1       1.496   8.081  19.953  0.00  0.00    +0.000 A 
ATOM     21  C   UNL     1       0.780   8.858  20.870  0.00  0.00    +0.000 A 
ATOM     22  C   UNL     1       0.431  10.170  20.559  0.00  0.00    +0.000 A 
ATOM     23  C   UNL     1       0.724  10.697  19.295  0.00  0.00    +0.000 A 
ATOM     24  C   UNL     1       1.463   9.937  18.383  0.00  0.00    +0.000 A 
ATOM     25  C   UNL     1       1.842   8.631  18.710  0.00  0.00    +0.000 A 
BRANCH  23  26
ATOM     26  C   UNL     1       0.261  12.055  18.898  0.00  0.00    +0.000 C 
ATOM     27  O   UNL     1      -0.829  12.159  18.341  0.00  0.00    +0.000 OA
ATOM     28  N   UNL     1       1.059  13.149  19.202  0.00  0.00    +0.000 N 
ATOM     29  C   UNL     1       2.288  13.183  19.975  0.00  0.00    +0.000 C 
ATOM     30  C   UNL     1       2.295  14.561  20.603  0.00  0.00    +0.000 C 
ATOM     31  C   UNL     1       1.626  15.429  19.545  0.00  0.00    +0.000 C 
ATOM     32  C   UNL     1       0.639  14.494  18.847  0.00  0.00    +0.000 C 
ENDBRANCH  23  26
ENDBRANCH  19  20
ENDBRANCH   3  19
TORSDOF 5
ENDMDL
MODEL 4
REMARK VINA RESULT:      -8.2      0.523      1.044
REMARK  Name = 
REMARK  5 active torsions:
REMARK  status: ('A' for Active; 'I' for Inactive)
REMARK    1  A    between atoms: C_2  and  C_18
REMARK    2  A    between atoms: N_3  and  C_4
REMARK    3  A    between atoms: C_4  and  C_5
REMARK    4  A    between atoms: C_8  and  C_9
REMARK    5  A    between atoms: C_22  and  N_23
REMARK                            x       y       z     vdW  Elec       q    Type
REMARK                         _______ _______ _______ _____ _____    ______ ____
ROOT
ATOM      1  O   UNL     1      -1.228  10.425  18.448  0.00  0.00    +0.000 OA
ATOM      2  C   UNL     1      -0.491  10.736  19.375  0.00  0.00    +0.000 C 
ATOM      3  N   UNL     1       0.882  10.679  19.308  0.00  0.00    +0.000 N 
ATOM      4  H   UNL     1       1.435  10.847  20.135  0.00  0.00    +0.000 HD
ENDROOT
BRANCH   2   5
ATOM      5  C   UNL     1      -1.061  11.152  20.678  0.00  0.00    +0.000 A 
ATOM      6  C   UNL     1      -0.580  10.519  21.825  0.00  0.00    +0.000 A 
ATOM      7  C   UNL     1      -1.051  10.908  23.072  0.00  0.00    +0.000 A 
ATOM      8  C   UNL     1      -2.019  11.908  23.163  0.00  0.00    +0.000 A 
ATOM      9  C   UNL     1      -2.560  12.527  22.027  0.00  0.00    +0.000 A 
ATOM     10  C   UNL     1      -2.056  12.140  20.775  0.00  0.00    +0.000 A 
BRANCH   9  11
ATOM     11  N   UNL     1      -3.552  13.518  22.089  0.00  0.00    +0.000 N 
ATOM     12  C   UNL     1      -4.928  13.464  21.863  0.00  0.00    +0.000 A 
ATOM     13  N   UNL     1      -5.568  12.289  21.771  0.00  0.00    +0.000 NA
ATOM     14  C   UNL     1      -6.882  12.302  21.499  0.00  0.00    +0.000 A 
ATOM     15  C   UNL     1      -7.595  13.454  21.319  0.00  0.00    +0.000 A 
ATOM     16  C   UNL     1      -6.871  14.613  21.446  0.00  0.00    +0.000 A 
ATOM     17  N   UNL     1      -5.550  14.646  21.721  0.00  0.00    +0.000 NA
ATOM     18  H   UNL     1      -3.255  14.482  22.075  0.00  0.00    +0.000 HD
ENDBRANCH   9  11
ENDBRANCH   2   5
BRANCH   3  19
ATOM     19  C   UNL     1       1.558  10.175  18.137  0.00  0.00    +0.000 C 
BRANCH  19  20
ATOM     20  C   UNL     1       2.147   8.818  18.409  0.00  0.00    +0.000 A 
ATOM     21  C   UNL     1       2.986   8.213  17.466  0.00  0.00    +0.000 A 
ATOM     22  C   UNL     1       3.533   6.956  17.715  0.00  0.00    +0.000 A 
ATOM     23  C   UNL     1       3.185   6.252  18.875  0.00  0.00    +0.000 A 
ATOM     24  C   UNL     1       2.370   6.860  19.835  0.00  0.00    +0.000 A 
ATOM     25  C   UNL     1       1.848   8.136  19.599  0.00  0.00    +0.000 A 
BRANCH  23  26
ATOM     26  C   UNL     1       3.665   4.862  19.108  0.00  0.00    +0.000 C 
ATOM     27  O   UNL     1       4.778   4.706  19.603  0.00  0.00    +0.000 OA
ATOM     28  N   UNL     1       2.826   3.804  18.791  0.00  0.00    +0.000 N 
ATOM     29  C   UNL     1       1.447   3.849  18.338  0.00  0.00    +0.000 C 
ATOM     30  C   UNL     1       0.841   2.563  18.860  0.00  0.00    +0.000 C 
ATOM     31  C   UNL     1       2.001   1.578  18.787  0.00  0.00    +0.000 C 
ATOM     32  C   UNL     1       3.246   2.431  19.016  0.00  0.00    +0.000 C 
ENDBRANCH  23  26
ENDBRANCH  19  20
ENDBRANCH   3  19
TORSDOF 5
ENDMDL
MODEL 5
REMARK VINA RESULT:      -8.1      4.259      7.247
REMARK  Name = 
REMARK  5 active torsions:
REMARK  status: ('A' for Active; 'I' for Inactive)
REMARK    1  A    between atoms: C_2  and  C_18
REMARK    2  A    between atoms: N_3  and  C_4
REMARK    3  A    between atoms: C_4  and  C_5
REMARK    4  A    between atoms: C_8  and  C_9
REMARK    5  A    between atoms: C_22  and  N_23
REMARK                            x       y       z     vdW  Elec       q    Type
REMARK                         _______ _______ _______ _____ _____    ______ ____
ROOT
ATOM      1  O   UNL     1      -0.790  12.494  18.909  0.00  0.00    +0.000 OA
ATOM      2  C   UNL     1       0.418  12.460  19.107  0.00  0.00    +0.000 C 
ATOM      3  N   UNL     1       1.069  11.384  19.663  0.00  0.00    +0.000 N 
ATOM      4  H   UNL     1       2.047  11.452  19.900  0.00  0.00    +0.000 HD
ENDROOT
BRANCH   2   5
ATOM      5  C   UNL     1       1.261  13.640  18.797  0.00  0.00    +0.000 A 
ATOM      6  C   UNL     1       0.681  14.902  18.938  0.00  0.00    +0.000 A 
ATOM      7  C   UNL     1       1.444  16.037  18.703  0.00  0.00    +0.000 A 
ATOM      8  C   UNL     1       2.774  15.905  18.302  0.00  0.00    +0.000 A 
ATOM      9  C   UNL     1       3.370  14.652  18.101  0.00  0.00    +0.000 A 
ATOM     10  C   UNL     1       2.592  13.513  18.366  0.00  0.00    +0.000 A 
BRANCH   9  11
ATOM     11  N   UNL     1       4.697  14.490  17.674  0.00  0.00    +0.000 N 
ATOM     12  C   UNL     1       5.910  14.813  18.283  0.00  0.00    +0.000 A 
ATOM     13  N   UNL     1       5.964  15.146  19.582  0.00  0.00    +0.000 NA
ATOM     14  C   UNL     1       7.152  15.499  20.097  0.00  0.00    +0.000 A 
ATOM     15  C   UNL     1       8.304  15.529  19.363  0.00  0.00    +0.000 A 
ATOM     16  C   UNL     1       8.166  15.160  18.047  0.00  0.00    +0.000 A 
ATOM     17  N   UNL     1       6.993  14.796  17.489  0.00  0.00    +0.000 NA
ATOM     18  H   UNL     1       4.858  14.321  16.693  0.00  0.00    +0.000 HD
ENDBRANCH   9  11
ENDBRANCH   2   5
BRANCH   3  19
ATOM     19  C   UNL     1       0.346  10.222  20.122  0.00  0.00    +0.000 C 
BRANCH  19  20
ATOM     20  C   UNL     1       1.131   8.968  19.848  0.00  0.00    +0.000 A 
ATOM     21  C   UNL     1       1.242   7.979  20.831  0.00  0.00    +0.000 A 
ATOM     22  C   UNL     1       1.968   6.817  20.580  0.00  0.00    +0.000 A 
ATOM     23  C   UNL     1       2.658   6.663  19.371  0.00  0.00    +0.000 A 
ATOM     24  C   UNL     1       2.529   7.633  18.373  0.00  0.00    +0.000 A 
ATOM     25  C   UNL     1       1.773   8.784  18.614  0.00  0.00    +0.000 A 
BRANCH  23  26
ATOM     26  C   UNL     1       3.533   5.483  19.126  0.00  0.00    +0.000 C 
ATOM     27  O   UNL     1       4.716   5.560  19.445  0.00  0.00    +0.000 OA
ATOM     28  N   UNL     1       2.972   4.338  18.580  0.00  0.00    +0.000 N 
ATOM     29  C   UNL     1       1.575   4.066  18.292  0.00  0.00    +0.000 C 
ATOM     30  C   UNL     1       1.448   2.564  18.451  0.00  0.00    +0.000 C 
ATOM     31  C   UNL     1       2.799   2.048  17.976  0.00  0.00    +0.000 C 
ATOM     32  C   UNL     1       3.785   3.158  18.338  0.00  0.00    +0.000 C 
ENDBRANCH  23  26
ENDBRANCH  19  20
ENDBRANCH   3  19
TORSDOF 5
ENDMDL
MODEL 6
REMARK VINA RESULT:      -8.1      4.140     11.730
REMARK  Name = 
REMARK  5 active torsions:
REMARK  status: ('A' for Active; 'I' for Inactive)
REMARK    1  A    between atoms: C_2  and  C_18
REMARK    2  A    between atoms: N_3  and  C_4
REMARK    3  A    between atoms: C_4  and  C_5
REMARK    4  A    between atoms: C_8  and  C_9
REMARK    5  A    between atoms: C_22  and  N_23
REMARK                            x       y       z     vdW  Elec       q    Type
REMARK                         _______ _______ _______ _____ _____    ______ ____
ROOT
ATOM      1  O   UNL     1       2.809   4.199  19.729  0.00  0.00    +0.000 OA
ATOM      2  C   UNL     1       3.515   5.171  19.489  0.00  0.00    +0.000 C 
ATOM      3  N   UNL     1       3.178   6.459  19.832  0.00  0.00    +0.000 N 
ATOM      4  H   UNL     1       3.747   7.231  19.517  0.00  0.00    +0.000 HD
ENDROOT
BRANCH   2   5
ATOM      5  C   UNL     1       4.785   5.007  18.743  0.00  0.00    +0.000 A 
ATOM      6  C   UNL     1       5.952   5.483  19.344  0.00  0.00    +0.000 A 
ATOM      7  C   UNL     1       7.172   5.310  18.704  0.00  0.00    +0.000 A 
ATOM      8  C   UNL     1       7.216   4.689  17.456  0.00  0.00    +0.000 A 
ATOM      9  C   UNL     1       6.056   4.248  16.802  0.00  0.00    +0.000 A 
ATOM     10  C   UNL     1       4.833   4.407  17.473  0.00  0.00    +0.000 A 
BRANCH   9  11
ATOM     11  N   UNL     1       6.069   3.642  15.537  0.00  0.00    +0.000 N 
ATOM     12  C   UNL     1       6.604   4.058  14.318  0.00  0.00    +0.000 A 
ATOM     13  N   UNL     1       7.457   5.092  14.254  0.00  0.00    +0.000 NA
ATOM     14  C   UNL     1       7.896   5.480  13.047  0.00  0.00    +0.000 A 
ATOM     15  C   UNL     1       7.520   4.867  11.885  0.00  0.00    +0.000 A 
ATOM     16  C   UNL     1       6.658   3.809  12.037  0.00  0.00    +0.000 A 
ATOM     17  N   UNL     1       6.194   3.385  13.231  0.00  0.00    +0.000 NA
ATOM     18  H   UNL     1       5.416   2.891  15.368  0.00  0.00    +0.000 HD
ENDBRANCH   9  11
ENDBRANCH   2   5
BRANCH   3  19
ATOM     19  C   UNL     1       1.912   6.767  20.453  0.00  0.00    +0.000 C 
BRANCH  19  20
ATOM     20  C   UNL     1       1.423   8.120  20.016  0.00  0.00    +0.000 A 
ATOM     21  C   UNL     1       1.754   8.614  18.749  0.00  0.00    +0.000 A 
ATOM     22  C   UNL     1       1.303   9.867  18.343  0.00  0.00    +0.000 A 
ATOM     23  C   UNL     1       0.580  10.678  19.226  0.00  0.00    +0.000 A 
ATOM     24  C   UNL     1       0.220  10.182  20.483  0.00  0.00    +0.000 A 
ATOM     25  C   UNL     1       0.646   8.910  20.878  0.00  0.00    +0.000 A 
BRANCH  23  26
ATOM     26  C   UNL     1       0.185  12.065  18.855  0.00  0.00    +0.000 C 
ATOM     27  O   UNL     1      -0.905  12.235  18.317  0.00  0.00    +0.000 OA
ATOM     28  N   UNL     1       1.045  13.109  19.162  0.00  0.00    +0.000 N 
ATOM     29  C   UNL     1       2.285  13.064  19.916  0.00  0.00    +0.000 C 
ATOM     30  C   UNL     1       2.377  14.431  20.564  0.00  0.00    +0.000 C 
ATOM     31  C   UNL     1       1.740  15.349  19.529  0.00  0.00    +0.000 C 
ATOM     32  C   UNL     1       0.694  14.480  18.833  0.00  0.00    +0.000 C 
ENDBRANCH  23  26
ENDBRANCH  19  20
ENDBRANCH   3  19
TORSDOF 5
ENDMDL
MODEL 7
REMARK VINA RESULT:      -8.1      2.601      3.543
REMARK  Name = 
REMARK  5 active torsions:
REMARK  status: ('A' for Active; 'I' for Inactive)
REMARK    1  A    between atoms: C_2  and  C_18
REMARK    2  A    between atoms: N_3  and  C_4
REMARK    3  A    between atoms: C_4  and  C_5
REMARK    4  A    between atoms: C_8  and  C_9
REMARK    5  A    between atoms: C_22  and  N_23
REMARK                            x       y       z     vdW  Elec       q    Type
REMARK                         _______ _______ _______ _____ _____    ______ ____
ROOT
ATOM      1  O   UNL     1       1.115  10.510  22.174  0.00  0.00    +0.000 OA
ATOM      2  C   UNL     1       0.550  10.230  21.124  0.00  0.00    +0.000 C 
ATOM      3  N   UNL     1       0.453   8.951  20.629  0.00  0.00    +0.000 N 
ATOM      4  H   UNL     1       0.068   8.792  19.710  0.00  0.00    +0.000 HD
ENDROOT
BRANCH   2   5
ATOM      5  C   UNL     1      -0.031  11.300  20.278  0.00  0.00    +0.000 A 
ATOM      6  C   UNL     1       0.658  12.512  20.208  0.00  0.00    +0.000 A 
ATOM      7  C   UNL     1       0.178  13.528  19.392  0.00  0.00    +0.000 A 
ATOM      8  C   UNL     1      -1.002  13.336  18.673  0.00  0.00    +0.000 A 
ATOM      9  C   UNL     1      -1.745  12.150  18.763  0.00  0.00    +0.000 A 
ATOM     10  C   UNL     1      -1.233  11.124  19.572  0.00  0.00    +0.000 A 
BRANCH   9  11
ATOM     11  N   UNL     1      -2.947  11.940  18.070  0.00  0.00    +0.000 N 
ATOM     12  C   UNL     1      -4.269  11.882  18.509  0.00  0.00    +0.000 A 
ATOM     13  N   UNL     1      -4.606  12.287  19.744  0.00  0.00    +0.000 NA
ATOM     14  C   UNL     1      -5.886  12.157  20.127  0.00  0.00    +0.000 A 
ATOM     15  C   UNL     1      -6.857  11.637  19.319  0.00  0.00    +0.000 A 
ATOM     16  C   UNL     1      -6.435  11.262  18.068  0.00  0.00    +0.000 A 
ATOM     17  N   UNL     1      -5.160  11.378  17.640  0.00  0.00    +0.000 NA
ATOM     18  H   UNL     1      -2.892  11.547  17.143  0.00  0.00    +0.000 HD
ENDBRANCH   9  11
ENDBRANCH   2   5
BRANCH   3  19
ATOM     19  C   UNL     1       1.082   7.836  21.296  0.00  0.00    +0.000 C 
BRANCH  19  20
ATOM     20  C   UNL     1       1.811   6.970  20.306  0.00  0.00    +0.000 A 
ATOM     21  C   UNL     1       2.284   7.515  19.107  0.00  0.00    +0.000 A 
ATOM     22  C   UNL     1       2.959   6.715  18.189  0.00  0.00    +0.000 A 
ATOM     23  C   UNL     1       3.103   5.342  18.420  0.00  0.00    +0.000 A 
ATOM     24  C   UNL     1       2.659   4.794  19.628  0.00  0.00    +0.000 A 
ATOM     25  C   UNL     1       2.010   5.605  20.564  0.00  0.00    +0.000 A 
BRANCH  23  26
ATOM     26  C   UNL     1       3.719   4.447  17.402  0.00  0.00    +0.000 C 
ATOM     27  O   UNL     1       3.005   3.611  16.854  0.00  0.00    +0.000 OA
ATOM     28  N   UNL     1       5.060   4.614  17.089  0.00  0.00    +0.000 N 
ATOM     29  C   UNL     1       5.973   5.644  17.552  0.00  0.00    +0.000 C 
ATOM     30  C   UNL     1       6.958   5.808  16.412  0.00  0.00    +0.000 C 
ATOM     31  C   UNL     1       7.070   4.399  15.845  0.00  0.00    +0.000 C 
ATOM     32  C   UNL     1       5.699   3.774  16.091  0.00  0.00    +0.000 C 
ENDBRANCH  23  26
ENDBRANCH  19  20
ENDBRANCH   3  19
TORSDOF 5
ENDMDL
MODEL 8
REMARK VINA RESULT:      -8.1      2.058     10.577
REMARK  Name = 
REMARK  5 active torsions:
REMARK  status: ('A' for Active; 'I' for Inactive)
REMARK    1  A    between atoms: C_2  and  C_18
REMARK    2  A    between atoms: N_3  and  C_4
REMARK    3  A    between atoms: C_4  and  C_5
REMARK    4  A    between atoms: C_8  and  C_9
REMARK    5  A    between atoms: C_22  and  N_23
REMARK                            x       y       z     vdW  Elec       q    Type
REMARK                         _______ _______ _______ _____ _____    ______ ____
ROOT
ATOM      1  O   UNL     1      -0.767   8.144  21.706  0.00  0.00    +0.000 OA
ATOM      2  C   UNL     1       0.112   8.921  21.353  0.00  0.00    +0.000 C 
ATOM      3  N   UNL     1       0.315  10.153  21.929  0.00  0.00    +0.000 N 
ATOM      4  H   UNL     1       0.985  10.793  21.530  0.00  0.00    +0.000 HD
ENDROOT
BRANCH   2   5
ATOM      5  C   UNL     1       0.997   8.582  20.214  0.00  0.00    +0.000 A 
ATOM      6  C   UNL     1       1.017   9.460  19.129  0.00  0.00    +0.000 A 
ATOM      7  C   UNL     1       1.865   9.209  18.059  0.00  0.00    +0.000 A 
ATOM      8  C   UNL     1       2.668   8.068  18.067  0.00  0.00    +0.000 A 
ATOM      9  C   UNL     1       2.633   7.140  19.118  0.00  0.00    +0.000 A 
ATOM     10  C   UNL     1       1.788   7.421  20.204  0.00  0.00    +0.000 A 
BRANCH   9  11
ATOM     11  N   UNL     1       3.412   5.973  19.140  0.00  0.00    +0.000 N 
ATOM     12  C   UNL     1       3.073   4.632  18.955  0.00  0.00    +0.000 A 
ATOM     13  N   UNL     1       1.877   4.283  18.458  0.00  0.00    +0.000 NA
ATOM     14  C   UNL     1       1.589   2.976  18.354  0.00  0.00    +0.000 A 
ATOM     15  C   UNL     1       2.459   1.989  18.725  0.00  0.00    +0.000 A 
ATOM     16  C   UNL     1       3.667   2.429  19.208  0.00  0.00    +0.000 A 
ATOM     17  N   UNL     1       3.998   3.732  19.327  0.00  0.00    +0.000 NA
ATOM     18  H   UNL     1       4.324   6.024  19.567  0.00  0.00    +0.000 HD
ENDBRANCH   9  11
ENDBRANCH   2   5
BRANCH   3  19
ATOM     19  C   UNL     1      -0.556  10.652  22.966  0.00  0.00    +0.000 C 
BRANCH  19  20
ATOM     20  C   UNL     1      -1.595  11.573  22.388  0.00  0.00    +0.000 A 
ATOM     21  C   UNL     1      -2.675  11.997  23.171  0.00  0.00    +0.000 A 
ATOM     22  C   UNL     1      -3.638  12.850  22.638  0.00  0.00    +0.000 A 
ATOM     23  C   UNL     1      -3.578  13.229  21.291  0.00  0.00    +0.000 A 
ATOM     24  C   UNL     1      -2.488  12.834  20.510  0.00  0.00    +0.000 A 
ATOM     25  C   UNL     1      -1.503  12.004  21.055  0.00  0.00    +0.000 A 
BRANCH  23  26
ATOM     26  C   UNL     1      -4.656  14.046  20.669  0.00  0.00    +0.000 C 
ATOM     27  O   UNL     1      -4.511  15.264  20.624  0.00  0.00    +0.000 OA
ATOM     28  N   UNL     1      -5.761  13.399  20.137  0.00  0.00    +0.000 N 
ATOM     29  C   UNL     1      -5.991  11.972  19.996  0.00  0.00    +0.000 C 
ATOM     30  C   UNL     1      -6.874  11.855  18.771  0.00  0.00    +0.000 C 
ATOM     31  C   UNL     1      -7.728  13.115  18.837  0.00  0.00    +0.000 C 
ATOM     32  C   UNL     1      -6.831  14.154  19.506  0.00  0.00    +0.000 C 
ENDBRANCH  23  26
ENDBRANCH  19  20
ENDBRANCH   3  19
TORSDOF 5
ENDMDL
MODEL 9
REMARK VINA RESULT:      -7.9      4.281     11.757
REMARK  Name = 
REMARK  5 active torsions:
REMARK  status: ('A' for Active; 'I' for Inactive)
REMARK    1  A    between atoms: C_2  and  C_18
REMARK    2  A    between atoms: N_3  and  C_4
REMARK    3  A    between atoms: C_4  and  C_5
REMARK    4  A    between atoms: C_8  and  C_9
REMARK    5  A    between atoms: C_22  and  N_23
REMARK                            x       y       z     vdW  Elec       q    Type
REMARK                         _______ _______ _______ _____ _____    ______ ____
ROOT
ATOM      1  O   UNL     1       2.147   5.986  18.890  0.00  0.00    +0.000 OA
ATOM      2  C   UNL     1       3.000   6.684  18.357  0.00  0.00    +0.000 C 
ATOM      3  N   UNL     1       2.750   7.939  17.852  0.00  0.00    +0.000 N 
ATOM      4  H   UNL     1       3.464   8.425  17.331  0.00  0.00    +0.000 HD
ENDROOT
BRANCH   2   5
ATOM      5  C   UNL     1       4.379   6.173  18.175  0.00  0.00    +0.000 A 
ATOM      6  C   UNL     1       4.993   5.569  19.274  0.00  0.00    +0.000 A 
ATOM      7  C   UNL     1       6.267   5.033  19.139  0.00  0.00    +0.000 A 
ATOM      8  C   UNL     1       6.930   5.129  17.916  0.00  0.00    +0.000 A 
ATOM      9  C   UNL     1       6.362   5.776  16.809  0.00  0.00    +0.000 A 
ATOM     10  C   UNL     1       5.064   6.291  16.954  0.00  0.00    +0.000 A 
BRANCH   9  11
ATOM     11  N   UNL     1       7.017   5.909  15.575  0.00  0.00    +0.000 N 
ATOM     12  C   UNL     1       6.908   5.184  14.388  0.00  0.00    +0.000 A 
ATOM     13  N   UNL     1       5.894   4.327  14.192  0.00  0.00    +0.000 NA
ATOM     14  C   UNL     1       5.873   3.619  13.052  0.00  0.00    +0.000 A 
ATOM     15  C   UNL     1       6.830   3.737  12.083  0.00  0.00    +0.000 A 
ATOM     16  C   UNL     1       7.823   4.646  12.353  0.00  0.00    +0.000 A 
ATOM     17  N   UNL     1       7.882   5.379  13.484  0.00  0.00    +0.000 NA
ATOM     18  H   UNL     1       7.866   6.453  15.549  0.00  0.00    +0.000 HD
ENDBRANCH   9  11
ENDBRANCH   2   5
BRANCH   3  19
ATOM     19  C   UNL     1       1.421   8.502  17.857  0.00  0.00    +0.000 C 
BRANCH  19  20
ATOM     20  C   UNL     1       1.420   9.852  18.520  0.00  0.00    +0.000 A 
ATOM     21  C   UNL     1       2.159  10.906  17.971  0.00  0.00    +0.000 A 
ATOM     22  C   UNL     1       2.160  12.157  18.583  0.00  0.00    +0.000 A 
ATOM     23  C   UNL     1       1.486  12.351  19.794  0.00  0.00    +0.000 A 
ATOM     24  C   UNL     1       0.722  11.312  20.335  0.00  0.00    +0.000 A 
ATOM     25  C   UNL     1       0.695  10.065  19.702  0.00  0.00    +0.000 A 
BRANCH  23  26
ATOM     26  C   UNL     1       1.567  13.646  20.525  0.00  0.00    +0.000 C 
ATOM     27  O   UNL     1       2.401  13.758  21.420  0.00  0.00    +0.000 OA
ATOM     28  N   UNL     1       0.725  14.681  20.146  0.00  0.00    +0.000 N 
ATOM     29  C   UNL     1      -0.197  14.730  19.026  0.00  0.00    +0.000 C 
ATOM     30  C   UNL     1      -0.248  16.197  18.649  0.00  0.00    +0.000 C 
ATOM     31  C   UNL     1      -0.092  16.905  19.989  0.00  0.00    +0.000 C 
ATOM     32  C   UNL     1       0.780  15.967  20.821  0.00  0.00    +0.000 C 
ENDBRANCH  23  26
ENDBRANCH  19  20
ENDBRANCH   3  19
TORSDOF 5
ENDMDL
