MODEL 1
REMARK VINA RESULT:      -8.5      0.000      0.000
REMARK  Name = 
REMARK  2 active torsions:
REMARK  status: ('A' for Active; 'I' for Inactive)
REMARK    1  A    between atoms: N_14  and  C_15
REMARK    2  A    between atoms: C_15  and  C_16
REMARK                            x       y       z     vdW  Elec       q    Type
REMARK                         _______ _______ _______ _____ _____    ______ ____
ROOT
ATOM      1  O   UNL     1       2.002   9.368  17.366  0.00  0.00    +0.000 OA
ATOM      2  C   UNL     1       1.806   8.903  18.485  0.00  0.00    +0.000 A 
ATOM      3  C   UNL     1       1.028   9.523  19.508  0.00  0.00    +0.000 A 
ATOM      4  O   UNL     1       0.395  10.719  19.389  0.00  0.00    +0.000 OA
ATOM      5  C   UNL     1      -0.221  10.939  20.594  0.00  0.00    +0.000 A 
ATOM      6  C   UNL     1      -0.982  12.061  20.916  0.00  0.00    +0.000 A 
ATOM      7  C   UNL     1      -1.535  12.098  22.201  0.00  0.00    +0.000 A 
ATOM      8  C   UNL     1      -1.329  11.053  23.107  0.00  0.00    +0.000 A 
ATOM      9  C   UNL     1      -0.553   9.937  22.760  0.00  0.00    +0.000 A 
ATOM     10  C   UNL     1       0.015   9.881  21.477  0.00  0.00    +0.000 A 
ATOM     11  C   UNL     1       0.833   8.991  20.749  0.00  0.00    +0.000 A 
ATOM     12  N   UNL     1       1.389   7.773  21.150  0.00  0.00    +0.000 NA
ATOM     13  C   UNL     1       2.103   7.211  20.214  0.00  0.00    +0.000 A 
ATOM     14  N   UNL     1       2.344   7.686  18.924  0.00  0.00    +0.000 N 
ENDROOT
BRANCH  14  15
ATOM     15  C   UNL     1       3.167   6.916  18.001  0.00  0.00    +0.000 C 
BRANCH  15  16
ATOM     16  C   UNL     1       2.974   5.424  18.184  0.00  0.00    +0.000 A 
ATOM     17  C   UNL     1       1.763   4.813  17.810  0.00  0.00    +0.000 A 
ATOM     18  C   UNL     1       1.527   3.464  18.092  0.00  0.00    +0.000 A 
ATOM     19  C   UNL     1       2.501   2.720  18.747  0.00  0.00    +0.000 A 
ATOM     20  F   UNL     1       2.250   1.444  19.067  0.00  0.00    +0.000 F 
ATOM     21  C   UNL     1       3.717   3.300  19.081  0.00  0.00    +0.000 A 
ATOM     22  F   UNL     1       4.660   2.580  19.704  0.00  0.00    +0.000 F 
ATOM     23  C   UNL     1       3.966   4.642  18.795  0.00  0.00    +0.000 A 
ENDBRANCH  15  16
ENDBRANCH  14  15
TORSDOF 2
ENDMDL
MODEL 2
REMARK VINA RESULT:      -8.3      0.578      1.358
REMARK  Name = 
REMARK  2 active torsions:
REMARK  status: ('A' for Active; 'I' for Inactive)
REMARK    1  A    between atoms: N_14  and  C_15
REMARK    2  A    between atoms: C_15  and  C_16
REMARK                            x       y       z     vdW  Elec       q    Type
REMARK                         _______ _______ _______ _____ _____    ______ ____
ROOT
ATOM      1  O   UNL     1       1.936   9.363  17.363  0.00  0.00    +0.000 OA
ATOM      2  C   UNL     1       1.761   8.891  18.483  0.00  0.00    +0.000 A 
ATOM      3  C   UNL     1       0.994   9.499  19.521  0.00  0.00    +0.000 A 
ATOM      4  O   UNL     1       0.352  10.692  19.418  0.00  0.00    +0.000 OA
ATOM      5  C   UNL     1      -0.247  10.901  20.633  0.00  0.00    +0.000 A 
ATOM      6  C   UNL     1      -1.010  12.016  20.973  0.00  0.00    +0.000 A 
ATOM      7  C   UNL     1      -1.544  12.042  22.267  0.00  0.00    +0.000 A 
ATOM      8  C   UNL     1      -1.317  10.994  23.164  0.00  0.00    +0.000 A 
ATOM      9  C   UNL     1      -0.539   9.885  22.799  0.00  0.00    +0.000 A 
ATOM     10  C   UNL     1       0.010   9.840  21.507  0.00  0.00    +0.000 A 
ATOM     11  C   UNL     1       0.822   8.959  20.762  0.00  0.00    +0.000 A 
ATOM     12  N   UNL     1       1.393   7.743  21.147  0.00  0.00    +0.000 NA
ATOM     13  C   UNL     1       2.096   7.192  20.198  0.00  0.00    +0.000 A 
ATOM     14  N   UNL     1       2.314   7.675  18.906  0.00  0.00    +0.000 N 
ENDROOT
BRANCH  14  15
ATOM     15  C   UNL     1       3.127   6.916  17.966  0.00  0.00    +0.000 C 
BRANCH  15  16
ATOM     16  C   UNL     1       3.083   5.429  18.256  0.00  0.00    +0.000 A 
ATOM     17  C   UNL     1       4.269   4.720  18.519  0.00  0.00    +0.000 A 
ATOM     18  C   UNL     1       4.254   3.329  18.660  0.00  0.00    +0.000 A 
ATOM     19  C   UNL     1       3.052   2.641  18.540  0.00  0.00    +0.000 A 
ATOM     20  F   UNL     1       3.049   1.304  18.618  0.00  0.00    +0.000 F 
ATOM     21  C   UNL     1       1.869   3.333  18.324  0.00  0.00    +0.000 A 
ATOM     22  F   UNL     1       0.709   2.670  18.218  0.00  0.00    +0.000 F 
ATOM     23  C   UNL     1       1.872   4.721  18.192  0.00  0.00    +0.000 A 
ENDBRANCH  15  16
ENDBRANCH  14  15
TORSDOF 2
ENDMDL
MODEL 3
REMARK VINA RESULT:      -8.3      2.479      3.232
REMARK  Name = 
REMARK  2 active torsions:
REMARK  status: ('A' for Active; 'I' for Inactive)
REMARK    1  A    between atoms: N_14  and  C_15
REMARK    2  A    between atoms: C_15  and  C_16
REMARK                            x       y       z     vdW  Elec       q    Type
REMARK                         _______ _______ _______ _____ _____    ______ ____
ROOT
ATOM      1  O   UNL     1       2.492   8.670  17.314  0.00  0.00    +0.000 OA
ATOM      2  C   UNL     1       2.186   8.150  18.383  0.00  0.00    +0.000 A 
ATOM      3  C   UNL     1       1.484   8.800  19.442  0.00  0.00    +0.000 A 
ATOM      4  O   UNL     1       1.058  10.090  19.417  0.00  0.00    +0.000 OA
ATOM      5  C   UNL     1       0.445  10.305  20.624  0.00  0.00    +0.000 A 
ATOM      6  C   UNL     1      -0.135  11.505  21.030  0.00  0.00    +0.000 A 
ATOM      7  C   UNL     1      -0.718  11.524  22.302  0.00  0.00    +0.000 A 
ATOM      8  C   UNL     1      -0.715  10.386  23.116  0.00  0.00    +0.000 A 
ATOM      9  C   UNL     1      -0.118   9.191  22.686  0.00  0.00    +0.000 A 
ATOM     10  C   UNL     1       0.477   9.151  21.414  0.00  0.00    +0.000 A 
ATOM     11  C   UNL     1       1.164   8.204  20.626  0.00  0.00    +0.000 A 
ATOM     12  N   UNL     1       1.503   6.882  20.928  0.00  0.00    +0.000 NA
ATOM     13  C   UNL     1       2.147   6.292  19.960  0.00  0.00    +0.000 A 
ATOM     14  N   UNL     1       2.505   6.829  18.722  0.00  0.00    +0.000 N 
ENDROOT
BRANCH  14  15
ATOM     15  C   UNL     1       3.223   6.015  17.750  0.00  0.00    +0.000 C 
BRANCH  15  16
ATOM     16  C   UNL     1       4.715   6.001  18.019  0.00  0.00    +0.000 A 
ATOM     17  C   UNL     1       5.240   5.225  19.067  0.00  0.00    +0.000 A 
ATOM     18  C   UNL     1       6.595   5.303  19.405  0.00  0.00    +0.000 A 
ATOM     19  C   UNL     1       7.430   6.159  18.695  0.00  0.00    +0.000 A 
ATOM     20  F   UNL     1       8.714   6.275  19.057  0.00  0.00    +0.000 F 
ATOM     21  C   UNL     1       6.932   6.896  17.630  0.00  0.00    +0.000 A 
ATOM     22  F   UNL     1       7.739   7.714  16.940  0.00  0.00    +0.000 F 
ATOM     23  C   UNL     1       5.585   6.817  17.280  0.00  0.00    +0.000 A 
ENDBRANCH  15  16
ENDBRANCH  14  15
TORSDOF 2
ENDMDL
MODEL 4
REMARK VINA RESULT:      -8.3      4.996      8.402
REMARK  Name = 
REMARK  2 active torsions:
REMARK  status: ('A' for Active; 'I' for Inactive)
REMARK    1  A    between atoms: N_14  and  C_15
REMARK    2  A    between atoms: C_15  and  C_16
REMARK                            x       y       z     vdW  Elec       q    Type
REMARK                         _______ _______ _______ _____ _____    ______ ____
ROOT
ATOM      1  O   UNL     1       7.383   6.391  17.801  0.00  0.00    +0.000 OA
ATOM      2  C   UNL     1       6.591   5.608  17.285  0.00  0.00    +0.000 A 
ATOM      3  C   UNL     1       6.626   5.180  15.924  0.00  0.00    +0.000 A 
ATOM      4  O   UNL     1       7.540   5.583  15.004  0.00  0.00    +0.000 OA
ATOM      5  C   UNL     1       7.206   4.945  13.838  0.00  0.00    +0.000 A 
ATOM      6  C   UNL     1       7.879   5.077  12.626  0.00  0.00    +0.000 A 
ATOM      7  C   UNL     1       7.386   4.335  11.547  0.00  0.00    +0.000 A 
ATOM      8  C   UNL     1       6.271   3.503  11.692  0.00  0.00    +0.000 A 
ATOM      9  C   UNL     1       5.606   3.392  12.922  0.00  0.00    +0.000 A 
ATOM     10  C   UNL     1       6.082   4.132  14.018  0.00  0.00    +0.000 A 
ATOM     11  C   UNL     1       5.727   4.316  15.371  0.00  0.00    +0.000 A 
ATOM     12  N   UNL     1       4.664   3.761  16.089  0.00  0.00    +0.000 NA
ATOM     13  C   UNL     1       4.633   4.157  17.331  0.00  0.00    +0.000 A 
ATOM     14  N   UNL     1       5.515   5.029  17.971  0.00  0.00    +0.000 N 
ENDROOT
BRANCH  14  15
ATOM     15  C   UNL     1       5.331   5.356  19.379  0.00  0.00    +0.000 C 
BRANCH  15  16
ATOM     16  C   UNL     1       4.116   4.665  19.963  0.00  0.00    +0.000 A 
ATOM     17  C   UNL     1       4.149   3.288  20.245  0.00  0.00    +0.000 A 
ATOM     18  C   UNL     1       2.997   2.616  20.663  0.00  0.00    +0.000 A 
ATOM     19  C   UNL     1       1.805   3.319  20.803  0.00  0.00    +0.000 A 
ATOM     20  F   UNL     1       0.690   2.662  21.148  0.00  0.00    +0.000 F 
ATOM     21  C   UNL     1       1.770   4.687  20.571  0.00  0.00    +0.000 A 
ATOM     22  F   UNL     1       0.624   5.366  20.715  0.00  0.00    +0.000 F 
ATOM     23  C   UNL     1       2.917   5.367  20.163  0.00  0.00    +0.000 A 
ENDBRANCH  15  16
ENDBRANCH  14  15
TORSDOF 2
ENDMDL
MODEL 5
REMARK VINA RESULT:      -8.2      4.708      8.126
REMARK  Name = 
REMARK  2 active torsions:
REMARK  status: ('A' for Active; 'I' for Inactive)
REMARK    1  A    between atoms: N_14  and  C_15
REMARK    2  A    between atoms: C_15  and  C_16
REMARK                            x       y       z     vdW  Elec       q    Type
REMARK                         _______ _______ _______ _____ _____    ______ ____
ROOT
ATOM      1  O   UNL     1       6.666   6.781  17.877  0.00  0.00    +0.000 OA
ATOM      2  C   UNL     1       5.970   5.935  17.325  0.00  0.00    +0.000 A 
ATOM      3  C   UNL     1       6.193   5.412  16.016  0.00  0.00    +0.000 A 
ATOM      4  O   UNL     1       7.210   5.781  15.193  0.00  0.00    +0.000 OA
ATOM      5  C   UNL     1       7.047   5.048  14.046  0.00  0.00    +0.000 A 
ATOM      6  C   UNL     1       7.870   5.117  12.924  0.00  0.00    +0.000 A 
ATOM      7  C   UNL     1       7.542   4.281  11.850  0.00  0.00    +0.000 A 
ATOM      8  C   UNL     1       6.440   3.422  11.913  0.00  0.00    +0.000 A 
ATOM      9  C   UNL     1       5.623   3.377  13.053  0.00  0.00    +0.000 A 
ATOM     10  C   UNL     1       5.932   4.210  14.141  0.00  0.00    +0.000 A 
ATOM     11  C   UNL     1       5.398   4.478  15.419  0.00  0.00    +0.000 A 
ATOM     12  N   UNL     1       4.266   3.938  16.035  0.00  0.00    +0.000 NA
ATOM     13  C   UNL     1       4.062   4.421  17.229  0.00  0.00    +0.000 A 
ATOM     14  N   UNL     1       4.829   5.368  17.909  0.00  0.00    +0.000 N 
ENDROOT
BRANCH  14  15
ATOM     15  C   UNL     1       4.454   5.789  19.252  0.00  0.00    +0.000 C 
BRANCH  15  16
ATOM     16  C   UNL     1       3.439   4.851  19.874  0.00  0.00    +0.000 A 
ATOM     17  C   UNL     1       2.079   5.207  19.923  0.00  0.00    +0.000 A 
ATOM     18  C   UNL     1       1.156   4.410  20.606  0.00  0.00    +0.000 A 
ATOM     19  C   UNL     1       1.588   3.252  21.242  0.00  0.00    +0.000 A 
ATOM     20  F   UNL     1       0.713   2.520  21.944  0.00  0.00    +0.000 F 
ATOM     21  C   UNL     1       2.919   2.867  21.163  0.00  0.00    +0.000 A 
ATOM     22  F   UNL     1       3.334   1.745  21.768  0.00  0.00    +0.000 F 
ATOM     23  C   UNL     1       3.845   3.650  20.476  0.00  0.00    +0.000 A 
ENDBRANCH  15  16
ENDBRANCH  14  15
TORSDOF 2
ENDMDL
MODEL 6
REMARK VINA RESULT:      -8.1      2.851      3.803
REMARK  Name = 
REMARK  2 active torsions:
REMARK  status: ('A' for Active; 'I' for Inactive)
REMARK    1  A    between atoms: N_14  and  C_15
REMARK    2  A    between atoms: C_15  and  C_16
REMARK                            x       y       z     vdW  Elec       q    Type
REMARK                         _______ _______ _______ _____ _____    ______ ____
ROOT
ATOM      1  O   UNL     1       2.353   5.650  20.402  0.00  0.00    +0.000 OA
ATOM      2  C   UNL     1       2.168   6.721  19.833  0.00  0.00    +0.000 A 
ATOM      3  C   UNL     1       1.497   7.847  20.396  0.00  0.00    +0.000 A 
ATOM      4  O   UNL     1       0.963   7.891  21.645  0.00  0.00    +0.000 OA
ATOM      5  C   UNL     1       0.414   9.140  21.775  0.00  0.00    +0.000 A 
ATOM      6  C   UNL     1      -0.249   9.615  22.904  0.00  0.00    +0.000 A 
ATOM      7  C   UNL     1      -0.736  10.925  22.844  0.00  0.00    +0.000 A 
ATOM      8  C   UNL     1      -0.557  11.711  21.701  0.00  0.00    +0.000 A 
ATOM      9  C   UNL     1       0.109  11.207  20.574  0.00  0.00    +0.000 A 
ATOM     10  C   UNL     1       0.603   9.893  20.611  0.00  0.00    +0.000 A 
ATOM     11  C   UNL     1       1.294   9.025  19.739  0.00  0.00    +0.000 A 
ATOM     12  N   UNL     1       1.722   9.247  18.428  0.00  0.00    +0.000 NA
ATOM     13  C   UNL     1       2.332   8.215  17.914  0.00  0.00    +0.000 A 
ATOM     14  N   UNL     1       2.584   6.984  18.521  0.00  0.00    +0.000 N 
ENDROOT
BRANCH  14  15
ATOM     15  C   UNL     1       3.291   5.939  17.793  0.00  0.00    +0.000 C 
BRANCH  15  16
ATOM     16  C   UNL     1       4.786   5.998  18.033  0.00  0.00    +0.000 A 
ATOM     17  C   UNL     1       5.373   5.229  19.053  0.00  0.00    +0.000 A 
ATOM     18  C   UNL     1       6.728   5.372  19.367  0.00  0.00    +0.000 A 
ATOM     19  C   UNL     1       7.503   6.285  18.659  0.00  0.00    +0.000 A 
ATOM     20  F   UNL     1       8.786   6.462  18.999  0.00  0.00    +0.000 F 
ATOM     21  C   UNL     1       6.946   7.017  17.620  0.00  0.00    +0.000 A 
ATOM     22  F   UNL     1       7.695   7.889  16.931  0.00  0.00    +0.000 F 
ATOM     23  C   UNL     1       5.598   6.874  17.294  0.00  0.00    +0.000 A 
ENDBRANCH  15  16
ENDBRANCH  14  15
TORSDOF 2
ENDMDL
MODEL 7
REMARK VINA RESULT:      -8.1      3.728      7.109
REMARK  Name = 
REMARK  2 active torsions:
REMARK  status: ('A' for Active; 'I' for Inactive)
REMARK    1  A    between atoms: N_14  and  C_15
REMARK    2  A    between atoms: C_15  and  C_16
REMARK                            x       y       z     vdW  Elec       q    Type
REMARK                         _______ _______ _______ _____ _____    ______ ____
ROOT
ATOM      1  O   UNL     1       2.541   8.673  17.217  0.00  0.00    +0.000 OA
ATOM      2  C   UNL     1       2.181   8.314  18.334  0.00  0.00    +0.000 A 
ATOM      3  C   UNL     1       2.349   7.003  18.871  0.00  0.00    +0.000 A 
ATOM      4  O   UNL     1       2.929   5.962  18.218  0.00  0.00    +0.000 OA
ATOM      5  C   UNL     1       2.877   4.901  19.083  0.00  0.00    +0.000 A 
ATOM      6  C   UNL     1       3.357   3.620  18.817  0.00  0.00    +0.000 A 
ATOM      7  C   UNL     1       3.216   2.671  19.835  0.00  0.00    +0.000 A 
ATOM      8  C   UNL     1       2.623   3.003  21.057  0.00  0.00    +0.000 A 
ATOM      9  C   UNL     1       2.142   4.299  21.298  0.00  0.00    +0.000 A 
ATOM     10  C   UNL     1       2.270   5.267  20.289  0.00  0.00    +0.000 A 
ATOM     11  C   UNL     1       1.931   6.625  20.113  0.00  0.00    +0.000 A 
ATOM     12  N   UNL     1       1.282   7.495  20.993  0.00  0.00    +0.000 NA
ATOM     13  C   UNL     1       1.126   8.691  20.499  0.00  0.00    +0.000 A 
ATOM     14  N   UNL     1       1.530   9.156  19.246  0.00  0.00    +0.000 N 
ENDROOT
BRANCH  14  15
ATOM     15  C   UNL     1       1.278  10.538  18.860  0.00  0.00    +0.000 C 
BRANCH  15  16
ATOM     16  C   UNL     1      -0.196  10.798  18.625  0.00  0.00    +0.000 A 
ATOM     17  C   UNL     1      -0.874  11.773  19.378  0.00  0.00    +0.000 A 
ATOM     18  C   UNL     1      -2.258  11.933  19.260  0.00  0.00    +0.000 A 
ATOM     19  C   UNL     1      -2.970  11.118  18.387  0.00  0.00    +0.000 A 
ATOM     20  F   UNL     1      -4.303  11.233  18.319  0.00  0.00    +0.000 F 
ATOM     21  C   UNL     1      -2.306  10.182  17.606  0.00  0.00    +0.000 A 
ATOM     22  F   UNL     1      -2.991   9.403  16.758  0.00  0.00    +0.000 F 
ATOM     23  C   UNL     1      -0.925  10.023  17.710  0.00  0.00    +0.000 A 
ENDBRANCH  15  16
ENDBRANCH  14  15
TORSDOF 2
ENDMDL
MODEL 8
REMARK VINA RESULT:      -8.0      1.523      1.791
REMARK  Name = 
REMARK  2 active torsions:
REMARK  status: ('A' for Active; 'I' for Inactive)
REMARK    1  A    between atoms: N_14  and  C_15
REMARK    2  A    between atoms: C_15  and  C_16
REMARK                            x       y       z     vdW  Elec       q    Type
REMARK                         _______ _______ _______ _____ _____    ______ ____
ROOT
ATOM      1  O   UNL     1       2.311   8.602  17.447  0.00  0.00    +0.000 OA
ATOM      2  C   UNL     1       1.857   8.649  18.587  0.00  0.00    +0.000 A 
ATOM      3  C   UNL     1       0.930   9.623  19.064  0.00  0.00    +0.000 A 
ATOM      4  O   UNL     1       0.420  10.641  18.323  0.00  0.00    +0.000 OA
ATOM      5  C   UNL     1      -0.413  11.334  19.162  0.00  0.00    +0.000 A 
ATOM      6  C   UNL     1      -1.145  12.468  18.815  0.00  0.00    +0.000 A 
ATOM      7  C   UNL     1      -1.946  13.031  19.814  0.00  0.00    +0.000 A 
ATOM      8  C   UNL     1      -2.004  12.472  21.095  0.00  0.00    +0.000 A 
ATOM      9  C   UNL     1      -1.253  11.333  21.421  0.00  0.00    +0.000 A 
ATOM     10  C   UNL     1      -0.438  10.754  20.434  0.00  0.00    +0.000 A 
ATOM     11  C   UNL     1       0.448   9.660  20.339  0.00  0.00    +0.000 A 
ATOM     12  N   UNL     1       0.824   8.739  21.321  0.00  0.00    +0.000 NA
ATOM     13  C   UNL     1       1.674   7.853  20.883  0.00  0.00    +0.000 A 
ATOM     14  N   UNL     1       2.207   7.744  19.598  0.00  0.00    +0.000 N 
ENDROOT
BRANCH  14  15
ATOM     15  C   UNL     1       3.147   6.677  19.282  0.00  0.00    +0.000 C 
BRANCH  15  16
ATOM     16  C   UNL     1       2.452   5.338  19.139  0.00  0.00    +0.000 A 
ATOM     17  C   UNL     1       2.209   4.795  17.865  0.00  0.00    +0.000 A 
ATOM     18  C   UNL     1       1.457   3.626  17.718  0.00  0.00    +0.000 A 
ATOM     19  C   UNL     1       0.945   2.993  18.845  0.00  0.00    +0.000 A 
ATOM     20  F   UNL     1       0.177   1.906  18.698  0.00  0.00    +0.000 F 
ATOM     21  C   UNL     1       1.216   3.494  20.111  0.00  0.00    +0.000 A 
ATOM     22  F   UNL     1       0.730   2.879  21.198  0.00  0.00    +0.000 F 
ATOM     23  C   UNL     1       1.973   4.654  20.268  0.00  0.00    +0.000 A 
ENDBRANCH  15  16
ENDBRANCH  14  15
TORSDOF 2
ENDMDL
MODEL 9
REMARK VINA RESULT:      -8.0      4.125      7.309
REMARK  Name = 
REMARK  2 active torsions:
REMARK  status: ('A' for Active; 'I' for Inactive)
REMARK    1  A    between atoms: N_14  and  C_15
REMARK    2  A    between atoms: C_15  and  C_16
REMARK                            x       y       z     vdW  Elec       q    Type
REMARK                         _______ _______ _______ _____ _____    ______ ____
ROOT
ATOM      1  O   UNL     1       2.544   8.636  17.256  0.00  0.00    +0.000 OA
ATOM      2  C   UNL     1       2.182   8.262  18.368  0.00  0.00    +0.000 A 
ATOM      3  C   UNL     1       2.376   6.952  18.899  0.00  0.00    +0.000 A 
ATOM      4  O   UNL     1       2.987   5.929  18.245  0.00  0.00    +0.000 OA
ATOM      5  C   UNL     1       2.952   4.862  19.104  0.00  0.00    +0.000 A 
ATOM      6  C   UNL     1       3.464   3.595  18.834  0.00  0.00    +0.000 A 
ATOM      7  C   UNL     1       3.337   2.636  19.846  0.00  0.00    +0.000 A 
ATOM      8  C   UNL     1       2.725   2.947  21.064  0.00  0.00    +0.000 A 
ATOM      9  C   UNL     1       2.212   4.230  21.308  0.00  0.00    +0.000 A 
ATOM     10  C   UNL     1       2.325   5.206  20.306  0.00  0.00    +0.000 A 
ATOM     11  C   UNL     1       1.956   6.558  20.135  0.00  0.00    +0.000 A 
ATOM     12  N   UNL     1       1.278   7.407  21.014  0.00  0.00    +0.000 NA
ATOM     13  C   UNL     1       1.099   8.602  20.525  0.00  0.00    +0.000 A 
ATOM     14  N   UNL     1       1.503   9.083  19.278  0.00  0.00    +0.000 N 
ENDROOT
BRANCH  14  15
ATOM     15  C   UNL     1       1.222  10.461  18.898  0.00  0.00    +0.000 C 
BRANCH  15  16
ATOM     16  C   UNL     1      -0.262  10.704  18.717  0.00  0.00    +0.000 A 
ATOM     17  C   UNL     1      -0.974  10.034  17.706  0.00  0.00    +0.000 A 
ATOM     18  C   UNL     1      -2.313  10.346  17.448  0.00  0.00    +0.000 A 
ATOM     19  C   UNL     1      -2.945  11.329  18.200  0.00  0.00    +0.000 A 
ATOM     20  F   UNL     1      -4.209  11.666  17.913  0.00  0.00    +0.000 F 
ATOM     21  C   UNL     1      -2.266  11.966  19.229  0.00  0.00    +0.000 A 
ATOM     22  F   UNL     1      -2.879  12.907  19.961  0.00  0.00    +0.000 F 
ATOM     23  C   UNL     1      -0.935  11.655  19.501  0.00  0.00    +0.000 A 
ENDBRANCH  15  16
ENDBRANCH  14  15
TORSDOF 2
ENDMDL
