MODEL 1
REMARK VINA RESULT:      -8.3      0.000      0.000
REMARK  Name = 
REMARK  5 active torsions:
REMARK  status: ('A' for Active; 'I' for Inactive)
REMARK    1  A    between atoms: C_2  and  C_24
REMARK    2  A    between atoms: N_3  and  C_4
REMARK    3  A    between atoms: C_7  and  C_8
REMARK    4  A    between atoms: C_8  and  N_9
REMARK    5  A    between atoms: C_10  and  C_12
REMARK                            x       y       z     vdW  Elec       q    Type
REMARK                         _______ _______ _______ _____ _____    ______ ____
ROOT
ATOM      1  C   UNL     1      -0.242  10.326  20.531  0.00  0.00    +0.000 A 
ATOM      2  C   UNL     1       0.673   9.343  20.917  0.00  0.00    +0.000 A 
ATOM      3  C   UNL     1       1.494   8.705  19.982  0.00  0.00    +0.000 A 
ATOM      4  C   UNL     1       1.426   9.032  18.626  0.00  0.00    +0.000 A 
ATOM      5  C   UNL     1       0.460   9.967  18.223  0.00  0.00    +0.000 A 
ATOM      6  C   UNL     1      -0.369  10.601  19.161  0.00  0.00    +0.000 A 
ENDROOT
BRANCH   1   9
ATOM      7  O   UNL     1       0.445  12.783  21.990  0.00  0.00    +0.000 OA
ATOM      8  C   UNL     1      -0.628  12.195  22.126  0.00  0.00    +0.000 C 
ATOM      9  N   UNL     1      -1.031  11.053  21.457  0.00  0.00    +0.000 N 
ATOM     10  H   UNL     1      -2.009  10.815  21.495  0.00  0.00    +0.000 HD
BRANCH   8  11
ATOM     11  C   UNL     1      -1.612  12.813  23.055  0.00  0.00    +0.000 A 
ATOM     12  C   UNL     1      -2.792  12.093  23.294  0.00  0.00    +0.000 A 
ATOM     13  C   UNL     1      -3.757  12.696  24.079  0.00  0.00    +0.000 A 
ATOM     14  N   UNL     1      -3.622  13.927  24.626  0.00  0.00    +0.000 NA
ATOM     15  C   UNL     1      -2.477  14.595  24.374  0.00  0.00    +0.000 A 
ATOM     16  C   UNL     1      -1.439  14.088  23.606  0.00  0.00    +0.000 A 
ENDBRANCH   8  11
ENDBRANCH   1   9
BRANCH   4  17
ATOM     17  C   UNL     1       2.381   8.405  17.641  0.00  0.00    +0.000 C 
BRANCH  17  18
ATOM     18  N   UNL     1       2.378   6.962  17.709  0.00  0.00    +0.000 N 
ATOM     19  C   UNL     1       3.568   6.266  17.819  0.00  0.00    +0.000 C 
ATOM     20  O   UNL     1       4.664   6.818  17.819  0.00  0.00    +0.000 OA
ATOM     21  H   UNL     1       1.508   6.497  17.935  0.00  0.00    +0.000 HD
BRANCH  19  22
ATOM     22  C   UNL     1       3.466   4.794  18.064  0.00  0.00    +0.000 A 
ATOM     23  C   UNL     1       3.886   3.956  17.013  0.00  0.00    +0.000 A 
ATOM     24  C   UNL     1       3.982   2.583  17.202  0.00  0.00    +0.000 A 
ATOM     25  C   UNL     1       3.788   2.061  18.479  0.00  0.00    +0.000 A 
ATOM     26  C   UNL     1       3.334   2.872  19.523  0.00  0.00    +0.000 A 
ATOM     27  C   UNL     1       3.115   2.311  20.785  0.00  0.00    +0.000 A 
ATOM     28  C   UNL     1       2.252   2.932  21.676  0.00  0.00    +0.000 A 
ATOM     29  C   UNL     1       1.757   4.196  21.386  0.00  0.00    +0.000 A 
ATOM     30  C   UNL     1       2.220   4.880  20.259  0.00  0.00    +0.000 A 
ATOM     31  C   UNL     1       3.019   4.234  19.285  0.00  0.00    +0.000 A 
ENDBRANCH  19  22
ENDBRANCH  17  18
ENDBRANCH   4  17
TORSDOF 5
ENDMDL
MODEL 2
REMARK VINA RESULT:      -8.1      5.380      8.300
REMARK  Name = 
REMARK  5 active torsions:
REMARK  status: ('A' for Active; 'I' for Inactive)
REMARK    1  A    between atoms: C_2  and  C_24
REMARK    2  A    between atoms: N_3  and  C_4
REMARK    3  A    between atoms: C_7  and  C_8
REMARK    4  A    between atoms: C_8  and  N_9
REMARK    5  A    between atoms: C_10  and  C_12
REMARK                            x       y       z     vdW  Elec       q    Type
REMARK                         _______ _______ _______ _____ _____    ______ ____
ROOT
ATOM      1  C   UNL     1       8.271   7.740  18.446  0.00  0.00    +0.000 A 
ATOM      2  C   UNL     1       7.568   7.763  17.239  0.00  0.00    +0.000 A 
ATOM      3  C   UNL     1       6.940   6.618  16.740  0.00  0.00    +0.000 A 
ATOM      4  C   UNL     1       6.994   5.408  17.436  0.00  0.00    +0.000 A 
ATOM      5  C   UNL     1       7.758   5.361  18.613  0.00  0.00    +0.000 A 
ATOM      6  C   UNL     1       8.395   6.509  19.108  0.00  0.00    +0.000 A 
ENDROOT
BRANCH   1   9
ATOM      7  O   UNL     1       8.182  10.514  17.480  0.00  0.00    +0.000 OA
ATOM      8  C   UNL     1       8.786  10.173  18.496  0.00  0.00    +0.000 C 
ATOM      9  N   UNL     1       8.851   8.896  19.025  0.00  0.00    +0.000 N 
ATOM     10  H   UNL     1       9.183   8.803  19.972  0.00  0.00    +0.000 HD
BRANCH   8  11
ATOM     11  C   UNL     1       9.459  11.254  19.265  0.00  0.00    +0.000 A 
ATOM     12  C   UNL     1      10.135  12.231  18.519  0.00  0.00    +0.000 A 
ATOM     13  C   UNL     1      10.844  13.189  19.221  0.00  0.00    +0.000 A 
ATOM     14  N   UNL     1      10.914  13.235  20.572  0.00  0.00    +0.000 NA
ATOM     15  C   UNL     1      10.255  12.278  21.260  0.00  0.00    +0.000 A 
ATOM     16  C   UNL     1       9.509  11.272  20.664  0.00  0.00    +0.000 A 
ENDBRANCH   8  11
ENDBRANCH   1   9
BRANCH   4  17
ATOM     17  C   UNL     1       6.234   4.205  16.937  0.00  0.00    +0.000 C 
BRANCH  17  18
ATOM     18  N   UNL     1       4.870   4.176  17.414  0.00  0.00    +0.000 N 
ATOM     19  C   UNL     1       4.574   3.626  18.648  0.00  0.00    +0.000 C 
ATOM     20  O   UNL     1       5.423   3.106  19.365  0.00  0.00    +0.000 OA
ATOM     21  H   UNL     1       4.195   4.780  16.964  0.00  0.00    +0.000 HD
BRANCH  19  22
ATOM     22  C   UNL     1       3.172   3.797  19.141  0.00  0.00    +0.000 A 
ATOM     23  C   UNL     1       2.394   2.626  19.229  0.00  0.00    +0.000 A 
ATOM     24  C   UNL     1       1.140   2.656  19.825  0.00  0.00    +0.000 A 
ATOM     25  C   UNL     1       0.719   3.826  20.454  0.00  0.00    +0.000 A 
ATOM     26  C   UNL     1       1.460   5.006  20.345  0.00  0.00    +0.000 A 
ATOM     27  C   UNL     1       0.992   6.172  20.957  0.00  0.00    +0.000 A 
ATOM     28  C   UNL     1       1.416   7.410  20.498  0.00  0.00    +0.000 A 
ATOM     29  C   UNL     1       2.437   7.485  19.560  0.00  0.00    +0.000 A 
ATOM     30  C   UNL     1       3.108   6.322  19.174  0.00  0.00    +0.000 A 
ATOM     31  C   UNL     1       2.633   5.041  19.548  0.00  0.00    +0.000 A 
ENDBRANCH  19  22
ENDBRANCH  17  18
ENDBRANCH   4  17
TORSDOF 5
ENDMDL
MODEL 3
REMARK VINA RESULT:      -7.9      3.507      4.882
REMARK  Name = 
REMARK  5 active torsions:
REMARK  status: ('A' for Active; 'I' for Inactive)
REMARK    1  A    between atoms: C_2  and  C_24
REMARK    2  A    between atoms: N_3  and  C_4
REMARK    3  A    between atoms: C_7  and  C_8
REMARK    4  A    between atoms: C_8  and  N_9
REMARK    5  A    between atoms: C_10  and  C_12
REMARK                            x       y       z     vdW  Elec       q    Type
REMARK                         _______ _______ _______ _____ _____    ______ ____
ROOT
ATOM      1  C   UNL     1       1.140  11.481  19.431  0.00  0.00    +0.000 A 
ATOM      2  C   UNL     1       0.732  11.230  20.743  0.00  0.00    +0.000 A 
ATOM      3  C   UNL     1       0.717   9.933  21.266  0.00  0.00    +0.000 A 
ATOM      4  C   UNL     1       1.114   8.842  20.489  0.00  0.00    +0.000 A 
ATOM      5  C   UNL     1       1.457   9.079  19.149  0.00  0.00    +0.000 A 
ATOM      6  C   UNL     1       1.463  10.380  18.623  0.00  0.00    +0.000 A 
ENDROOT
BRANCH   1   9
ATOM      7  O   UNL     1       3.057  13.597  20.126  0.00  0.00    +0.000 OA
ATOM      8  C   UNL     1       2.167  13.742  19.289  0.00  0.00    +0.000 C 
ATOM      9  N   UNL     1       1.248  12.787  18.891  0.00  0.00    +0.000 N 
ATOM     10  H   UNL     1       0.731  12.965  18.045  0.00  0.00    +0.000 HD
BRANCH   8  11
ATOM     11  C   UNL     1       2.117  15.055  18.590  0.00  0.00    +0.000 A 
ATOM     12  C   UNL     1       3.209  15.373  17.769  0.00  0.00    +0.000 A 
ATOM     13  C   UNL     1       3.222  16.628  17.188  0.00  0.00    +0.000 A 
ATOM     14  N   UNL     1       2.248  17.550  17.364  0.00  0.00    +0.000 NA
ATOM     15  C   UNL     1       1.213  17.214  18.164  0.00  0.00    +0.000 A 
ATOM     16  C   UNL     1       1.091  15.985  18.794  0.00  0.00    +0.000 A 
ENDBRANCH   8  11
ENDBRANCH   1   9
BRANCH   4  17
ATOM     17  C   UNL     1       1.184   7.461  21.092  0.00  0.00    +0.000 C 
BRANCH  17  18
ATOM     18  N   UNL     1       2.151   6.617  20.429  0.00  0.00    +0.000 N 
ATOM     19  C   UNL     1       1.869   5.283  20.196  0.00  0.00    +0.000 C 
ATOM     20  O   UNL     1       0.831   4.747  20.570  0.00  0.00    +0.000 OA
ATOM     21  H   UNL     1       2.902   7.062  19.918  0.00  0.00    +0.000 HD
BRANCH  19  22
ATOM     22  C   UNL     1       2.845   4.528  19.349  0.00  0.00    +0.000 A 
ATOM     23  C   UNL     1       2.972   3.152  19.619  0.00  0.00    +0.000 A 
ATOM     24  C   UNL     1       3.727   2.337  18.786  0.00  0.00    +0.000 A 
ATOM     25  C   UNL     1       4.244   2.870  17.607  0.00  0.00    +0.000 A 
ATOM     26  C   UNL     1       4.159   4.239  17.341  0.00  0.00    +0.000 A 
ATOM     27  C   UNL     1       4.719   4.749  16.166  0.00  0.00    +0.000 A 
ATOM     28  C   UNL     1       5.069   6.089  16.093  0.00  0.00    +0.000 A 
ATOM     29  C   UNL     1       4.695   6.955  17.112  0.00  0.00    +0.000 A 
ATOM     30  C   UNL     1       3.871   6.495  18.143  0.00  0.00    +0.000 A 
ATOM     31  C   UNL     1       3.585   5.117  18.295  0.00  0.00    +0.000 A 
ENDBRANCH  19  22
ENDBRANCH  17  18
ENDBRANCH   4  17
TORSDOF 5
ENDMDL
MODEL 4
REMARK VINA RESULT:      -7.8      3.197     10.145
REMARK  Name = 
REMARK  5 active torsions:
REMARK  status: ('A' for Active; 'I' for Inactive)
REMARK    1  A    between atoms: C_2  and  C_24
REMARK    2  A    between atoms: N_3  and  C_4
REMARK    3  A    between atoms: C_7  and  C_8
REMARK    4  A    between atoms: C_8  and  N_9
REMARK    5  A    between atoms: C_10  and  C_12
REMARK                            x       y       z     vdW  Elec       q    Type
REMARK                         _______ _______ _______ _____ _____    ______ ____
ROOT
ATOM      1  C   UNL     1       2.662   7.819  18.714  0.00  0.00    +0.000 A 
ATOM      2  C   UNL     1       2.043   8.899  18.079  0.00  0.00    +0.000 A 
ATOM      3  C   UNL     1       1.100   9.691  18.741  0.00  0.00    +0.000 A 
ATOM      4  C   UNL     1       0.746   9.428  20.067  0.00  0.00    +0.000 A 
ATOM      5  C   UNL     1       1.311   8.302  20.686  0.00  0.00    +0.000 A 
ATOM      6  C   UNL     1       2.251   7.503  20.018  0.00  0.00    +0.000 A 
ENDROOT
BRANCH   1   9
ATOM      7  O   UNL     1       2.515   5.057  17.722  0.00  0.00    +0.000 OA
ATOM      8  C   UNL     1       3.543   5.733  17.683  0.00  0.00    +0.000 C 
ATOM      9  N   UNL     1       3.680   7.044  18.105  0.00  0.00    +0.000 N 
ATOM     10  H   UNL     1       4.504   7.542  17.807  0.00  0.00    +0.000 HD
BRANCH   8  11
ATOM     11  C   UNL     1       4.736   5.098  17.062  0.00  0.00    +0.000 A 
ATOM     12  C   UNL     1       5.990   5.585  17.462  0.00  0.00    +0.000 A 
ATOM     13  C   UNL     1       7.103   5.070  16.824  0.00  0.00    +0.000 A 
ATOM     14  N   UNL     1       7.048   4.131  15.851  0.00  0.00    +0.000 NA
ATOM     15  C   UNL     1       5.826   3.687  15.487  0.00  0.00    +0.000 A 
ATOM     16  C   UNL     1       4.642   4.126  16.059  0.00  0.00    +0.000 A 
ENDBRANCH   8  11
ENDBRANCH   1   9
BRANCH   4  17
ATOM     17  C   UNL     1      -0.200  10.345  20.801  0.00  0.00    +0.000 C 
BRANCH  17  18
ATOM     18  N   UNL     1      -1.479  10.464  20.139  0.00  0.00    +0.000 N 
ATOM     19  C   UNL     1      -1.806  11.622  19.456  0.00  0.00    +0.000 C 
ATOM     20  O   UNL     1      -1.068  12.601  19.415  0.00  0.00    +0.000 OA
ATOM     21  H   UNL     1      -2.006   9.618  19.964  0.00  0.00    +0.000 HD
BRANCH  19  22
ATOM     22  C   UNL     1      -3.067  11.595  18.653  0.00  0.00    +0.000 A 
ATOM     23  C   UNL     1      -4.203  12.174  19.253  0.00  0.00    +0.000 A 
ATOM     24  C   UNL     1      -5.375  12.342  18.528  0.00  0.00    +0.000 A 
ATOM     25  C   UNL     1      -5.373  12.057  17.164  0.00  0.00    +0.000 A 
ATOM     26  C   UNL     1      -4.269  11.447  16.561  0.00  0.00    +0.000 A 
ATOM     27  C   UNL     1      -4.312  11.141  15.197  0.00  0.00    +0.000 A 
ATOM     28  C   UNL     1      -3.482  10.154  14.686  0.00  0.00    +0.000 A 
ATOM     29  C   UNL     1      -2.490   9.605  15.487  0.00  0.00    +0.000 A 
ATOM     30  C   UNL     1      -2.257  10.133  16.759  0.00  0.00    +0.000 A 
ATOM     31  C   UNL     1      -3.148  11.066  17.341  0.00  0.00    +0.000 A 
ENDBRANCH  19  22
ENDBRANCH  17  18
ENDBRANCH   4  17
TORSDOF 5
ENDMDL
MODEL 5
REMARK VINA RESULT:      -7.8      0.790      1.174
REMARK  Name = 
REMARK  5 active torsions:
REMARK  status: ('A' for Active; 'I' for Inactive)
REMARK    1  A    between atoms: C_2  and  C_24
REMARK    2  A    between atoms: N_3  and  C_4
REMARK    3  A    between atoms: C_7  and  C_8
REMARK    4  A    between atoms: C_8  and  N_9
REMARK    5  A    between atoms: C_10  and  C_12
REMARK                            x       y       z     vdW  Elec       q    Type
REMARK                         _______ _______ _______ _____ _____    ______ ____
ROOT
ATOM      1  C   UNL     1       0.060  11.000  20.089  0.00  0.00    +0.000 A 
ATOM      2  C   UNL     1       0.140   9.606  20.137  0.00  0.00    +0.000 A 
ATOM      3  C   UNL     1       1.025   8.898  19.319  0.00  0.00    +0.000 A 
ATOM      4  C   UNL     1       1.865   9.566  18.424  0.00  0.00    +0.000 A 
ATOM      5  C   UNL     1       1.738  10.960  18.320  0.00  0.00    +0.000 A 
ATOM      6  C   UNL     1       0.843  11.668  19.135  0.00  0.00    +0.000 A 
ENDROOT
BRANCH   1   9
ATOM      7  O   UNL     1      -0.114  10.874  23.020  0.00  0.00    +0.000 OA
ATOM      8  C   UNL     1      -0.809  11.624  22.335  0.00  0.00    +0.000 C 
ATOM      9  N   UNL     1      -0.764  11.758  20.958  0.00  0.00    +0.000 N 
ATOM     10  H   UNL     1      -1.218  12.562  20.556  0.00  0.00    +0.000 HD
BRANCH   8  11
ATOM     11  C   UNL     1      -1.741  12.522  23.067  0.00  0.00    +0.000 A 
ATOM     12  C   UNL     1      -1.241  13.778  23.446  0.00  0.00    +0.000 A 
ATOM     13  C   UNL     1      -2.063  14.585  24.209  0.00  0.00    +0.000 A 
ATOM     14  N   UNL     1      -3.310  14.235  24.601  0.00  0.00    +0.000 NA
ATOM     15  C   UNL     1      -3.760  13.019  24.224  0.00  0.00    +0.000 A 
ATOM     16  C   UNL     1      -3.027  12.128  23.455  0.00  0.00    +0.000 A 
ENDBRANCH   8  11
ENDBRANCH   1   9
BRANCH   4  17
ATOM     17  C   UNL     1       2.882   8.800  17.615  0.00  0.00    +0.000 C 
BRANCH  17  18
ATOM     18  N   UNL     1       2.715   7.369  17.729  0.00  0.00    +0.000 N 
ATOM     19  C   UNL     1       3.811   6.529  17.640  0.00  0.00    +0.000 C 
ATOM     20  O   UNL     1       4.946   6.938  17.420  0.00  0.00    +0.000 OA
ATOM     21  H   UNL     1       1.852   7.020  18.125  0.00  0.00    +0.000 HD
BRANCH  19  22
ATOM     22  C   UNL     1       3.575   5.084  17.946  0.00  0.00    +0.000 A 
ATOM     23  C   UNL     1       3.966   4.164  16.953  0.00  0.00    +0.000 A 
ATOM     24  C   UNL     1       3.939   2.799  17.207  0.00  0.00    +0.000 A 
ATOM     25  C   UNL     1       3.652   2.358  18.497  0.00  0.00    +0.000 A 
ATOM     26  C   UNL     1       3.226   3.252  19.483  0.00  0.00    +0.000 A 
ATOM     27  C   UNL     1       2.910   2.773  20.758  0.00  0.00    +0.000 A 
ATOM     28  C   UNL     1       2.068   3.505  21.581  0.00  0.00    +0.000 A 
ATOM     29  C   UNL     1       1.691   4.789  21.214  0.00  0.00    +0.000 A 
ATOM     30  C   UNL     1       2.255   5.377  20.079  0.00  0.00    +0.000 A 
ATOM     31  C   UNL     1       3.035   4.622  19.170  0.00  0.00    +0.000 A 
ENDBRANCH  19  22
ENDBRANCH  17  18
ENDBRANCH   4  17
TORSDOF 5
ENDMDL
MODEL 6
REMARK VINA RESULT:      -7.8      3.499      4.520
REMARK  Name = 
REMARK  5 active torsions:
REMARK  status: ('A' for Active; 'I' for Inactive)
REMARK    1  A    between atoms: C_2  and  C_24
REMARK    2  A    between atoms: N_3  and  C_4
REMARK    3  A    between atoms: C_7  and  C_8
REMARK    4  A    between atoms: C_8  and  N_9
REMARK    5  A    between atoms: C_10  and  C_12
REMARK                            x       y       z     vdW  Elec       q    Type
REMARK                         _______ _______ _______ _____ _____    ______ ____
ROOT
ATOM      1  C   UNL     1       0.732  11.668  19.447  0.00  0.00    +0.000 A 
ATOM      2  C   UNL     1       0.505  11.313  20.779  0.00  0.00    +0.000 A 
ATOM      3  C   UNL     1       0.732  10.011  21.234  0.00  0.00    +0.000 A 
ATOM      4  C   UNL     1       1.197   9.018  20.368  0.00  0.00    +0.000 A 
ATOM      5  C   UNL     1       1.359   9.351  19.014  0.00  0.00    +0.000 A 
ATOM      6  C   UNL     1       1.122  10.656  18.556  0.00  0.00    +0.000 A 
ENDROOT
BRANCH   1   9
ATOM      7  O   UNL     1       2.169  14.085  20.299  0.00  0.00    +0.000 OA
ATOM      8  C   UNL     1       1.292  14.091  19.436  0.00  0.00    +0.000 C 
ATOM      9  N   UNL     1       0.593  12.993  18.965  0.00  0.00    +0.000 N 
ATOM     10  H   UNL     1       0.075  13.107  18.109  0.00  0.00    +0.000 HD
BRANCH   8  11
ATOM     11  C   UNL     1       1.002  15.400  18.791  0.00  0.00    +0.000 A 
ATOM     12  C   UNL     1       2.105  16.127  18.316  0.00  0.00    +0.000 A 
ATOM     13  C   UNL     1       1.860  17.385  17.799  0.00  0.00    +0.000 A 
ATOM     14  N   UNL     1       0.630  17.944  17.724  0.00  0.00    +0.000 NA
ATOM     15  C   UNL     1      -0.409  17.220  18.193  0.00  0.00    +0.000 A 
ATOM     16  C   UNL     1      -0.285  15.947  18.728  0.00  0.00    +0.000 A 
ENDBRANCH   8  11
ENDBRANCH   1   9
BRANCH   4  17
ATOM     17  C   UNL     1       1.528   7.642  20.891  0.00  0.00    +0.000 C 
BRANCH  17  18
ATOM     18  N   UNL     1       2.261   6.848  19.932  0.00  0.00    +0.000 N 
ATOM     19  C   UNL     1       2.468   5.499  20.155  0.00  0.00    +0.000 C 
ATOM     20  O   UNL     1       2.090   4.928  21.172  0.00  0.00    +0.000 OA
ATOM     21  H   UNL     1       2.388   7.223  19.000  0.00  0.00    +0.000 HD
BRANCH  19  22
ATOM     22  C   UNL     1       3.076   4.718  19.034  0.00  0.00    +0.000 A 
ATOM     23  C   UNL     1       2.214   3.847  18.339  0.00  0.00    +0.000 A 
ATOM     24  C   UNL     1       2.642   3.203  17.185  0.00  0.00    +0.000 A 
ATOM     25  C   UNL     1       3.885   3.533  16.649  0.00  0.00    +0.000 A 
ATOM     26  C   UNL     1       4.768   4.364  17.343  0.00  0.00    +0.000 A 
ATOM     27  C   UNL     1       6.023   4.647  16.796  0.00  0.00    +0.000 A 
ATOM     28  C   UNL     1       7.062   5.049  17.622  0.00  0.00    +0.000 A 
ATOM     29  C   UNL     1       6.807   5.346  18.954  0.00  0.00    +0.000 A 
ATOM     30  C   UNL     1       5.490   5.351  19.422  0.00  0.00    +0.000 A 
ATOM     31  C   UNL     1       4.428   4.850  18.632  0.00  0.00    +0.000 A 
ENDBRANCH  19  22
ENDBRANCH  17  18
ENDBRANCH   4  17
TORSDOF 5
ENDMDL
MODEL 7
REMARK VINA RESULT:      -7.8      3.070      9.920
REMARK  Name = 
REMARK  5 active torsions:
REMARK  status: ('A' for Active; 'I' for Inactive)
REMARK    1  A    between atoms: C_2  and  C_24
REMARK    2  A    between atoms: N_3  and  C_4
REMARK    3  A    between atoms: C_7  and  C_8
REMARK    4  A    between atoms: C_8  and  N_9
REMARK    5  A    between atoms: C_10  and  C_12
REMARK                            x       y       z     vdW  Elec       q    Type
REMARK                         _______ _______ _______ _____ _____    ______ ____
ROOT
ATOM      1  C   UNL     1       1.964   7.521  19.767  0.00  0.00    +0.000 A 
ATOM      2  C   UNL     1       1.637   7.864  21.081  0.00  0.00    +0.000 A 
ATOM      3  C   UNL     1       1.069   9.103  21.391  0.00  0.00    +0.000 A 
ATOM      4  C   UNL     1       0.808  10.043  20.391  0.00  0.00    +0.000 A 
ATOM      5  C   UNL     1       1.200   9.733  19.079  0.00  0.00    +0.000 A 
ATOM      6  C   UNL     1       1.777   8.492  18.770  0.00  0.00    +0.000 A 
ENDROOT
BRANCH   1   9
ATOM      7  O   UNL     1       0.925   4.870  20.493  0.00  0.00    +0.000 OA
ATOM      8  C   UNL     1       1.932   5.034  19.805  0.00  0.00    +0.000 C 
ATOM      9  N   UNL     1       2.464   6.246  19.402  0.00  0.00    +0.000 N 
ATOM     10  H   UNL     1       3.147   6.229  18.661  0.00  0.00    +0.000 HD
BRANCH   8  11
ATOM     11  C   UNL     1       2.604   3.805  19.305  0.00  0.00    +0.000 A 
ATOM     12  C   UNL     1       2.150   3.292  18.081  0.00  0.00    +0.000 A 
ATOM     13  C   UNL     1       2.699   2.099  17.649  0.00  0.00    +0.000 A 
ATOM     14  N   UNL     1       3.643   1.411  18.335  0.00  0.00    +0.000 NA
ATOM     15  C   UNL     1       4.055   1.930  19.511  0.00  0.00    +0.000 A 
ATOM     16  C   UNL     1       3.580   3.121  20.040  0.00  0.00    +0.000 A 
ENDBRANCH   8  11
ENDBRANCH   1   9
BRANCH   4  17
ATOM     17  C   UNL     1       0.108  11.338  20.723  0.00  0.00    +0.000 C 
BRANCH  17  18
ATOM     18  N   UNL     1      -1.269  11.349  20.287  0.00  0.00    +0.000 N 
ATOM     19  C   UNL     1      -1.653  12.124  19.208  0.00  0.00    +0.000 C 
ATOM     20  O   UNL     1      -0.877  12.859  18.606  0.00  0.00    +0.000 OA
ATOM     21  H   UNL     1      -1.876  10.605  20.605  0.00  0.00    +0.000 HD
BRANCH  19  22
ATOM     22  C   UNL     1      -3.053  11.941  18.713  0.00  0.00    +0.000 A 
ATOM     23  C   UNL     1      -3.192  11.397  17.421  0.00  0.00    +0.000 A 
ATOM     24  C   UNL     1      -4.445  11.039  16.939  0.00  0.00    +0.000 A 
ATOM     25  C   UNL     1      -5.541  11.098  17.796  0.00  0.00    +0.000 A 
ATOM     26  C   UNL     1      -5.429  11.669  19.066  0.00  0.00    +0.000 A 
ATOM     27  C   UNL     1      -6.556  11.747  19.889  0.00  0.00    +0.000 A 
ATOM     28  C   UNL     1      -6.605  12.688  20.907  0.00  0.00    +0.000 A 
ATOM     29  C   UNL     1      -5.469  13.420  21.222  0.00  0.00    +0.000 A 
ATOM     30  C   UNL     1      -4.257  13.123  20.592  0.00  0.00    +0.000 A 
ATOM     31  C   UNL     1      -4.201  12.243  19.486  0.00  0.00    +0.000 A 
ENDBRANCH  19  22
ENDBRANCH  17  18
ENDBRANCH   4  17
TORSDOF 5
ENDMDL
MODEL 8
REMARK VINA RESULT:      -7.7      3.060     10.123
REMARK  Name = 
REMARK  5 active torsions:
REMARK  status: ('A' for Active; 'I' for Inactive)
REMARK    1  A    between atoms: C_2  and  C_24
REMARK    2  A    between atoms: N_3  and  C_4
REMARK    3  A    between atoms: C_7  and  C_8
REMARK    4  A    between atoms: C_8  and  N_9
REMARK    5  A    between atoms: C_10  and  C_12
REMARK                            x       y       z     vdW  Elec       q    Type
REMARK                         _______ _______ _______ _____ _____    ______ ____
ROOT
ATOM      1  C   UNL     1       2.564   7.516  18.496  0.00  0.00    +0.000 A 
ATOM      2  C   UNL     1       2.243   7.283  19.836  0.00  0.00    +0.000 A 
ATOM      3  C   UNL     1       1.508   8.209  20.581  0.00  0.00    +0.000 A 
ATOM      4  C   UNL     1       1.066   9.404  20.007  0.00  0.00    +0.000 A 
ATOM      5  C   UNL     1       1.446   9.676  18.683  0.00  0.00    +0.000 A 
ATOM      6  C   UNL     1       2.191   8.749  17.938  0.00  0.00    +0.000 A 
ENDROOT
BRANCH   1   9
ATOM      7  O   UNL     1       5.300   7.629  17.429  0.00  0.00    +0.000 OA
ATOM      8  C   UNL     1       4.523   6.703  17.197  0.00  0.00    +0.000 C 
ATOM      9  N   UNL     1       3.235   6.568  17.685  0.00  0.00    +0.000 N 
ATOM     10  H   UNL     1       2.802   5.662  17.604  0.00  0.00    +0.000 HD
BRANCH   8  11
ATOM     11  C   UNL     1       5.048   5.587  16.365  0.00  0.00    +0.000 A 
ATOM     12  C   UNL     1       4.896   4.291  16.880  0.00  0.00    +0.000 A 
ATOM     13  C   UNL     1       5.461   3.253  16.163  0.00  0.00    +0.000 A 
ATOM     14  N   UNL     1       6.141   3.418  15.004  0.00  0.00    +0.000 NA
ATOM     15  C   UNL     1       6.273   4.679  14.538  0.00  0.00    +0.000 A 
ATOM     16  C   UNL     1       5.744   5.795  15.168  0.00  0.00    +0.000 A 
ENDBRANCH   8  11
ENDBRANCH   1   9
BRANCH   4  17
ATOM     17  C   UNL     1       0.193  10.351  20.791  0.00  0.00    +0.000 C 
BRANCH  17  18
ATOM     18  N   UNL     1      -1.132  10.476  20.229  0.00  0.00    +0.000 N 
ATOM     19  C   UNL     1      -1.537  11.667  19.655  0.00  0.00    +0.000 C 
ATOM     20  O   UNL     1      -0.831  12.670  19.634  0.00  0.00    +0.000 OA
ATOM     21  H   UNL     1      -1.647   9.628  20.030  0.00  0.00    +0.000 HD
BRANCH  19  22
ATOM     22  C   UNL     1      -2.852  11.656  18.940  0.00  0.00    +0.000 A 
ATOM     23  C   UNL     1      -3.933  12.257  19.613  0.00  0.00    +0.000 A 
ATOM     24  C   UNL     1      -5.150  12.440  18.969  0.00  0.00    +0.000 A 
ATOM     25  C   UNL     1      -5.246  12.147  17.610  0.00  0.00    +0.000 A 
ATOM     26  C   UNL     1      -4.196  11.516  16.937  0.00  0.00    +0.000 A 
ATOM     27  C   UNL     1      -4.337  11.202  15.582  0.00  0.00    +0.000 A 
ATOM     28  C   UNL     1      -3.561  10.198  15.022  0.00  0.00    +0.000 A 
ATOM     29  C   UNL     1      -2.524   9.639  15.756  0.00  0.00    +0.000 A 
ATOM     30  C   UNL     1      -2.197  10.170  17.006  0.00  0.00    +0.000 A 
ATOM     31  C   UNL     1      -3.031  11.121  17.641  0.00  0.00    +0.000 A 
ENDBRANCH  19  22
ENDBRANCH  17  18
ENDBRANCH   4  17
TORSDOF 5
ENDMDL
MODEL 9
REMARK VINA RESULT:      -7.7      3.135      9.791
REMARK  Name = 
REMARK  5 active torsions:
REMARK  status: ('A' for Active; 'I' for Inactive)
REMARK    1  A    between atoms: C_2  and  C_24
REMARK    2  A    between atoms: N_3  and  C_4
REMARK    3  A    between atoms: C_7  and  C_8
REMARK    4  A    between atoms: C_8  and  N_9
REMARK    5  A    between atoms: C_10  and  C_12
REMARK                            x       y       z     vdW  Elec       q    Type
REMARK                         _______ _______ _______ _____ _____    ______ ____
ROOT
ATOM      1  C   UNL     1       1.982   7.375  19.966  0.00  0.00    +0.000 A 
ATOM      2  C   UNL     1       1.591   7.627  21.283  0.00  0.00    +0.000 A 
ATOM      3  C   UNL     1       1.023   8.849  21.654  0.00  0.00    +0.000 A 
ATOM      4  C   UNL     1       0.825   9.863  20.714  0.00  0.00    +0.000 A 
ATOM      5  C   UNL     1       1.281   9.643  19.404  0.00  0.00    +0.000 A 
ATOM      6  C   UNL     1       1.859   8.419  19.035  0.00  0.00    +0.000 A 
ENDROOT
BRANCH   1   9
ATOM      7  O   UNL     1       1.034   4.683  20.664  0.00  0.00    +0.000 OA
ATOM      8  C   UNL     1       1.999   4.888  19.927  0.00  0.00    +0.000 C 
ATOM      9  N   UNL     1       2.485   6.123  19.534  0.00  0.00    +0.000 N 
ATOM     10  H   UNL     1       3.126   6.141  18.757  0.00  0.00    +0.000 HD
BRANCH   8  11
ATOM     11  C   UNL     1       2.665   3.689  19.353  0.00  0.00    +0.000 A 
ATOM     12  C   UNL     1       2.194   3.241  18.109  0.00  0.00    +0.000 A 
ATOM     13  C   UNL     1       2.739   2.074  17.607  0.00  0.00    +0.000 A 
ATOM     14  N   UNL     1       3.692   1.352  18.241  0.00  0.00    +0.000 NA
ATOM     15  C   UNL     1       4.120   1.808  19.438  0.00  0.00    +0.000 A 
ATOM     16  C   UNL     1       3.651   2.968  20.037  0.00  0.00    +0.000 A 
ENDBRANCH   8  11
ENDBRANCH   1   9
BRANCH   4  17
ATOM     17  C   UNL     1       0.126  11.141  21.104  0.00  0.00    +0.000 C 
BRANCH  17  18
ATOM     18  N   UNL     1      -1.221  11.214  20.586  0.00  0.00    +0.000 N 
ATOM     19  C   UNL     1      -1.514  12.044  19.519  0.00  0.00    +0.000 C 
ATOM     20  O   UNL     1      -0.680  12.777  18.997  0.00  0.00    +0.000 OA
ATOM     21  H   UNL     1      -1.869  10.477  20.835  0.00  0.00    +0.000 HD
BRANCH  19  22
ATOM     22  C   UNL     1      -2.885  11.926  18.932  0.00  0.00    +0.000 A 
ATOM     23  C   UNL     1      -3.938  12.476  19.690  0.00  0.00    +0.000 A 
ATOM     24  C   UNL     1      -5.219  12.560  19.159  0.00  0.00    +0.000 A 
ATOM     25  C   UNL     1      -5.420  12.220  17.824  0.00  0.00    +0.000 A 
ATOM     26  C   UNL     1      -4.398  11.638  17.069  0.00  0.00    +0.000 A 
ATOM     27  C   UNL     1      -4.643  11.274  15.742  0.00  0.00    +0.000 A 
ATOM     28  C   UNL     1      -3.856  10.306  15.135  0.00  0.00    +0.000 A 
ATOM     29  C   UNL     1      -2.721   9.838  15.781  0.00  0.00    +0.000 A 
ATOM     30  C   UNL     1      -2.315  10.426  16.981  0.00  0.00    +0.000 A 
ATOM     31  C   UNL     1      -3.148  11.341  17.670  0.00  0.00    +0.000 A 
ENDBRANCH  19  22
ENDBRANCH  17  18
ENDBRANCH   4  17
TORSDOF 5
ENDMDL
