MODEL 1
REMARK VINA RESULT:      -8.6      0.000      0.000
REMARK  Name = 
REMARK  6 active torsions:
REMARK  status: ('A' for Active; 'I' for Inactive)
REMARK    1  A    between atoms: C_1  and  C_2
REMARK    2  A    between atoms: C_9  and  C_10
REMARK    3  A    between atoms: C_10  and  C_11
REMARK    4  A    between atoms: C_11  and  N_12
REMARK    5  A    between atoms: N_12  and  S_13
REMARK    6  A    between atoms: S_13  and  C_16
REMARK                            x       y       z     vdW  Elec       q    Type
REMARK                         _______ _______ _______ _____ _____    ______ ____
ROOT
ATOM      1  S   UNL     1       7.391   6.515  17.366  0.00  0.00    +0.000 S 
ATOM      2  O   UNL     1       7.667   6.152  15.992  0.00  0.00    +0.000 OA
ATOM      3  O   UNL     1       8.201   6.028  18.458  0.00  0.00    +0.000 OA
ENDROOT
BRANCH   1   4
ATOM      4  C   UNL     1       5.706   6.124  17.666  0.00  0.00    +0.000 A 
ATOM      5  C   UNL     1       4.620   6.977  17.386  0.00  0.00    +0.000 A 
ATOM      6  C   UNL     1       3.309   6.572  17.747  0.00  0.00    +0.000 A 
ATOM      7  C   UNL     1       3.076   5.347  18.430  0.00  0.00    +0.000 A 
ATOM      8  C   UNL     1       4.167   4.558  18.750  0.00  0.00    +0.000 A 
ATOM      9  C   UNL     1       5.450   4.941  18.299  0.00  0.00    +0.000 A 
ATOM     10  C   UNL     1       4.258   3.432  19.720  0.00  0.00    +0.000 C 
ATOM     11  C   UNL     1       3.211   2.496  20.253  0.00  0.00    +0.000 C 
ATOM     12  C   UNL     1       1.779   2.916  20.150  0.00  0.00    +0.000 C 
ATOM     13  C   UNL     1       1.383   3.630  18.881  0.00  0.00    +0.000 C 
ATOM     14  O   UNL     1       0.627   3.092  18.072  0.00  0.00    +0.000 OA
ATOM     15  N   UNL     1       1.744   4.937  18.689  0.00  0.00    +0.000 N 
ATOM     16  H   UNL     1       1.085   5.384  18.065  0.00  0.00    +0.000 HD
ENDBRANCH   1   4
BRANCH   1  17
ATOM     17  N   UNL     1       7.373   8.219  17.392  0.00  0.00    +0.000 NA
ATOM     18  H   UNL     1       7.429   8.588  16.441  0.00  0.00    +0.000 HD
BRANCH  17  19
ATOM     19  C   UNL     1       8.262   8.807  18.400  0.00  0.00    +0.000 C 
BRANCH  19  20
ATOM     20  C   UNL     1       8.936  10.104  17.951  0.00  0.00    +0.000 C 
BRANCH  20  29
ATOM     21  C   UNL     1      10.528  12.969  16.902  0.00  0.00    +0.000 C 
ATOM     22  C   UNL     1      10.487  13.131  18.398  0.00  0.00    +0.000 A 
ATOM     23  C   UNL     1      10.986  14.339  18.943  0.00  0.00    +0.000 A 
ATOM     24  C   UNL     1      10.976  14.593  20.311  0.00  0.00    +0.000 A 
ATOM     25  C   UNL     1      10.468  13.653  21.199  0.00  0.00    +0.000 A 
ATOM     26  C   UNL     1       9.985  12.453  20.671  0.00  0.00    +0.000 A 
ATOM     27  N   UNL     1       9.430  11.389  21.341  0.00  0.00    +0.000 N 
ATOM     28  C   UNL     1       9.066  10.416  20.463  0.00  0.00    +0.000 A 
ATOM     29  C   UNL     1       9.360  10.850  19.182  0.00  0.00    +0.000 A 
ATOM     30  C   UNL     1       9.975  12.152  19.302  0.00  0.00    +0.000 A 
ATOM     31  H   UNL     1       9.284  11.359  22.340  0.00  0.00    +0.000 HD
ENDBRANCH  20  29
ENDBRANCH  19  20
ENDBRANCH  17  19
ENDBRANCH   1  17
TORSDOF 5
ENDMDL
MODEL 2
REMARK VINA RESULT:      -8.5      5.511      8.058
REMARK  Name = 
REMARK  6 active torsions:
REMARK  status: ('A' for Active; 'I' for Inactive)
REMARK    1  A    between atoms: C_1  and  C_2
REMARK    2  A    between atoms: C_9  and  C_10
REMARK    3  A    between atoms: C_10  and  C_11
REMARK    4  A    between atoms: C_11  and  N_12
REMARK    5  A    between atoms: N_12  and  S_13
REMARK    6  A    between atoms: S_13  and  C_16
REMARK                            x       y       z     vdW  Elec       q    Type
REMARK                         _______ _______ _______ _____ _____    ______ ____
ROOT
ATOM      1  S   UNL     1       1.842   4.150  20.828  0.00  0.00    +0.000 S 
ATOM      2  O   UNL     1       2.350   3.358  21.928  0.00  0.00    +0.000 OA
ATOM      3  O   UNL     1       0.454   4.099  20.432  0.00  0.00    +0.000 OA
ENDROOT
BRANCH   1   4
ATOM      4  C   UNL     1       2.861   3.803  19.440  0.00  0.00    +0.000 A 
ATOM      5  C   UNL     1       2.983   2.541  18.828  0.00  0.00    +0.000 A 
ATOM      6  C   UNL     1       3.900   2.374  17.758  0.00  0.00    +0.000 A 
ATOM      7  C   UNL     1       4.732   3.442  17.326  0.00  0.00    +0.000 A 
ATOM      8  C   UNL     1       4.638   4.654  17.988  0.00  0.00    +0.000 A 
ATOM      9  C   UNL     1       3.654   4.818  18.988  0.00  0.00    +0.000 A 
ATOM     10  C   UNL     1       5.584   5.804  17.977  0.00  0.00    +0.000 C 
ATOM     11  C   UNL     1       6.597   6.246  16.959  0.00  0.00    +0.000 C 
ATOM     12  C   UNL     1       7.066   5.239  15.957  0.00  0.00    +0.000 C 
ATOM     13  C   UNL     1       6.019   4.295  15.419  0.00  0.00    +0.000 C 
ATOM     14  O   UNL     1       5.660   4.364  14.244  0.00  0.00    +0.000 OA
ATOM     15  N   UNL     1       5.567   3.260  16.195  0.00  0.00    +0.000 N 
ATOM     16  H   UNL     1       5.238   2.509  15.602  0.00  0.00    +0.000 HD
ENDBRANCH   1   4
BRANCH   1  17
ATOM     17  N   UNL     1       2.268   5.760  21.191  0.00  0.00    +0.000 NA
ATOM     18  H   UNL     1       2.567   5.836  22.165  0.00  0.00    +0.000 HD
BRANCH  17  19
ATOM     19  C   UNL     1       1.307   6.753  20.698  0.00  0.00    +0.000 C 
BRANCH  19  20
ATOM     20  C   UNL     1       1.719   8.200  20.969  0.00  0.00    +0.000 C 
BRANCH  20  29
ATOM     21  C   UNL     1      -0.526  10.233  22.603  0.00  0.00    +0.000 C 
ATOM     22  C   UNL     1      -0.588  10.731  21.183  0.00  0.00    +0.000 A 
ATOM     23  C   UNL     1      -1.407  11.854  20.914  0.00  0.00    +0.000 A 
ATOM     24  C   UNL     1      -1.517  12.401  19.640  0.00  0.00    +0.000 A 
ATOM     25  C   UNL     1      -0.815  11.852  18.574  0.00  0.00    +0.000 A 
ATOM     26  C   UNL     1      -0.014  10.736  18.828  0.00  0.00    +0.000 A 
ATOM     27  N   UNL     1       0.773  10.035  17.946  0.00  0.00    +0.000 N 
ATOM     28  C   UNL     1       1.414   9.021  18.589  0.00  0.00    +0.000 A 
ATOM     29  C   UNL     1       1.066   9.064  19.929  0.00  0.00    +0.000 A 
ATOM     30  C   UNL     1       0.128  10.150  20.093  0.00  0.00    +0.000 A 
ATOM     31  H   UNL     1       0.883  10.269  16.970  0.00  0.00    +0.000 HD
ENDBRANCH  20  29
ENDBRANCH  19  20
ENDBRANCH  17  19
ENDBRANCH   1  17
TORSDOF 5
ENDMDL
MODEL 3
REMARK VINA RESULT:      -8.5      6.519      9.429
REMARK  Name = 
REMARK  6 active torsions:
REMARK  status: ('A' for Active; 'I' for Inactive)
REMARK    1  A    between atoms: C_1  and  C_2
REMARK    2  A    between atoms: C_9  and  C_10
REMARK    3  A    between atoms: C_10  and  C_11
REMARK    4  A    between atoms: C_11  and  N_12
REMARK    5  A    between atoms: N_12  and  S_13
REMARK    6  A    between atoms: S_13  and  C_16
REMARK                            x       y       z     vdW  Elec       q    Type
REMARK                         _______ _______ _______ _____ _____    ______ ____
ROOT
ATOM      1  S   UNL     1       0.442   8.883  21.375  0.00  0.00    +0.000 S 
ATOM      2  O   UNL     1       1.360   9.705  22.135  0.00  0.00    +0.000 OA
ATOM      3  O   UNL     1      -0.684   8.227  21.997  0.00  0.00    +0.000 OA
ENDROOT
BRANCH   1   4
ATOM      4  C   UNL     1       1.414   7.696  20.520  0.00  0.00    +0.000 A 
ATOM      5  C   UNL     1       2.144   7.952  19.343  0.00  0.00    +0.000 A 
ATOM      6  C   UNL     1       2.829   6.886  18.705  0.00  0.00    +0.000 A 
ATOM      7  C   UNL     1       2.752   5.557  19.203  0.00  0.00    +0.000 A 
ATOM      8  C   UNL     1       1.975   5.322  20.324  0.00  0.00    +0.000 A 
ATOM      9  C   UNL     1       1.379   6.415  20.991  0.00  0.00    +0.000 A 
ATOM     10  C   UNL     1       1.457   4.029  20.852  0.00  0.00    +0.000 C 
ATOM     11  C   UNL     1       1.960   2.622  20.697  0.00  0.00    +0.000 C 
ATOM     12  C   UNL     1       2.882   2.330  19.556  0.00  0.00    +0.000 C 
ATOM     13  C   UNL     1       3.906   3.391  19.237  0.00  0.00    +0.000 C 
ATOM     14  O   UNL     1       5.103   3.183  19.434  0.00  0.00    +0.000 OA
ATOM     15  N   UNL     1       3.525   4.538  18.591  0.00  0.00    +0.000 N 
ATOM     16  H   UNL     1       4.313   4.919  18.082  0.00  0.00    +0.000 HD
ENDBRANCH   1   4
BRANCH   1  17
ATOM     17  N   UNL     1      -0.113   9.874  20.104  0.00  0.00    +0.000 NA
ATOM     18  H   UNL     1      -0.106   9.357  19.224  0.00  0.00    +0.000 HD
BRANCH  17  19
ATOM     19  C   UNL     1       0.470  11.220  20.103  0.00  0.00    +0.000 C 
BRANCH  19  20
ATOM     20  C   UNL     1      -0.009  12.102  18.950  0.00  0.00    +0.000 C 
BRANCH  20  29
ATOM     21  C   UNL     1      -1.917  10.017  16.986  0.00  0.00    +0.000 C 
ATOM     22  C   UNL     1      -2.948  10.767  17.787  0.00  0.00    +0.000 A 
ATOM     23  C   UNL     1      -4.306  10.406  17.615  0.00  0.00    +0.000 A 
ATOM     24  C   UNL     1      -5.331  11.025  18.322  0.00  0.00    +0.000 A 
ATOM     25  C   UNL     1      -5.049  12.035  19.234  0.00  0.00    +0.000 A 
ATOM     26  C   UNL     1      -3.713  12.406  19.401  0.00  0.00    +0.000 A 
ATOM     27  N   UNL     1      -3.193  13.359  20.244  0.00  0.00    +0.000 N 
ATOM     28  C   UNL     1      -1.838  13.406  20.125  0.00  0.00    +0.000 A 
ATOM     29  C   UNL     1      -1.447  12.448  19.204  0.00  0.00    +0.000 A 
ATOM     30  C   UNL     1      -2.647  11.812  18.712  0.00  0.00    +0.000 A 
ATOM     31  H   UNL     1      -3.742  13.914  20.884  0.00  0.00    +0.000 HD
ENDBRANCH  20  29
ENDBRANCH  19  20
ENDBRANCH  17  19
ENDBRANCH   1  17
TORSDOF 5
ENDMDL
MODEL 4
REMARK VINA RESULT:      -8.5      5.520      8.038
REMARK  Name = 
REMARK  6 active torsions:
REMARK  status: ('A' for Active; 'I' for Inactive)
REMARK    1  A    between atoms: C_1  and  C_2
REMARK    2  A    between atoms: C_9  and  C_10
REMARK    3  A    between atoms: C_10  and  C_11
REMARK    4  A    between atoms: C_11  and  N_12
REMARK    5  A    between atoms: N_12  and  S_13
REMARK    6  A    between atoms: S_13  and  C_16
REMARK                            x       y       z     vdW  Elec       q    Type
REMARK                         _______ _______ _______ _____ _____    ______ ____
ROOT
ATOM      1  S   UNL     1       1.838   4.075  20.810  0.00  0.00    +0.000 S 
ATOM      2  O   UNL     1       2.340   3.252  21.890  0.00  0.00    +0.000 OA
ATOM      3  O   UNL     1       0.449   4.043  20.413  0.00  0.00    +0.000 OA
ENDROOT
BRANCH   1   4
ATOM      4  C   UNL     1       2.855   3.755  19.414  0.00  0.00    +0.000 A 
ATOM      5  C   UNL     1       2.989   2.500  18.788  0.00  0.00    +0.000 A 
ATOM      6  C   UNL     1       3.903   2.356  17.712  0.00  0.00    +0.000 A 
ATOM      7  C   UNL     1       4.721   3.439  17.288  0.00  0.00    +0.000 A 
ATOM      8  C   UNL     1       4.615   4.642  17.963  0.00  0.00    +0.000 A 
ATOM      9  C   UNL     1       3.633   4.784  18.968  0.00  0.00    +0.000 A 
ATOM     10  C   UNL     1       5.546   5.804  17.960  0.00  0.00    +0.000 C 
ATOM     11  C   UNL     1       6.549   6.269  16.942  0.00  0.00    +0.000 C 
ATOM     12  C   UNL     1       7.026   5.279  15.928  0.00  0.00    +0.000 C 
ATOM     13  C   UNL     1       5.989   4.327  15.385  0.00  0.00    +0.000 C 
ATOM     14  O   UNL     1       5.624   4.405  14.211  0.00  0.00    +0.000 OA
ATOM     15  N   UNL     1       5.552   3.279  16.151  0.00  0.00    +0.000 N 
ATOM     16  H   UNL     1       5.230   2.530  15.552  0.00  0.00    +0.000 HD
ENDBRANCH   1   4
BRANCH   1  17
ATOM     17  N   UNL     1       2.274   5.672  21.212  0.00  0.00    +0.000 NA
ATOM     18  H   UNL     1       2.773   5.689  22.102  0.00  0.00    +0.000 HD
BRANCH  17  19
ATOM     19  C   UNL     1       1.195   6.648  21.022  0.00  0.00    +0.000 C 
BRANCH  19  20
ATOM     20  C   UNL     1       1.659   7.976  20.423  0.00  0.00    +0.000 C 
BRANCH  20  29
ATOM     21  C   UNL     1       0.201   9.904  17.974  0.00  0.00    +0.000 C 
ATOM     22  C   UNL     1      -0.328  10.513  19.245  0.00  0.00    +0.000 A 
ATOM     23  C   UNL     1      -1.266  11.567  19.130  0.00  0.00    +0.000 A 
ATOM     24  C   UNL     1      -1.827  12.182  20.244  0.00  0.00    +0.000 A 
ATOM     25  C   UNL     1      -1.478  11.775  21.526  0.00  0.00    +0.000 A 
ATOM     26  C   UNL     1      -0.543  10.745  21.649  0.00  0.00    +0.000 A 
ATOM     27  N   UNL     1      -0.055  10.170  22.798  0.00  0.00    +0.000 N 
ATOM     28  C   UNL     1       0.828   9.181  22.493  0.00  0.00    +0.000 A 
ATOM     29  C   UNL     1       0.910   9.077  21.115  0.00  0.00    +0.000 A 
ATOM     30  C   UNL     1       0.049  10.095  20.557  0.00  0.00    +0.000 A 
ATOM     31  H   UNL     1      -0.344  10.428  23.730  0.00  0.00    +0.000 HD
ENDBRANCH  20  29
ENDBRANCH  19  20
ENDBRANCH  17  19
ENDBRANCH   1  17
TORSDOF 5
ENDMDL
MODEL 5
REMARK VINA RESULT:      -8.4      6.521      9.888
REMARK  Name = 
REMARK  6 active torsions:
REMARK  status: ('A' for Active; 'I' for Inactive)
REMARK    1  A    between atoms: C_1  and  C_2
REMARK    2  A    between atoms: C_9  and  C_10
REMARK    3  A    between atoms: C_10  and  C_11
REMARK    4  A    between atoms: C_11  and  N_12
REMARK    5  A    between atoms: N_12  and  S_13
REMARK    6  A    between atoms: S_13  and  C_16
REMARK                            x       y       z     vdW  Elec       q    Type
REMARK                         _______ _______ _______ _____ _____    ______ ____
ROOT
ATOM      1  S   UNL     1       0.698   8.935  21.389  0.00  0.00    +0.000 S 
ATOM      2  O   UNL     1       1.607   9.436  22.397  0.00  0.00    +0.000 OA
ATOM      3  O   UNL     1      -0.622   8.454  21.727  0.00  0.00    +0.000 OA
ENDROOT
BRANCH   1   4
ATOM      4  C   UNL     1       1.563   7.694  20.497  0.00  0.00    +0.000 A 
ATOM      5  C   UNL     1       2.236   7.902  19.277  0.00  0.00    +0.000 A 
ATOM      6  C   UNL     1       2.834   6.797  18.617  0.00  0.00    +0.000 A 
ATOM      7  C   UNL     1       2.724   5.480  19.137  0.00  0.00    +0.000 A 
ATOM      8  C   UNL     1       2.004   5.294  20.304  0.00  0.00    +0.000 A 
ATOM      9  C   UNL     1       1.497   6.421  20.987  0.00  0.00    +0.000 A 
ATOM     10  C   UNL     1       1.458   4.033  20.878  0.00  0.00    +0.000 C 
ATOM     11  C   UNL     1       1.886   2.602  20.715  0.00  0.00    +0.000 C 
ATOM     12  C   UNL     1       2.727   2.255  19.527  0.00  0.00    +0.000 C 
ATOM     13  C   UNL     1       3.778   3.263  19.136  0.00  0.00    +0.000 C 
ATOM     14  O   UNL     1       4.974   3.002  19.268  0.00  0.00    +0.000 OA
ATOM     15  N   UNL     1       3.414   4.419  18.497  0.00  0.00    +0.000 N 
ATOM     16  H   UNL     1       4.188   4.757  17.939  0.00  0.00    +0.000 HD
ENDBRANCH   1   4
BRANCH   1  17
ATOM     17  N   UNL     1       0.566  10.180  20.233  0.00  0.00    +0.000 NA
ATOM     18  H   UNL     1       0.943  11.052  20.608  0.00  0.00    +0.000 HD
BRANCH  17  19
ATOM     19  C   UNL     1      -0.740  10.237  19.568  0.00  0.00    +0.000 C 
BRANCH  19  20
ATOM     20  C   UNL     1      -0.820  11.274  18.447  0.00  0.00    +0.000 C 
BRANCH  20  29
ATOM     21  C   UNL     1      -3.009  12.637  20.726  0.00  0.00    +0.000 C 
ATOM     22  C   UNL     1      -3.889  12.352  19.538  0.00  0.00    +0.000 A 
ATOM     23  C   UNL     1      -5.245  12.752  19.612  0.00  0.00    +0.000 A 
ATOM     24  C   UNL     1      -6.134  12.551  18.561  0.00  0.00    +0.000 A 
ATOM     25  C   UNL     1      -5.711  11.940  17.387  0.00  0.00    +0.000 A 
ATOM     26  C   UNL     1      -4.378  11.529  17.310  0.00  0.00    +0.000 A 
ATOM     27  N   UNL     1      -3.733  10.920  16.261  0.00  0.00    +0.000 N 
ATOM     28  C   UNL     1      -2.428  10.699  16.573  0.00  0.00    +0.000 A 
ATOM     29  C   UNL     1      -2.192  11.193  17.845  0.00  0.00    +0.000 A 
ATOM     30  C   UNL     1      -3.447  11.710  18.342  0.00  0.00    +0.000 A 
ATOM     31  H   UNL     1      -4.166  10.705  15.374  0.00  0.00    +0.000 HD
ENDBRANCH  20  29
ENDBRANCH  19  20
ENDBRANCH  17  19
ENDBRANCH   1  17
TORSDOF 5
ENDMDL
MODEL 6
REMARK VINA RESULT:      -8.4      5.700      8.662
REMARK  Name = 
REMARK  6 active torsions:
REMARK  status: ('A' for Active; 'I' for Inactive)
REMARK    1  A    between atoms: C_1  and  C_2
REMARK    2  A    between atoms: C_9  and  C_10
REMARK    3  A    between atoms: C_10  and  C_11
REMARK    4  A    between atoms: C_11  and  N_12
REMARK    5  A    between atoms: N_12  and  S_13
REMARK    6  A    between atoms: S_13  and  C_16
REMARK                            x       y       z     vdW  Elec       q    Type
REMARK                         _______ _______ _______ _____ _____    ______ ____
ROOT
ATOM      1  S   UNL     1       5.306   6.470  16.212  0.00  0.00    +0.000 S 
ATOM      2  O   UNL     1       6.673   6.579  16.676  0.00  0.00    +0.000 OA
ATOM      3  O   UNL     1       4.831   7.211  15.067  0.00  0.00    +0.000 OA
ENDROOT
BRANCH   1   4
ATOM      4  C   UNL     1       4.274   6.801  17.594  0.00  0.00    +0.000 A 
ATOM      5  C   UNL     1       4.184   5.990  18.743  0.00  0.00    +0.000 A 
ATOM      6  C   UNL     1       3.253   6.328  19.759  0.00  0.00    +0.000 A 
ATOM      7  C   UNL     1       2.376   7.438  19.618  0.00  0.00    +0.000 A 
ATOM      8  C   UNL     1       2.442   8.180  18.451  0.00  0.00    +0.000 A 
ATOM      9  C   UNL     1       3.438   7.877  17.497  0.00  0.00    +0.000 A 
ATOM     10  C   UNL     1       1.457   9.153  17.902  0.00  0.00    +0.000 C 
ATOM     11  C   UNL     1       0.411   9.994  18.578  0.00  0.00    +0.000 C 
ATOM     12  C   UNL     1      -0.042   9.582  19.943  0.00  0.00    +0.000 C 
ATOM     13  C   UNL     1       1.025   9.058  20.871  0.00  0.00    +0.000 C 
ATOM     14  O   UNL     1       1.360   9.704  21.865  0.00  0.00    +0.000 OA
ATOM     15  N   UNL     1       1.527   7.796  20.695  0.00  0.00    +0.000 N 
ATOM     16  H   UNL     1       1.870   7.440  21.578  0.00  0.00    +0.000 HD
ENDBRANCH   1   4
BRANCH   1  17
ATOM     17  N   UNL     1       5.041   4.806  15.958  0.00  0.00    +0.000 NA
ATOM     18  H   UNL     1       4.180   4.662  15.429  0.00  0.00    +0.000 HD
BRANCH  17  19
ATOM     19  C   UNL     1       5.247   3.983  17.155  0.00  0.00    +0.000 C 
BRANCH  19  20
ATOM     20  C   UNL     1       4.476   2.663  17.139  0.00  0.00    +0.000 C 
BRANCH  20  29
ATOM     21  C   UNL     1       4.813   1.846  20.466  0.00  0.00    +0.000 C 
ATOM     22  C   UNL     1       3.412   2.394  20.390  0.00  0.00    +0.000 A 
ATOM     23  C   UNL     1       2.683   2.506  21.599  0.00  0.00    +0.000 A 
ATOM     24  C   UNL     1       1.390   3.016  21.638  0.00  0.00    +0.000 A 
ATOM     25  C   UNL     1       0.763   3.439  20.472  0.00  0.00    +0.000 A 
ATOM     26  C   UNL     1       1.470   3.320  19.273  0.00  0.00    +0.000 A 
ATOM     27  N   UNL     1       1.068   3.677  18.009  0.00  0.00    +0.000 N 
ATOM     28  C   UNL     1       2.055   3.418  17.109  0.00  0.00    +0.000 A 
ATOM     29  C   UNL     1       3.145   2.903  17.791  0.00  0.00    +0.000 A 
ATOM     30  C   UNL     1       2.773   2.812  19.184  0.00  0.00    +0.000 A 
ATOM     31  H   UNL     1       0.179   4.104  17.793  0.00  0.00    +0.000 HD
ENDBRANCH  20  29
ENDBRANCH  19  20
ENDBRANCH  17  19
ENDBRANCH   1  17
TORSDOF 5
ENDMDL
MODEL 7
REMARK VINA RESULT:      -8.4      0.989      1.011
REMARK  Name = 
REMARK  6 active torsions:
REMARK  status: ('A' for Active; 'I' for Inactive)
REMARK    1  A    between atoms: C_1  and  C_2
REMARK    2  A    between atoms: C_9  and  C_10
REMARK    3  A    between atoms: C_10  and  C_11
REMARK    4  A    between atoms: C_11  and  N_12
REMARK    5  A    between atoms: N_12  and  S_13
REMARK    6  A    between atoms: S_13  and  C_16
REMARK                            x       y       z     vdW  Elec       q    Type
REMARK                         _______ _______ _______ _____ _____    ______ ____
ROOT
ATOM      1  S   UNL     1       7.349   6.692  17.482  0.00  0.00    +0.000 S 
ATOM      2  O   UNL     1       7.685   6.281  16.135  0.00  0.00    +0.000 OA
ATOM      3  O   UNL     1       8.152   6.304  18.617  0.00  0.00    +0.000 OA
ENDROOT
BRANCH   1   4
ATOM      4  C   UNL     1       5.680   6.219  17.755  0.00  0.00    +0.000 A 
ATOM      5  C   UNL     1       4.559   7.021  17.464  0.00  0.00    +0.000 A 
ATOM      6  C   UNL     1       3.263   6.552  17.803  0.00  0.00    +0.000 A 
ATOM      7  C   UNL     1       3.080   5.313  18.475  0.00  0.00    +0.000 A 
ATOM      8  C   UNL     1       4.202   4.574  18.806  0.00  0.00    +0.000 A 
ATOM      9  C   UNL     1       5.472   5.021  18.377  0.00  0.00    +0.000 A 
ATOM     10  C   UNL     1       4.333   3.447  19.770  0.00  0.00    +0.000 C 
ATOM     11  C   UNL     1       3.324   2.458  20.282  0.00  0.00    +0.000 C 
ATOM     12  C   UNL     1       1.875   2.811  20.160  0.00  0.00    +0.000 C 
ATOM     13  C   UNL     1       1.463   3.514  18.891  0.00  0.00    +0.000 C 
ATOM     14  O   UNL     1       0.746   2.946  18.067  0.00  0.00    +0.000 OA
ATOM     15  N   UNL     1       1.765   4.838  18.712  0.00  0.00    +0.000 N 
ATOM     16  H   UNL     1       1.094   5.257  18.081  0.00  0.00    +0.000 HD
ENDBRANCH   1   4
BRANCH   1  17
ATOM     17  N   UNL     1       7.234   8.392  17.425  0.00  0.00    +0.000 NA
ATOM     18  H   UNL     1       7.020   8.700  16.476  0.00  0.00    +0.000 HD
BRANCH  17  19
ATOM     19  C   UNL     1       8.316   9.083  18.135  0.00  0.00    +0.000 C 
BRANCH  19  20
ATOM     20  C   UNL     1       8.406  10.577  17.821  0.00  0.00    +0.000 C 
BRANCH  20  29
ATOM     21  C   UNL     1       7.683  13.938  17.656  0.00  0.00    +0.000 C 
ATOM     22  C   UNL     1       8.485  13.825  18.925  0.00  0.00    +0.000 A 
ATOM     23  C   UNL     1       8.654  14.995  19.703  0.00  0.00    +0.000 A 
ATOM     24  C   UNL     1       9.363  14.991  20.901  0.00  0.00    +0.000 A 
ATOM     25  C   UNL     1       9.936  13.819  21.377  0.00  0.00    +0.000 A 
ATOM     26  C   UNL     1       9.784  12.662  20.609  0.00  0.00    +0.000 A 
ATOM     27  N   UNL     1      10.246  11.395  20.877  0.00  0.00    +0.000 N 
ATOM     28  C   UNL     1       9.873  10.538  19.889  0.00  0.00    +0.000 A 
ATOM     29  C   UNL     1       9.126  11.241  18.959  0.00  0.00    +0.000 A 
ATOM     30  C   UNL     1       9.081  12.617  19.398  0.00  0.00    +0.000 A 
ATOM     31  H   UNL     1      10.758  11.140  21.709  0.00  0.00    +0.000 HD
ENDBRANCH  20  29
ENDBRANCH  19  20
ENDBRANCH  17  19
ENDBRANCH   1  17
TORSDOF 5
ENDMDL
MODEL 8
REMARK VINA RESULT:      -8.4      6.401     10.531
REMARK  Name = 
REMARK  6 active torsions:
REMARK  status: ('A' for Active; 'I' for Inactive)
REMARK    1  A    between atoms: C_1  and  C_2
REMARK    2  A    between atoms: C_9  and  C_10
REMARK    3  A    between atoms: C_10  and  C_11
REMARK    4  A    between atoms: C_11  and  N_12
REMARK    5  A    between atoms: N_12  and  S_13
REMARK    6  A    between atoms: S_13  and  C_16
REMARK                            x       y       z     vdW  Elec       q    Type
REMARK                         _______ _______ _______ _____ _____    ______ ____
ROOT
ATOM      1  S   UNL     1       0.177   9.241  22.292  0.00  0.00    +0.000 S 
ATOM      2  O   UNL     1      -0.814   8.233  21.976  0.00  0.00    +0.000 OA
ATOM      3  O   UNL     1       0.300   9.795  23.620  0.00  0.00    +0.000 OA
ENDROOT
BRANCH   1   4
ATOM      4  C   UNL     1      -0.036  10.542  21.132  0.00  0.00    +0.000 A 
ATOM      5  C   UNL     1      -0.919  10.505  20.035  0.00  0.00    +0.000 A 
ATOM      6  C   UNL     1      -0.942  11.594  19.125  0.00  0.00    +0.000 A 
ATOM      7  C   UNL     1      -0.056  12.696  19.271  0.00  0.00    +0.000 A 
ATOM      8  C   UNL     1       0.846  12.677  20.321  0.00  0.00    +0.000 A 
ATOM      9  C   UNL     1       0.785  11.626  21.262  0.00  0.00    +0.000 A 
ATOM     10  C   UNL     1       2.072  13.499  20.519  0.00  0.00    +0.000 C 
ATOM     11  C   UNL     1       2.452  14.855  19.994  0.00  0.00    +0.000 C 
ATOM     12  C   UNL     1       1.732  15.365  18.787  0.00  0.00    +0.000 C 
ATOM     13  C   UNL     1       0.255  15.066  18.716  0.00  0.00    +0.000 C 
ATOM     14  O   UNL     1      -0.572  15.974  18.814  0.00  0.00    +0.000 OA
ATOM     15  N   UNL     1      -0.174  13.805  18.396  0.00  0.00    +0.000 N 
ATOM     16  H   UNL     1      -1.093  13.855  17.975  0.00  0.00    +0.000 HD
ENDBRANCH   1   4
BRANCH   1  17
ATOM     17  N   UNL     1       1.672   8.577  21.815  0.00  0.00    +0.000 NA
ATOM     18  H   UNL     1       2.418   9.265  21.931  0.00  0.00    +0.000 HD
BRANCH  17  19
ATOM     19  C   UNL     1       1.618   7.845  20.545  0.00  0.00    +0.000 C 
BRANCH  19  20
ATOM     20  C   UNL     1       1.584   6.325  20.707  0.00  0.00    +0.000 C 
BRANCH  20  29
ATOM     21  C   UNL     1       1.315   2.905  20.981  0.00  0.00    +0.000 C 
ATOM     22  C   UNL     1       2.096   3.083  19.706  0.00  0.00    +0.000 A 
ATOM     23  C   UNL     1       2.420   1.921  18.966  0.00  0.00    +0.000 A 
ATOM     24  C   UNL     1       3.122   1.981  17.766  0.00  0.00    +0.000 A 
ATOM     25  C   UNL     1       3.534   3.204  17.250  0.00  0.00    +0.000 A 
ATOM     26  C   UNL     1       3.230   4.354  17.982  0.00  0.00    +0.000 A 
ATOM     27  N   UNL     1       3.519   5.662  17.672  0.00  0.00    +0.000 N 
ATOM     28  C   UNL     1       3.034   6.493  18.635  0.00  0.00    +0.000 A 
ATOM     29  C   UNL     1       2.387   5.727  19.589  0.00  0.00    +0.000 A 
ATOM     30  C   UNL     1       2.526   4.344  19.193  0.00  0.00    +0.000 A 
ATOM     31  H   UNL     1       3.993   5.956  16.831  0.00  0.00    +0.000 HD
ENDBRANCH  20  29
ENDBRANCH  19  20
ENDBRANCH  17  19
ENDBRANCH   1  17
TORSDOF 5
ENDMDL
MODEL 9
REMARK VINA RESULT:      -8.3      6.935     10.302
REMARK  Name = 
REMARK  6 active torsions:
REMARK  status: ('A' for Active; 'I' for Inactive)
REMARK    1  A    between atoms: C_1  and  C_2
REMARK    2  A    between atoms: C_9  and  C_10
REMARK    3  A    between atoms: C_10  and  C_11
REMARK    4  A    between atoms: C_11  and  N_12
REMARK    5  A    between atoms: N_12  and  S_13
REMARK    6  A    between atoms: S_13  and  C_16
REMARK                            x       y       z     vdW  Elec       q    Type
REMARK                         _______ _______ _______ _____ _____    ______ ____
ROOT
ATOM      1  S   UNL     1       1.387  10.078  18.853  0.00  0.00    +0.000 S 
ATOM      2  O   UNL     1       2.220  11.048  18.175  0.00  0.00    +0.000 OA
ATOM      3  O   UNL     1       1.001  10.242  20.235  0.00  0.00    +0.000 OA
ENDROOT
BRANCH   1   4
ATOM      4  C   UNL     1       2.155   8.512  18.640  0.00  0.00    +0.000 A 
ATOM      5  C   UNL     1       2.830   8.100  17.475  0.00  0.00    +0.000 A 
ATOM      6  C   UNL     1       3.343   6.779  17.401  0.00  0.00    +0.000 A 
ATOM      7  C   UNL     1       3.144   5.850  18.459  0.00  0.00    +0.000 A 
ATOM      8  C   UNL     1       2.421   6.262  19.565  0.00  0.00    +0.000 A 
ATOM      9  C   UNL     1       2.002   7.608  19.652  0.00  0.00    +0.000 A 
ATOM     10  C   UNL     1       1.792   5.438  20.634  0.00  0.00    +0.000 C 
ATOM     11  C   UNL     1       2.115   4.063  21.146  0.00  0.00    +0.000 C 
ATOM     12  C   UNL     1       2.920   3.160  20.266  0.00  0.00    +0.000 C 
ATOM     13  C   UNL     1       4.037   3.809  19.487  0.00  0.00    +0.000 C 
ATOM     14  O   UNL     1       5.212   3.556  19.753  0.00  0.00    +0.000 OA
ATOM     15  N   UNL     1       3.751   4.571  18.385  0.00  0.00    +0.000 N 
ATOM     16  H   UNL     1       4.542   4.566  17.754  0.00  0.00    +0.000 HD
ENDBRANCH   1   4
BRANCH   1  17
ATOM     17  N   UNL     1      -0.011   9.924  17.890  0.00  0.00    +0.000 NA
ATOM     18  H   UNL     1       0.172  10.263  16.944  0.00  0.00    +0.000 HD
BRANCH  17  19
ATOM     19  C   UNL     1      -1.239  10.384  18.548  0.00  0.00    +0.000 C 
BRANCH  19  20
ATOM     20  C   UNL     1      -1.784  11.700  17.992  0.00  0.00    +0.000 C 
BRANCH  20  29
ATOM     21  C   UNL     1      -3.618  12.708  20.724  0.00  0.00    +0.000 C 
ATOM     22  C   UNL     1      -4.677  12.377  19.707  0.00  0.00    +0.000 A 
ATOM     23  C   UNL     1      -6.027  12.618  20.061  0.00  0.00    +0.000 A 
ATOM     24  C   UNL     1      -7.077  12.363  19.185  0.00  0.00    +0.000 A 
ATOM     25  C   UNL     1      -6.830  11.854  17.916  0.00  0.00    +0.000 A 
ATOM     26  C   UNL     1      -5.502  11.600  17.564  0.00  0.00    +0.000 A 
ATOM     27  N   UNL     1      -5.014  11.113  16.375  0.00  0.00    +0.000 N 
ATOM     28  C   UNL     1      -3.657  11.027  16.422  0.00  0.00    +0.000 A 
ATOM     29  C   UNL     1      -3.232  11.490  17.655  0.00  0.00    +0.000 A 
ATOM     30  C   UNL     1      -4.412  11.841  18.411  0.00  0.00    +0.000 A 
ATOM     31  H   UNL     1      -5.586  10.889  15.574  0.00  0.00    +0.000 HD
ENDBRANCH  20  29
ENDBRANCH  19  20
ENDBRANCH  17  19
ENDBRANCH   1  17
TORSDOF 5
ENDMDL
