MODEL 1
REMARK VINA RESULT:      -7.9      0.000      0.000
REMARK  Name = 
REMARK  4 active torsions:
REMARK  status: ('A' for Active; 'I' for Inactive)
REMARK    1  A    between atoms: C_1  and  C_2
REMARK    2  A    between atoms: C_7  and  C_8
REMARK    3  A    between atoms: N_10  and  C_11
REMARK    4  A    between atoms: C_15  and  C_16
REMARK                            x       y       z     vdW  Elec       q    Type
REMARK                         _______ _______ _______ _____ _____    ______ ____
ROOT
ATOM      1  C   UNL     1       1.380   9.803  18.038  0.00  0.00    +0.000 A 
ATOM      2  C   UNL     1       2.227  10.889  18.268  0.00  0.00    +0.000 A 
ATOM      3  C   UNL     1       1.728  12.111  18.716  0.00  0.00    +0.000 A 
ATOM      4  C   UNL     1       0.358  12.282  18.897  0.00  0.00    +0.000 A 
ATOM      5  C   UNL     1      -0.530  11.246  18.589  0.00  0.00    +0.000 A 
ATOM      6  C   UNL     1      -0.004   9.999  18.172  0.00  0.00    +0.000 A 
ENDROOT
BRANCH   5   7
ATOM      7  C   UNL     1      -1.974  11.491  18.693  0.00  0.00    +0.000 A 
ATOM      8  N   UNL     1      -2.617  12.161  19.640  0.00  0.00    +0.000 NA
ATOM      9  C   UNL     1      -3.955  12.103  19.313  0.00  0.00    +0.000 A 
ATOM     10  C   UNL     1      -5.084  12.614  19.975  0.00  0.00    +0.000 A 
ATOM     11  C   UNL     1      -6.355  12.362  19.433  0.00  0.00    +0.000 A 
ATOM     12  C   UNL     1      -6.499  11.634  18.249  0.00  0.00    +0.000 A 
ATOM     13  C   UNL     1      -5.385  11.152  17.558  0.00  0.00    +0.000 A 
ATOM     14  C   UNL     1      -4.138  11.405  18.128  0.00  0.00    +0.000 A 
ATOM     15  N   UNL     1      -2.870  11.083  17.730  0.00  0.00    +0.000 N 
ATOM     16  H   UNL     1      -2.628  10.637  16.862  0.00  0.00    +0.000 HD
ENDBRANCH   5   7
BRANCH   1  19
ATOM     17  C   UNL     1       2.312   7.548  18.551  0.00  0.00    +0.000 C 
ATOM     18  O   UNL     1       2.210   7.634  19.767  0.00  0.00    +0.000 OA
ATOM     19  N   UNL     1       1.873   8.524  17.654  0.00  0.00    +0.000 N 
ATOM     20  H   UNL     1       1.778   8.265  16.680  0.00  0.00    +0.000 HD
BRANCH  17  27
ATOM     21  C   UNL     1       7.642   5.527  18.618  0.00  0.00    +0.000 C 
ATOM     22  C   UNL     1       6.654   6.150  17.666  0.00  0.00    +0.000 C 
ATOM     23  O   UNL     1       7.022   6.624  16.591  0.00  0.00    +0.000 OA
ATOM     24  N   UNL     1       5.331   6.115  18.046  0.00  0.00    +0.000 N 
ATOM     25  C   UNL     1       4.786   5.640  19.300  0.00  0.00    +0.000 C 
ATOM     26  C   UNL     1       3.362   5.258  18.930  0.00  0.00    +0.000 C 
ATOM     27  C   UNL     1       2.956   6.323  17.905  0.00  0.00    +0.000 C 
ATOM     28  C   UNL     1       4.283   6.676  17.203  0.00  0.00    +0.000 C 
ENDBRANCH  17  27
ENDBRANCH   1  19
TORSDOF 3
ENDMDL
MODEL 2
REMARK VINA RESULT:      -7.8      0.164      1.144
REMARK  Name = 
REMARK  4 active torsions:
REMARK  status: ('A' for Active; 'I' for Inactive)
REMARK    1  A    between atoms: C_1  and  C_2
REMARK    2  A    between atoms: C_7  and  C_8
REMARK    3  A    between atoms: N_10  and  C_11
REMARK    4  A    between atoms: C_15  and  C_16
REMARK                            x       y       z     vdW  Elec       q    Type
REMARK                         _______ _______ _______ _____ _____    ______ ____
ROOT
ATOM      1  C   UNL     1       1.380   9.699  18.038  0.00  0.00    +0.000 A 
ATOM      2  C   UNL     1       2.201  10.791  18.332  0.00  0.00    +0.000 A 
ATOM      3  C   UNL     1       1.664  11.996  18.781  0.00  0.00    +0.000 A 
ATOM      4  C   UNL     1       0.285  12.146  18.899  0.00  0.00    +0.000 A 
ATOM      5  C   UNL     1      -0.573  11.106  18.527  0.00  0.00    +0.000 A 
ATOM      6  C   UNL     1      -0.010   9.875  18.109  0.00  0.00    +0.000 A 
ENDROOT
BRANCH   5   7
ATOM      7  C   UNL     1      -2.023  11.331  18.565  0.00  0.00    +0.000 A 
ATOM      8  N   UNL     1      -2.948  10.796  17.779  0.00  0.00    +0.000 NA
ATOM      9  C   UNL     1      -4.155  11.322  18.189  0.00  0.00    +0.000 A 
ATOM     10  C   UNL     1      -5.455  11.128  17.693  0.00  0.00    +0.000 A 
ATOM     11  C   UNL     1      -6.513  11.841  18.280  0.00  0.00    +0.000 A 
ATOM     12  C   UNL     1      -6.286  12.713  19.348  0.00  0.00    +0.000 A 
ATOM     13  C   UNL     1      -5.005  12.889  19.877  0.00  0.00    +0.000 A 
ATOM     14  C   UNL     1      -3.972  12.179  19.263  0.00  0.00    +0.000 A 
ATOM     15  N   UNL     1      -2.631  12.119  19.516  0.00  0.00    +0.000 N 
ATOM     16  H   UNL     1      -2.162  12.565  20.287  0.00  0.00    +0.000 HD
ENDBRANCH   5   7
BRANCH   1  19
ATOM     17  C   UNL     1       2.362   7.464  18.548  0.00  0.00    +0.000 C 
ATOM     18  O   UNL     1       2.245   7.541  19.762  0.00  0.00    +0.000 OA
ATOM     19  N   UNL     1       1.909   8.435  17.652  0.00  0.00    +0.000 N 
ATOM     20  H   UNL     1       1.831   8.181  16.675  0.00  0.00    +0.000 HD
BRANCH  17  27
ATOM     21  C   UNL     1       7.742   5.581  18.647  0.00  0.00    +0.000 C 
ATOM     22  C   UNL     1       6.745   6.183  17.690  0.00  0.00    +0.000 C 
ATOM     23  O   UNL     1       7.110   6.672  16.621  0.00  0.00    +0.000 OA
ATOM     24  N   UNL     1       5.421   6.112  18.060  0.00  0.00    +0.000 N 
ATOM     25  C   UNL     1       4.879   5.618  19.306  0.00  0.00    +0.000 C 
ATOM     26  C   UNL     1       3.468   5.201  18.924  0.00  0.00    +0.000 C 
ATOM     27  C   UNL     1       3.043   6.260  17.901  0.00  0.00    +0.000 C 
ATOM     28  C   UNL     1       4.366   6.650  17.211  0.00  0.00    +0.000 C 
ENDBRANCH  17  27
ENDBRANCH   1  19
TORSDOF 3
ENDMDL
MODEL 3
REMARK VINA RESULT:      -7.7      3.728      9.795
REMARK  Name = 
REMARK  4 active torsions:
REMARK  status: ('A' for Active; 'I' for Inactive)
REMARK    1  A    between atoms: C_1  and  C_2
REMARK    2  A    between atoms: C_7  and  C_8
REMARK    3  A    between atoms: N_10  and  C_11
REMARK    4  A    between atoms: C_15  and  C_16
REMARK                            x       y       z     vdW  Elec       q    Type
REMARK                         _______ _______ _______ _____ _____    ______ ____
ROOT
ATOM      1  C   UNL     1       1.819   6.094  20.515  0.00  0.00    +0.000 A 
ATOM      2  C   UNL     1       0.980   4.992  20.691  0.00  0.00    +0.000 A 
ATOM      3  C   UNL     1       1.159   3.823  19.952  0.00  0.00    +0.000 A 
ATOM      4  C   UNL     1       2.158   3.755  18.985  0.00  0.00    +0.000 A 
ATOM      5  C   UNL     1       2.959   4.871  18.716  0.00  0.00    +0.000 A 
ATOM      6  C   UNL     1       2.789   6.036  19.502  0.00  0.00    +0.000 A 
ENDROOT
BRANCH   5   7
ATOM      7  C   UNL     1       3.934   4.801  17.620  0.00  0.00    +0.000 A 
ATOM      8  N   UNL     1       3.849   4.089  16.504  0.00  0.00    +0.000 NA
ATOM      9  C   UNL     1       5.008   4.337  15.800  0.00  0.00    +0.000 A 
ATOM     10  C   UNL     1       5.460   3.830  14.570  0.00  0.00    +0.000 A 
ATOM     11  C   UNL     1       6.725   4.223  14.103  0.00  0.00    +0.000 A 
ATOM     12  C   UNL     1       7.514   5.116  14.833  0.00  0.00    +0.000 A 
ATOM     13  C   UNL     1       7.064   5.659  16.039  0.00  0.00    +0.000 A 
ATOM     14  C   UNL     1       5.811   5.237  16.484  0.00  0.00    +0.000 A 
ATOM     15  N   UNL     1       5.084   5.557  17.596  0.00  0.00    +0.000 N 
ATOM     16  H   UNL     1       5.338   6.250  18.280  0.00  0.00    +0.000 HD
ENDBRANCH   5   7
BRANCH   1  19
ATOM     17  C   UNL     1       1.230   8.496  20.840  0.00  0.00    +0.000 C 
ATOM     18  O   UNL     1       0.752   8.668  19.729  0.00  0.00    +0.000 OA
ATOM     19  N   UNL     1       1.704   7.269  21.311  0.00  0.00    +0.000 N 
ATOM     20  H   UNL     1       1.854   7.168  22.307  0.00  0.00    +0.000 HD
BRANCH  17  27
ATOM     21  C   UNL     1      -2.597  12.102  23.042  0.00  0.00    +0.000 C 
ATOM     22  C   UNL     1      -1.421  12.098  22.100  0.00  0.00    +0.000 C 
ATOM     23  O   UNL     1      -1.225  13.036  21.328  0.00  0.00    +0.000 OA
ATOM     24  N   UNL     1      -0.569  11.020  22.188  0.00  0.00    +0.000 N 
ATOM     25  C   UNL     1      -0.724   9.838  23.008  0.00  0.00    +0.000 C 
ATOM     26  C   UNL     1       0.707   9.353  23.181  0.00  0.00    +0.000 C 
ATOM     27  C   UNL     1       1.357   9.655  21.826  0.00  0.00    +0.000 C 
ATOM     28  C   UNL     1       0.608  10.910  21.336  0.00  0.00    +0.000 C 
ENDBRANCH  17  27
ENDBRANCH   1  19
TORSDOF 3
ENDMDL
MODEL 4
REMARK VINA RESULT:      -7.7      3.079      9.524
REMARK  Name = 
REMARK  4 active torsions:
REMARK  status: ('A' for Active; 'I' for Inactive)
REMARK    1  A    between atoms: C_1  and  C_2
REMARK    2  A    between atoms: C_7  and  C_8
REMARK    3  A    between atoms: N_10  and  C_11
REMARK    4  A    between atoms: C_15  and  C_16
REMARK                            x       y       z     vdW  Elec       q    Type
REMARK                         _______ _______ _______ _____ _____    ______ ____
ROOT
ATOM      1  C   UNL     1      -1.796  11.401  18.576  0.00  0.00    +0.000 A 
ATOM      2  C   UNL     1      -1.198  12.647  18.775  0.00  0.00    +0.000 A 
ATOM      3  C   UNL     1       0.188  12.778  18.853  0.00  0.00    +0.000 A 
ATOM      4  C   UNL     1       1.001  11.650  18.779  0.00  0.00    +0.000 A 
ATOM      5  C   UNL     1       0.435  10.376  18.671  0.00  0.00    +0.000 A 
ATOM      6  C   UNL     1      -0.973  10.264  18.555  0.00  0.00    +0.000 A 
ENDROOT
BRANCH   5   7
ATOM      7  C   UNL     1       1.313   9.200  18.698  0.00  0.00    +0.000 A 
ATOM      8  N   UNL     1       1.394   8.270  19.640  0.00  0.00    +0.000 NA
ATOM      9  C   UNL     1       2.369   7.387  19.227  0.00  0.00    +0.000 A 
ATOM     10  C   UNL     1       2.885   6.236  19.847  0.00  0.00    +0.000 A 
ATOM     11  C   UNL     1       3.928   5.541  19.213  0.00  0.00    +0.000 A 
ATOM     12  C   UNL     1       4.433   5.968  17.983  0.00  0.00    +0.000 A 
ATOM     13  C   UNL     1       3.906   7.088  17.336  0.00  0.00    +0.000 A 
ATOM     14  C   UNL     1       2.882   7.767  17.996  0.00  0.00    +0.000 A 
ATOM     15  N   UNL     1       2.158   8.876  17.660  0.00  0.00    +0.000 N 
ATOM     16  H   UNL     1       2.218   9.369  16.785  0.00  0.00    +0.000 HD
ENDBRANCH   5   7
BRANCH   1  19
ATOM     17  C   UNL     1      -3.869  11.323  17.193  0.00  0.00    +0.000 C 
ATOM     18  O   UNL     1      -3.309  11.402  16.108  0.00  0.00    +0.000 OA
ATOM     19  N   UNL     1      -3.203  11.252  18.418  0.00  0.00    +0.000 N 
ATOM     20  H   UNL     1      -3.729  10.949  19.228  0.00  0.00    +0.000 HD
BRANCH  17  27
ATOM     21  C   UNL     1      -7.486  12.979  21.276  0.00  0.00    +0.000 C 
ATOM     22  C   UNL     1      -6.997  11.722  20.605  0.00  0.00    +0.000 C 
ATOM     23  O   UNL     1      -7.183  10.618  21.117  0.00  0.00    +0.000 OA
ATOM     24  N   UNL     1      -6.383  11.878  19.383  0.00  0.00    +0.000 N 
ATOM     25  C   UNL     1      -6.059  13.117  18.711  0.00  0.00    +0.000 C 
ATOM     26  C   UNL     1      -6.006  12.709  17.248  0.00  0.00    +0.000 C 
ATOM     27  C   UNL     1      -5.393  11.304  17.287  0.00  0.00    +0.000 C 
ATOM     28  C   UNL     1      -5.878  10.734  18.635  0.00  0.00    +0.000 C 
ENDBRANCH  17  27
ENDBRANCH   1  19
TORSDOF 3
ENDMDL
MODEL 5
REMARK VINA RESULT:      -7.7      2.133      3.127
REMARK  Name = 
REMARK  4 active torsions:
REMARK  status: ('A' for Active; 'I' for Inactive)
REMARK    1  A    between atoms: C_1  and  C_2
REMARK    2  A    between atoms: C_7  and  C_8
REMARK    3  A    between atoms: N_10  and  C_11
REMARK    4  A    between atoms: C_15  and  C_16
REMARK                            x       y       z     vdW  Elec       q    Type
REMARK                         _______ _______ _______ _____ _____    ______ ____
ROOT
ATOM      1  C   UNL     1       1.407   9.871  18.451  0.00  0.00    +0.000 A 
ATOM      2  C   UNL     1       2.172  11.037  18.369  0.00  0.00    +0.000 A 
ATOM      3  C   UNL     1       1.577  12.296  18.437  0.00  0.00    +0.000 A 
ATOM      4  C   UNL     1       0.194  12.410  18.543  0.00  0.00    +0.000 A 
ATOM      5  C   UNL     1      -0.613  11.266  18.536  0.00  0.00    +0.000 A 
ATOM      6  C   UNL     1       0.010   9.995  18.504  0.00  0.00    +0.000 A 
ENDROOT
BRANCH   5   7
ATOM      7  C   UNL     1      -2.072  11.423  18.544  0.00  0.00    +0.000 A 
ATOM      8  N   UNL     1      -2.948  10.907  17.693  0.00  0.00    +0.000 NA
ATOM      9  C   UNL     1      -4.189  11.348  18.101  0.00  0.00    +0.000 A 
ATOM     10  C   UNL     1      -5.465  11.133  17.552  0.00  0.00    +0.000 A 
ATOM     11  C   UNL     1      -6.570  11.753  18.155  0.00  0.00    +0.000 A 
ATOM     12  C   UNL     1      -6.415  12.554  19.290  0.00  0.00    +0.000 A 
ATOM     13  C   UNL     1      -5.158  12.747  19.870  0.00  0.00    +0.000 A 
ATOM     14  C   UNL     1      -4.078  12.131  19.240  0.00  0.00    +0.000 A 
ATOM     15  N   UNL     1      -2.742  12.112  19.530  0.00  0.00    +0.000 N 
ATOM     16  H   UNL     1      -2.317  12.520  20.345  0.00  0.00    +0.000 HD
ENDBRANCH   5   7
BRANCH   1  19
ATOM     17  C   UNL     1       2.073   7.753  19.586  0.00  0.00    +0.000 C 
ATOM     18  O   UNL     1       1.537   8.000  20.656  0.00  0.00    +0.000 OA
ATOM     19  N   UNL     1       1.999   8.576  18.461  0.00  0.00    +0.000 N 
ATOM     20  H   UNL     1       2.263   8.183  17.566  0.00  0.00    +0.000 HD
BRANCH  17  27
ATOM     21  C   UNL     1       0.617   2.302  18.767  0.00  0.00    +0.000 C 
ATOM     22  C   UNL     1       1.256   3.184  19.809  0.00  0.00    +0.000 C 
ATOM     23  O   UNL     1       1.366   2.808  20.976  0.00  0.00    +0.000 OA
ATOM     24  N   UNL     1       1.742   4.396  19.371  0.00  0.00    +0.000 N 
ATOM     25  C   UNL     1       1.622   4.968  18.048  0.00  0.00    +0.000 C 
ATOM     26  C   UNL     1       2.807   5.918  17.978  0.00  0.00    +0.000 C 
ATOM     27  C   UNL     1       2.901   6.483  19.400  0.00  0.00    +0.000 C 
ATOM     28  C   UNL     1       2.389   5.329  20.284  0.00  0.00    +0.000 C 
ENDBRANCH  17  27
ENDBRANCH   1  19
TORSDOF 3
ENDMDL
MODEL 6
REMARK VINA RESULT:      -7.6      2.131      2.913
REMARK  Name = 
REMARK  4 active torsions:
REMARK  status: ('A' for Active; 'I' for Inactive)
REMARK    1  A    between atoms: C_1  and  C_2
REMARK    2  A    between atoms: C_7  and  C_8
REMARK    3  A    between atoms: N_10  and  C_11
REMARK    4  A    between atoms: C_15  and  C_16
REMARK                            x       y       z     vdW  Elec       q    Type
REMARK                         _______ _______ _______ _____ _____    ______ ____
ROOT
ATOM      1  C   UNL     1       1.494   9.950  18.459  0.00  0.00    +0.000 A 
ATOM      2  C   UNL     1       2.276  11.101  18.337  0.00  0.00    +0.000 A 
ATOM      3  C   UNL     1       1.707  12.371  18.416  0.00  0.00    +0.000 A 
ATOM      4  C   UNL     1       0.331  12.512  18.573  0.00  0.00    +0.000 A 
ATOM      5  C   UNL     1      -0.496  11.384  18.608  0.00  0.00    +0.000 A 
ATOM      6  C   UNL     1       0.102  10.100  18.564  0.00  0.00    +0.000 A 
ENDROOT
BRANCH   5   7
ATOM      7  C   UNL     1      -1.951  11.567  18.671  0.00  0.00    +0.000 A 
ATOM      8  N   UNL     1      -2.655  12.140  19.639  0.00  0.00    +0.000 NA
ATOM      9  C   UNL     1      -3.976  12.059  19.255  0.00  0.00    +0.000 A 
ATOM     10  C   UNL     1      -5.148  12.476  19.908  0.00  0.00    +0.000 A 
ATOM     11  C   UNL     1      -6.387  12.220  19.297  0.00  0.00    +0.000 A 
ATOM     12  C   UNL     1      -6.458  11.579  18.058  0.00  0.00    +0.000 A 
ATOM     13  C   UNL     1      -5.301  11.191  17.378  0.00  0.00    +0.000 A 
ATOM     14  C   UNL     1      -4.087  11.445  18.016  0.00  0.00    +0.000 A 
ATOM     15  N   UNL     1      -2.794  11.201  17.646  0.00  0.00    +0.000 N 
ATOM     16  H   UNL     1      -2.501  10.830  16.758  0.00  0.00    +0.000 HD
ENDBRANCH   5   7
BRANCH   1  19
ATOM     17  C   UNL     1       2.106   7.805  19.572  0.00  0.00    +0.000 C 
ATOM     18  O   UNL     1       1.560   8.046  20.639  0.00  0.00    +0.000 OA
ATOM     19  N   UNL     1       2.062   8.645  18.458  0.00  0.00    +0.000 N 
ATOM     20  H   UNL     1       2.331   8.259  17.561  0.00  0.00    +0.000 HD
BRANCH  17  27
ATOM     21  C   UNL     1       0.563   2.375  18.773  0.00  0.00    +0.000 C 
ATOM     22  C   UNL     1       1.224   3.249  19.808  0.00  0.00    +0.000 C 
ATOM     23  O   UNL     1       1.340   2.872  20.974  0.00  0.00    +0.000 OA
ATOM     24  N   UNL     1       1.723   4.453  19.365  0.00  0.00    +0.000 N 
ATOM     25  C   UNL     1       1.598   5.026  18.042  0.00  0.00    +0.000 C 
ATOM     26  C   UNL     1       2.797   5.958  17.959  0.00  0.00    +0.000 C 
ATOM     27  C   UNL     1       2.914   6.523  19.379  0.00  0.00    +0.000 C 
ATOM     28  C   UNL     1       2.394   5.377  20.270  0.00  0.00    +0.000 C 
ENDBRANCH  17  27
ENDBRANCH   1  19
TORSDOF 3
ENDMDL
MODEL 7
REMARK VINA RESULT:      -7.6      3.724      9.542
REMARK  Name = 
REMARK  4 active torsions:
REMARK  status: ('A' for Active; 'I' for Inactive)
REMARK    1  A    between atoms: C_1  and  C_2
REMARK    2  A    between atoms: C_7  and  C_8
REMARK    3  A    between atoms: N_10  and  C_11
REMARK    4  A    between atoms: C_15  and  C_16
REMARK                            x       y       z     vdW  Elec       q    Type
REMARK                         _______ _______ _______ _____ _____    ______ ____
ROOT
ATOM      1  C   UNL     1       0.994  10.361  19.874  0.00  0.00    +0.000 A 
ATOM      2  C   UNL     1       1.373  10.745  18.586  0.00  0.00    +0.000 A 
ATOM      3  C   UNL     1       1.889   9.820  17.679  0.00  0.00    +0.000 A 
ATOM      4  C   UNL     1       2.079   8.495  18.065  0.00  0.00    +0.000 A 
ATOM      5  C   UNL     1       1.796   8.093  19.374  0.00  0.00    +0.000 A 
ATOM      6  C   UNL     1       1.237   9.036  20.271  0.00  0.00    +0.000 A 
ENDROOT
BRANCH   5   7
ATOM      7  C   UNL     1       2.103   6.716  19.779  0.00  0.00    +0.000 A 
ATOM      8  N   UNL     1       1.547   6.015  20.759  0.00  0.00    +0.000 NA
ATOM      9  C   UNL     1       2.176   4.788  20.761  0.00  0.00    +0.000 A 
ATOM     10  C   UNL     1       2.007   3.673  21.599  0.00  0.00    +0.000 A 
ATOM     11  C   UNL     1       2.831   2.552  21.402  0.00  0.00    +0.000 A 
ATOM     12  C   UNL     1       3.787   2.534  20.384  0.00  0.00    +0.000 A 
ATOM     13  C   UNL     1       3.942   3.619  19.518  0.00  0.00    +0.000 A 
ATOM     14  C   UNL     1       3.121   4.723  19.748  0.00  0.00    +0.000 A 
ATOM     15  N   UNL     1       3.011   5.927  19.109  0.00  0.00    +0.000 N 
ATOM     16  H   UNL     1       3.502   6.189  18.271  0.00  0.00    +0.000 HD
ENDBRANCH   5   7
BRANCH   1  19
ATOM     17  C   UNL     1      -0.865  11.847  20.617  0.00  0.00    +0.000 C 
ATOM     18  O   UNL     1      -1.643  11.546  19.723  0.00  0.00    +0.000 OA
ATOM     19  N   UNL     1       0.395  11.270  20.790  0.00  0.00    +0.000 N 
ATOM     20  H   UNL     1       0.859  11.402  21.680  0.00  0.00    +0.000 HD
BRANCH  17  27
ATOM     21  C   UNL     1      -5.413  12.574  23.978  0.00  0.00    +0.000 C 
ATOM     22  C   UNL     1      -4.744  13.206  22.785  0.00  0.00    +0.000 C 
ATOM     23  O   UNL     1      -5.347  14.009  22.073  0.00  0.00    +0.000 OA
ATOM     24  N   UNL     1      -3.426  12.871  22.571  0.00  0.00    +0.000 N 
ATOM     25  C   UNL     1      -2.634  11.904  23.299  0.00  0.00    +0.000 C 
ATOM     26  C   UNL     1      -1.211  12.394  23.081  0.00  0.00    +0.000 C 
ATOM     27  C   UNL     1      -1.227  12.920  21.641  0.00  0.00    +0.000 C 
ATOM     28  C   UNL     1      -2.671  13.428  21.456  0.00  0.00    +0.000 C 
ENDBRANCH  17  27
ENDBRANCH   1  19
TORSDOF 3
ENDMDL
MODEL 8
REMARK VINA RESULT:      -7.5      2.829      5.470
REMARK  Name = 
REMARK  4 active torsions:
REMARK  status: ('A' for Active; 'I' for Inactive)
REMARK    1  A    between atoms: C_1  and  C_2
REMARK    2  A    between atoms: C_7  and  C_8
REMARK    3  A    between atoms: N_10  and  C_11
REMARK    4  A    between atoms: C_15  and  C_16
REMARK                            x       y       z     vdW  Elec       q    Type
REMARK                         _______ _______ _______ _____ _____    ______ ____
ROOT
ATOM      1  C   UNL     1       1.331   9.558  18.049  0.00  0.00    +0.000 A 
ATOM      2  C   UNL     1      -0.036   9.669  18.309  0.00  0.00    +0.000 A 
ATOM      3  C   UNL     1      -0.609  10.892  18.652  0.00  0.00    +0.000 A 
ATOM      4  C   UNL     1       0.190  12.024  18.786  0.00  0.00    +0.000 A 
ATOM      5  C   UNL     1       1.576  11.934  18.622  0.00  0.00    +0.000 A 
ATOM      6  C   UNL     1       2.137  10.692  18.237  0.00  0.00    +0.000 A 
ENDROOT
BRANCH   5   7
ATOM      7  C   UNL     1       2.402  13.122  18.870  0.00  0.00    +0.000 A 
ATOM      8  N   UNL     1       2.352  13.941  19.913  0.00  0.00    +0.000 NA
ATOM      9  C   UNL     1       3.304  14.912  19.687  0.00  0.00    +0.000 A 
ATOM     10  C   UNL     1       3.662  16.039  20.446  0.00  0.00    +0.000 A 
ATOM     11  C   UNL     1       4.652  16.901  19.946  0.00  0.00    +0.000 A 
ATOM     12  C   UNL     1       5.284  16.639  18.727  0.00  0.00    +0.000 A 
ATOM     13  C   UNL     1       4.967  15.502  17.979  0.00  0.00    +0.000 A 
ATOM     14  C   UNL     1       3.970  14.674  18.494  0.00  0.00    +0.000 A 
ATOM     15  N   UNL     1       3.423  13.510  18.032  0.00  0.00    +0.000 N 
ATOM     16  H   UNL     1       3.730  13.004  17.218  0.00  0.00    +0.000 HD
ENDBRANCH   5   7
BRANCH   1  19
ATOM     17  C   UNL     1       2.422   7.359  18.488  0.00  0.00    +0.000 C 
ATOM     18  O   UNL     1       2.294   7.387  19.704  0.00  0.00    +0.000 OA
ATOM     19  N   UNL     1       1.926   8.337  17.623  0.00  0.00    +0.000 N 
ATOM     20  H   UNL     1       1.866   8.113  16.637  0.00  0.00    +0.000 HD
BRANCH  17  27
ATOM     21  C   UNL     1       7.838   5.602  18.752  0.00  0.00    +0.000 C 
ATOM     22  C   UNL     1       6.876   6.239  17.783  0.00  0.00    +0.000 C 
ATOM     23  O   UNL     1       7.280   6.801  16.766  0.00  0.00    +0.000 OA
ATOM     24  N   UNL     1       5.536   6.113  18.078  0.00  0.00    +0.000 N 
ATOM     25  C   UNL     1       4.946   5.529  19.263  0.00  0.00    +0.000 C 
ATOM     26  C   UNL     1       3.567   5.103  18.783  0.00  0.00    +0.000 C 
ATOM     27  C   UNL     1       3.167   6.214  17.805  0.00  0.00    +0.000 C 
ATOM     28  C   UNL     1       4.511   6.678  17.210  0.00  0.00    +0.000 C 
ENDBRANCH  17  27
ENDBRANCH   1  19
TORSDOF 3
ENDMDL
MODEL 9
REMARK VINA RESULT:      -7.5      3.647      9.568
REMARK  Name = 
REMARK  4 active torsions:
REMARK  status: ('A' for Active; 'I' for Inactive)
REMARK    1  A    between atoms: C_1  and  C_2
REMARK    2  A    between atoms: C_7  and  C_8
REMARK    3  A    between atoms: N_10  and  C_11
REMARK    4  A    between atoms: C_15  and  C_16
REMARK                            x       y       z     vdW  Elec       q    Type
REMARK                         _______ _______ _______ _____ _____    ______ ____
ROOT
ATOM      1  C   UNL     1       0.565  10.106  19.896  0.00  0.00    +0.000 A 
ATOM      2  C   UNL     1       1.107  10.704  18.756  0.00  0.00    +0.000 A 
ATOM      3  C   UNL     1       1.934   9.989  17.891  0.00  0.00    +0.000 A 
ATOM      4  C   UNL     1       2.271   8.669  18.177  0.00  0.00    +0.000 A 
ATOM      5  C   UNL     1       1.821   8.065  19.356  0.00  0.00    +0.000 A 
ATOM      6  C   UNL     1       0.952   8.793  20.205  0.00  0.00    +0.000 A 
ENDROOT
BRANCH   5   7
ATOM      7  C   UNL     1       2.277   6.708  19.681  0.00  0.00    +0.000 A 
ATOM      8  N   UNL     1       3.237   6.011  19.086  0.00  0.00    +0.000 NA
ATOM      9  C   UNL     1       3.284   4.793  19.729  0.00  0.00    +0.000 A 
ATOM     10  C   UNL     1       4.088   3.664  19.497  0.00  0.00    +0.000 A 
ATOM     11  C   UNL     1       3.887   2.520  20.287  0.00  0.00    +0.000 A 
ATOM     12  C   UNL     1       2.922   2.505  21.298  0.00  0.00    +0.000 A 
ATOM     13  C   UNL     1       2.140   3.632  21.566  0.00  0.00    +0.000 A 
ATOM     14  C   UNL     1       2.352   4.747  20.755  0.00  0.00    +0.000 A 
ATOM     15  N   UNL     1       1.775   5.986  20.740  0.00  0.00    +0.000 N 
ATOM     16  H   UNL     1       1.103   6.325  21.407  0.00  0.00    +0.000 HD
ENDBRANCH   5   7
BRANCH   1  19
ATOM     17  C   UNL     1       0.013  11.857  21.584  0.00  0.00    +0.000 C 
ATOM     18  O   UNL     1       1.110  12.396  21.581  0.00  0.00    +0.000 OA
ATOM     19  N   UNL     1      -0.342  10.792  20.753  0.00  0.00    +0.000 N 
ATOM     20  H   UNL     1      -1.326  10.574  20.654  0.00  0.00    +0.000 HD
BRANCH  17  27
ATOM     21  C   UNL     1      -3.163  16.587  21.771  0.00  0.00    +0.000 C 
ATOM     22  C   UNL     1      -2.069  15.898  22.544  0.00  0.00    +0.000 C 
ATOM     23  O   UNL     1      -1.404  16.509  23.381  0.00  0.00    +0.000 OA
ATOM     24  N   UNL     1      -1.894  14.555  22.295  0.00  0.00    +0.000 N 
ATOM     25  C   UNL     1      -2.569  13.748  21.302  0.00  0.00    +0.000 C 
ATOM     26  C   UNL     1      -2.470  12.345  21.879  0.00  0.00    +0.000 C 
ATOM     27  C   UNL     1      -1.086  12.322  22.537  0.00  0.00    +0.000 C 
ATOM     28  C   UNL     1      -0.874  13.780  22.990  0.00  0.00    +0.000 C 
ENDBRANCH  17  27
ENDBRANCH   1  19
TORSDOF 3
ENDMDL
