MODEL 1
REMARK VINA RESULT:      -9.0      0.000      0.000
REMARK  Name = 
REMARK  6 active torsions:
REMARK  status: ('A' for Active; 'I' for Inactive)
REMARK    1  A    between atoms: C_1  and  C_2
REMARK    2  A    between atoms: C_7  and  S_8
REMARK    3  A    between atoms: S_8  and  N_11
REMARK    4  A    between atoms: N_11  and  C_12
REMARK    5  A    between atoms: C_12  and  C_13
REMARK    6  A    between atoms: C_16  and  C_17
REMARK                            x       y       z     vdW  Elec       q    Type
REMARK                         _______ _______ _______ _____ _____    ______ ____
ROOT
ATOM      1  N   UNL     1       6.287   4.062  18.133  0.00  0.00    +0.000 NA
ATOM      2  H   UNL     1       5.973   3.142  17.817  0.00  0.00    +0.000 HD
ENDROOT
BRANCH   1   3
ATOM      3  S   UNL     1       5.062   5.072  18.654  0.00  0.00    +0.000 S 
ATOM      4  O   UNL     1       4.761   5.973  17.562  0.00  0.00    +0.000 OA
ATOM      5  O   UNL     1       5.426   5.569  19.961  0.00  0.00    +0.000 OA
BRANCH   3  12
ATOM      6  C   UNL     1       1.495   2.642  21.654  0.00  0.00    +0.000 C 
ATOM      7  C   UNL     1       2.069   2.880  20.287  0.00  0.00    +0.000 A 
ATOM      8  C   UNL     1       1.567   2.207  19.165  0.00  0.00    +0.000 A 
ATOM      9  C   UNL     1       2.115   2.436  17.901  0.00  0.00    +0.000 A 
ATOM     10  C   UNL     1       3.168   3.334  17.752  0.00  0.00    +0.000 A 
ATOM     11  F   UNL     1       3.657   3.556  16.525  0.00  0.00    +0.000 F 
ATOM     12  C   UNL     1       3.676   4.001  18.858  0.00  0.00    +0.000 A 
ATOM     13  C   UNL     1       3.134   3.778  20.129  0.00  0.00    +0.000 A 
ENDBRANCH   3  12
ENDBRANCH   1   3
BRANCH   1  14
ATOM     14  C   UNL     1       7.400   4.664  17.389  0.00  0.00    +0.000 C 
BRANCH  14  15
ATOM     15  C   UNL     1       7.106   4.702  15.922  0.00  0.00    +0.000 A 
ATOM     16  N   UNL     1       7.643   5.609  15.091  0.00  0.00    +0.000 NA
ATOM     17  O   UNL     1       7.153   5.223  13.840  0.00  0.00    +0.000 OA
ATOM     18  C   UNL     1       6.391   4.105  14.042  0.00  0.00    +0.000 A 
ATOM     19  N   UNL     1       6.330   3.748  15.306  0.00  0.00    +0.000 NA
BRANCH  18  20
ATOM     20  C   UNL     1       5.826   3.457  12.863  0.00  0.00    +0.000 A 
ATOM     21  C   UNL     1       4.605   3.917  12.338  0.00  0.00    +0.000 A 
ATOM     22  C   UNL     1       4.009   3.291  11.239  0.00  0.00    +0.000 A 
ATOM     23  C   UNL     1       4.630   2.194  10.649  0.00  0.00    +0.000 A 
ATOM     24  C   UNL     1       5.843   1.743  11.155  0.00  0.00    +0.000 A 
ATOM     25  F   UNL     1       6.439   0.685  10.588  0.00  0.00    +0.000 F 
ATOM     26  C   UNL     1       6.446   2.361  12.247  0.00  0.00    +0.000 A 
ENDBRANCH  18  20
ENDBRANCH  14  15
ENDBRANCH   1  14
TORSDOF 5
ENDMDL
MODEL 2
REMARK VINA RESULT:      -8.6      2.986      3.920
REMARK  Name = 
REMARK  6 active torsions:
REMARK  status: ('A' for Active; 'I' for Inactive)
REMARK    1  A    between atoms: C_1  and  C_2
REMARK    2  A    between atoms: C_7  and  S_8
REMARK    3  A    between atoms: S_8  and  N_11
REMARK    4  A    between atoms: N_11  and  C_12
REMARK    5  A    between atoms: C_12  and  C_13
REMARK    6  A    between atoms: C_16  and  C_17
REMARK                            x       y       z     vdW  Elec       q    Type
REMARK                         _______ _______ _______ _____ _____    ______ ____
ROOT
ATOM      1  N   UNL     1       4.487   3.384  19.340  0.00  0.00    +0.000 NA
ATOM      2  H   UNL     1       4.946   2.505  19.092  0.00  0.00    +0.000 HD
ENDROOT
BRANCH   1   3
ATOM      3  S   UNL     1       2.906   3.513  18.813  0.00  0.00    +0.000 S 
ATOM      4  O   UNL     1       2.114   2.610  19.621  0.00  0.00    +0.000 OA
ATOM      5  O   UNL     1       2.913   3.423  17.371  0.00  0.00    +0.000 OA
BRANCH   3  12
ATOM      6  C   UNL     1       2.334   8.609  17.657  0.00  0.00    +0.000 C 
ATOM      7  C   UNL     1       2.221   7.506  18.670  0.00  0.00    +0.000 A 
ATOM      8  C   UNL     1       1.815   7.771  19.985  0.00  0.00    +0.000 A 
ATOM      9  C   UNL     1       1.720   6.734  20.917  0.00  0.00    +0.000 A 
ATOM     10  C   UNL     1       2.032   5.431  20.540  0.00  0.00    +0.000 A 
ATOM     11  F   UNL     1       1.906   4.451  21.445  0.00  0.00    +0.000 F 
ATOM     12  C   UNL     1       2.440   5.159  19.241  0.00  0.00    +0.000 A 
ATOM     13  C   UNL     1       2.539   6.191  18.301  0.00  0.00    +0.000 A 
ENDBRANCH   3  12
ENDBRANCH   1   3
BRANCH   1  14
ATOM     14  C   UNL     1       5.321   4.591  19.304  0.00  0.00    +0.000 C 
BRANCH  14  15
ATOM     15  C   UNL     1       6.188   4.607  18.084  0.00  0.00    +0.000 A 
ATOM     16  N   UNL     1       7.518   4.435  18.130  0.00  0.00    +0.000 NA
ATOM     17  O   UNL     1       7.887   4.455  16.781  0.00  0.00    +0.000 OA
ATOM     18  C   UNL     1       6.736   4.611  16.059  0.00  0.00    +0.000 A 
ATOM     19  N   UNL     1       5.665   4.712  16.817  0.00  0.00    +0.000 NA
BRANCH  18  20
ATOM     20  C   UNL     1       6.848   4.582  14.605  0.00  0.00    +0.000 A 
ATOM     21  C   UNL     1       6.182   3.579  13.877  0.00  0.00    +0.000 A 
ATOM     22  C   UNL     1       6.305   3.491  12.487  0.00  0.00    +0.000 A 
ATOM     23  C   UNL     1       7.097   4.411  11.805  0.00  0.00    +0.000 A 
ATOM     24  C   UNL     1       7.747   5.412  12.516  0.00  0.00    +0.000 A 
ATOM     25  F   UNL     1       8.511   6.295  11.859  0.00  0.00    +0.000 F 
ATOM     26  C   UNL     1       7.629   5.509  13.900  0.00  0.00    +0.000 A 
ENDBRANCH  18  20
ENDBRANCH  14  15
ENDBRANCH   1  14
TORSDOF 5
ENDMDL
MODEL 3
REMARK VINA RESULT:      -8.4      3.418      4.076
REMARK  Name = 
REMARK  6 active torsions:
REMARK  status: ('A' for Active; 'I' for Inactive)
REMARK    1  A    between atoms: C_1  and  C_2
REMARK    2  A    between atoms: C_7  and  S_8
REMARK    3  A    between atoms: S_8  and  N_11
REMARK    4  A    between atoms: N_11  and  C_12
REMARK    5  A    between atoms: C_12  and  C_13
REMARK    6  A    between atoms: C_16  and  C_17
REMARK                            x       y       z     vdW  Elec       q    Type
REMARK                         _______ _______ _______ _____ _____    ______ ____
ROOT
ATOM      1  N   UNL     1       4.396   5.835  19.635  0.00  0.00    +0.000 NA
ATOM      2  H   UNL     1       4.748   6.467  20.357  0.00  0.00    +0.000 HD
ENDROOT
BRANCH   1   3
ATOM      3  S   UNL     1       2.743   5.589  19.674  0.00  0.00    +0.000 S 
ATOM      4  O   UNL     1       2.439   4.950  20.936  0.00  0.00    +0.000 OA
ATOM      5  O   UNL     1       2.356   4.992  18.416  0.00  0.00    +0.000 OA
BRANCH   3  12
ATOM      6  C   UNL     1       0.009   9.394  22.058  0.00  0.00    +0.000 C 
ATOM      7  C   UNL     1       0.772   8.930  20.850  0.00  0.00    +0.000 A 
ATOM      8  C   UNL     1       0.899   9.747  19.718  0.00  0.00    +0.000 A 
ATOM      9  C   UNL     1       1.608   9.299  18.600  0.00  0.00    +0.000 A 
ATOM     10  C   UNL     1       2.190   8.035  18.608  0.00  0.00    +0.000 A 
ATOM     11  F   UNL     1       2.888   7.640  17.534  0.00  0.00    +0.000 F 
ATOM     12  C   UNL     1       2.065   7.216  19.722  0.00  0.00    +0.000 A 
ATOM     13  C   UNL     1       1.356   7.656  20.846  0.00  0.00    +0.000 A 
ENDBRANCH   3  12
ENDBRANCH   1   3
BRANCH   1  14
ATOM     14  C   UNL     1       5.250   4.691  19.295  0.00  0.00    +0.000 C 
BRANCH  14  15
ATOM     15  C   UNL     1       6.001   4.941  18.025  0.00  0.00    +0.000 A 
ATOM     16  N   UNL     1       7.192   5.557  17.989  0.00  0.00    +0.000 NA
ATOM     17  O   UNL     1       7.536   5.504  16.635  0.00  0.00    +0.000 OA
ATOM     18  C   UNL     1       6.527   4.837  15.997  0.00  0.00    +0.000 A 
ATOM     19  N   UNL     1       5.559   4.473  16.810  0.00  0.00    +0.000 NA
BRANCH  18  20
ATOM     20  C   UNL     1       6.690   4.580  14.570  0.00  0.00    +0.000 A 
ATOM     21  C   UNL     1       7.654   5.300  13.842  0.00  0.00    +0.000 A 
ATOM     22  C   UNL     1       7.807   5.116  12.464  0.00  0.00    +0.000 A 
ATOM     23  C   UNL     1       6.994   4.204  11.796  0.00  0.00    +0.000 A 
ATOM     24  C   UNL     1       6.049   3.480  12.512  0.00  0.00    +0.000 A 
ATOM     25  F   UNL     1       5.266   2.604  11.868  0.00  0.00    +0.000 F 
ATOM     26  C   UNL     1       5.891   3.655  13.884  0.00  0.00    +0.000 A 
ENDBRANCH  18  20
ENDBRANCH  14  15
ENDBRANCH   1  14
TORSDOF 5
ENDMDL
MODEL 4
REMARK VINA RESULT:      -8.3      4.634      7.092
REMARK  Name = 
REMARK  6 active torsions:
REMARK  status: ('A' for Active; 'I' for Inactive)
REMARK    1  A    between atoms: C_1  and  C_2
REMARK    2  A    between atoms: C_7  and  S_8
REMARK    3  A    between atoms: S_8  and  N_11
REMARK    4  A    between atoms: N_11  and  C_12
REMARK    5  A    between atoms: C_12  and  C_13
REMARK    6  A    between atoms: C_16  and  C_17
REMARK                            x       y       z     vdW  Elec       q    Type
REMARK                         _______ _______ _______ _____ _____    ______ ____
ROOT
ATOM      1  N   UNL     1       5.833   5.290  18.707  0.00  0.00    +0.000 NA
ATOM      2  H   UNL     1       5.611   4.903  19.627  0.00  0.00    +0.000 HD
ENDROOT
BRANCH   1   3
ATOM      3  S   UNL     1       4.786   4.829  17.489  0.00  0.00    +0.000 S 
ATOM      4  O   UNL     1       5.460   3.811  16.713  0.00  0.00    +0.000 OA
ATOM      5  O   UNL     1       4.272   6.029  16.871  0.00  0.00    +0.000 OA
BRANCH   3  12
ATOM      6  C   UNL     1       2.299   3.429  21.904  0.00  0.00    +0.000 C 
ATOM      7  C   UNL     1       2.354   3.405  20.403  0.00  0.00    +0.000 A 
ATOM      8  C   UNL     1       1.392   2.712  19.655  0.00  0.00    +0.000 A 
ATOM      9  C   UNL     1       1.460   2.696  18.260  0.00  0.00    +0.000 A 
ATOM     10  C   UNL     1       2.489   3.368  17.607  0.00  0.00    +0.000 A 
ATOM     11  F   UNL     1       2.516   3.360  16.268  0.00  0.00    +0.000 F 
ATOM     12  C   UNL     1       3.450   4.054  18.339  0.00  0.00    +0.000 A 
ATOM     13  C   UNL     1       3.390   4.075  19.737  0.00  0.00    +0.000 A 
ENDBRANCH   3  12
ENDBRANCH   1   3
BRANCH   1  14
ATOM     14  C   UNL     1       7.257   5.411  18.376  0.00  0.00    +0.000 C 
BRANCH  14  15
ATOM     15  C   UNL     1       7.617   6.829  18.062  0.00  0.00    +0.000 A 
ATOM     16  N   UNL     1       7.093   7.505  17.027  0.00  0.00    +0.000 NA
ATOM     17  O   UNL     1       7.651   8.779  17.166  0.00  0.00    +0.000 OA
ATOM     18  C   UNL     1       8.434   8.748  18.286  0.00  0.00    +0.000 A 
ATOM     19  N   UNL     1       8.447   7.570  18.870  0.00  0.00    +0.000 NA
BRANCH  18  20
ATOM     20  C   UNL     1       9.071   9.996  18.694  0.00  0.00    +0.000 A 
ATOM     21  C   UNL     1       9.229  10.279  20.063  0.00  0.00    +0.000 A 
ATOM     22  C   UNL     1       9.791  11.485  20.492  0.00  0.00    +0.000 A 
ATOM     23  C   UNL     1      10.204  12.426  19.554  0.00  0.00    +0.000 A 
ATOM     24  C   UNL     1      10.062  12.148  18.200  0.00  0.00    +0.000 A 
ATOM     25  F   UNL     1      10.458  13.056  17.297  0.00  0.00    +0.000 F 
ATOM     26  C   UNL     1       9.506  10.949  17.763  0.00  0.00    +0.000 A 
ENDBRANCH  18  20
ENDBRANCH  14  15
ENDBRANCH   1  14
TORSDOF 5
ENDMDL
MODEL 5
REMARK VINA RESULT:      -8.3      4.842      7.414
REMARK  Name = 
REMARK  6 active torsions:
REMARK  status: ('A' for Active; 'I' for Inactive)
REMARK    1  A    between atoms: C_1  and  C_2
REMARK    2  A    between atoms: C_7  and  S_8
REMARK    3  A    between atoms: S_8  and  N_11
REMARK    4  A    between atoms: N_11  and  C_12
REMARK    5  A    between atoms: C_12  and  C_13
REMARK    6  A    between atoms: C_16  and  C_17
REMARK                            x       y       z     vdW  Elec       q    Type
REMARK                         _______ _______ _______ _____ _____    ______ ____
ROOT
ATOM      1  N   UNL     1       5.908   4.760  17.453  0.00  0.00    +0.000 NA
ATOM      2  H   UNL     1       5.479   5.372  16.755  0.00  0.00    +0.000 HD
ENDROOT
BRANCH   1   3
ATOM      3  S   UNL     1       4.819   3.974  18.448  0.00  0.00    +0.000 S 
ATOM      4  O   UNL     1       5.539   3.588  19.643  0.00  0.00    +0.000 OA
ATOM      5  O   UNL     1       4.113   3.001  17.648  0.00  0.00    +0.000 OA
BRANCH   3  12
ATOM      6  C   UNL     1       2.536   8.650  17.704  0.00  0.00    +0.000 C 
ATOM      7  C   UNL     1       2.662   7.405  18.534  0.00  0.00    +0.000 A 
ATOM      8  C   UNL     1       1.925   7.247  19.716  0.00  0.00    +0.000 A 
ATOM      9  C   UNL     1       2.058   6.084  20.479  0.00  0.00    +0.000 A 
ATOM     10  C   UNL     1       2.927   5.078  20.068  0.00  0.00    +0.000 A 
ATOM     11  F   UNL     1       3.015   3.962  20.804  0.00  0.00    +0.000 F 
ATOM     12  C   UNL     1       3.666   5.228  18.902  0.00  0.00    +0.000 A 
ATOM     13  C   UNL     1       3.540   6.390  18.131  0.00  0.00    +0.000 A 
ENDBRANCH   3  12
ENDBRANCH   1   3
BRANCH   1  14
ATOM     14  C   UNL     1       7.166   5.226  18.047  0.00  0.00    +0.000 C 
BRANCH  14  15
ATOM     15  C   UNL     1       7.380   6.682  17.776  0.00  0.00    +0.000 A 
ATOM     16  N   UNL     1       6.698   7.360  16.840  0.00  0.00    +0.000 NA
ATOM     17  O   UNL     1       7.168   8.668  16.990  0.00  0.00    +0.000 OA
ATOM     18  C   UNL     1       8.068   8.649  18.020  0.00  0.00    +0.000 A 
ATOM     19  N   UNL     1       8.233   7.449  18.533  0.00  0.00    +0.000 NA
BRANCH  18  20
ATOM     20  C   UNL     1       8.648   9.924  18.427  0.00  0.00    +0.000 A 
ATOM     21  C   UNL     1       8.614  11.016  17.541  0.00  0.00    +0.000 A 
ATOM     22  C   UNL     1       9.202  12.239  17.877  0.00  0.00    +0.000 A 
ATOM     23  C   UNL     1       9.832  12.386  19.110  0.00  0.00    +0.000 A 
ATOM     24  C   UNL     1       9.858  11.316  19.995  0.00  0.00    +0.000 A 
ATOM     25  F   UNL     1      10.468  11.457  21.180  0.00  0.00    +0.000 F 
ATOM     26  C   UNL     1       9.274  10.094  19.670  0.00  0.00    +0.000 A 
ENDBRANCH  18  20
ENDBRANCH  14  15
ENDBRANCH   1  14
TORSDOF 5
ENDMDL
MODEL 6
REMARK VINA RESULT:      -8.2      5.494      9.303
REMARK  Name = 
REMARK  6 active torsions:
REMARK  status: ('A' for Active; 'I' for Inactive)
REMARK    1  A    between atoms: C_1  and  C_2
REMARK    2  A    between atoms: C_7  and  S_8
REMARK    3  A    between atoms: S_8  and  N_11
REMARK    4  A    between atoms: N_11  and  C_12
REMARK    5  A    between atoms: C_12  and  C_13
REMARK    6  A    between atoms: C_16  and  C_17
REMARK                            x       y       z     vdW  Elec       q    Type
REMARK                         _______ _______ _______ _____ _____    ______ ____
ROOT
ATOM      1  N   UNL     1       2.938   5.739  18.980  0.00  0.00    +0.000 NA
ATOM      2  H   UNL     1       3.267   5.906  19.934  0.00  0.00    +0.000 HD
ENDROOT
BRANCH   1   3
ATOM      3  S   UNL     1       3.262   4.207  18.394  0.00  0.00    +0.000 S 
ATOM      4  O   UNL     1       2.257   3.914  17.395  0.00  0.00    +0.000 OA
ATOM      5  O   UNL     1       3.472   3.337  19.528  0.00  0.00    +0.000 OA
BRANCH   3  12
ATOM      6  C   UNL     1       6.242   3.956  14.071  0.00  0.00    +0.000 C 
ATOM      7  C   UNL     1       6.146   4.221  15.546  0.00  0.00    +0.000 A 
ATOM      8  C   UNL     1       7.286   4.539  16.299  0.00  0.00    +0.000 A 
ATOM      9  C   UNL     1       7.180   4.778  17.672  0.00  0.00    +0.000 A 
ATOM     10  C   UNL     1       5.940   4.699  18.298  0.00  0.00    +0.000 A 
ATOM     11  F   UNL     1       5.862   4.960  19.609  0.00  0.00    +0.000 F 
ATOM     12  C   UNL     1       4.806   4.380  17.562  0.00  0.00    +0.000 A 
ATOM     13  C   UNL     1       4.902   4.138  16.186  0.00  0.00    +0.000 A 
ENDBRANCH   3  12
ENDBRANCH   1   3
BRANCH   1  14
ATOM     14  C   UNL     1       3.044   6.865  18.045  0.00  0.00    +0.000 C 
BRANCH  14  15
ATOM     15  C   UNL     1       2.272   8.048  18.540  0.00  0.00    +0.000 A 
ATOM     16  N   UNL     1       1.882   9.053  17.742  0.00  0.00    +0.000 NA
ATOM     17  O   UNL     1       1.149   9.875  18.603  0.00  0.00    +0.000 OA
ATOM     18  C   UNL     1       1.149   9.266  19.827  0.00  0.00    +0.000 A 
ATOM     19  N   UNL     1       1.830   8.140  19.839  0.00  0.00    +0.000 NA
BRANCH  18  20
ATOM     20  C   UNL     1       0.374   9.896  20.890  0.00  0.00    +0.000 A 
ATOM     21  C   UNL     1       0.282   9.270  22.146  0.00  0.00    +0.000 A 
ATOM     22  C   UNL     1      -0.491   9.819  23.174  0.00  0.00    +0.000 A 
ATOM     23  C   UNL     1      -1.183  11.007  22.957  0.00  0.00    +0.000 A 
ATOM     24  C   UNL     1      -1.086  11.638  21.723  0.00  0.00    +0.000 A 
ATOM     25  F   UNL     1      -1.755  12.780  21.514  0.00  0.00    +0.000 F 
ATOM     26  C   UNL     1      -0.317  11.100  20.694  0.00  0.00    +0.000 A 
ENDBRANCH  18  20
ENDBRANCH  14  15
ENDBRANCH   1  14
TORSDOF 5
ENDMDL
MODEL 7
REMARK VINA RESULT:      -8.2      2.929      3.698
REMARK  Name = 
REMARK  6 active torsions:
REMARK  status: ('A' for Active; 'I' for Inactive)
REMARK    1  A    between atoms: C_1  and  C_2
REMARK    2  A    between atoms: C_7  and  S_8
REMARK    3  A    between atoms: S_8  and  N_11
REMARK    4  A    between atoms: N_11  and  C_12
REMARK    5  A    between atoms: C_12  and  C_13
REMARK    6  A    between atoms: C_16  and  C_17
REMARK                            x       y       z     vdW  Elec       q    Type
REMARK                         _______ _______ _______ _____ _____    ______ ____
ROOT
ATOM      1  N   UNL     1       4.018   3.240  19.073  0.00  0.00    +0.000 NA
ATOM      2  H   UNL     1       4.045   2.796  18.152  0.00  0.00    +0.000 HD
ENDROOT
BRANCH   1   3
ATOM      3  S   UNL     1       2.482   3.605  19.621  0.00  0.00    +0.000 S 
ATOM      4  O   UNL     1       2.466   3.345  21.044  0.00  0.00    +0.000 OA
ATOM      5  O   UNL     1       1.535   2.974  18.731  0.00  0.00    +0.000 OA
BRANCH   3  12
ATOM      6  C   UNL     1       1.482   8.440  21.426  0.00  0.00    +0.000 C 
ATOM      7  C   UNL     1       1.846   7.556  20.268  0.00  0.00    +0.000 A 
ATOM      8  C   UNL     1       2.014   8.084  18.980  0.00  0.00    +0.000 A 
ATOM      9  C   UNL     1       2.348   7.247  17.912  0.00  0.00    +0.000 A 
ATOM     10  C   UNL     1       2.514   5.882  18.125  0.00  0.00    +0.000 A 
ATOM     11  F   UNL     1       2.862   5.106  17.090  0.00  0.00    +0.000 F 
ATOM     12  C   UNL     1       2.345   5.348  19.396  0.00  0.00    +0.000 A 
ATOM     13  C   UNL     1       2.009   6.179  20.471  0.00  0.00    +0.000 A 
ENDBRANCH   3  12
ENDBRANCH   1   3
BRANCH   1  14
ATOM     14  C   UNL     1       5.095   4.190  19.372  0.00  0.00    +0.000 C 
BRANCH  14  15
ATOM     15  C   UNL     1       5.966   4.409  18.175  0.00  0.00    +0.000 A 
ATOM     16  N   UNL     1       7.293   4.591  18.259  0.00  0.00    +0.000 NA
ATOM     17  O   UNL     1       7.686   4.681  16.920  0.00  0.00    +0.000 OA
ATOM     18  C   UNL     1       6.557   4.517  16.165  0.00  0.00    +0.000 A 
ATOM     19  N   UNL     1       5.474   4.350  16.892  0.00  0.00    +0.000 NA
BRANCH  18  20
ATOM     20  C   UNL     1       6.718   4.492  14.715  0.00  0.00    +0.000 A 
ATOM     21  C   UNL     1       6.035   3.522  13.959  0.00  0.00    +0.000 A 
ATOM     22  C   UNL     1       6.202   3.436  12.573  0.00  0.00    +0.000 A 
ATOM     23  C   UNL     1       7.057   4.324  11.925  0.00  0.00    +0.000 A 
ATOM     24  C   UNL     1       7.724   5.292  12.664  0.00  0.00    +0.000 A 
ATOM     25  F   UNL     1       8.549   6.144  12.040  0.00  0.00    +0.000 F 
ATOM     26  C   UNL     1       7.563   5.387  14.044  0.00  0.00    +0.000 A 
ENDBRANCH  18  20
ENDBRANCH  14  15
ENDBRANCH   1  14
TORSDOF 5
ENDMDL
MODEL 8
REMARK VINA RESULT:      -8.2      4.939      7.501
REMARK  Name = 
REMARK  6 active torsions:
REMARK  status: ('A' for Active; 'I' for Inactive)
REMARK    1  A    between atoms: C_1  and  C_2
REMARK    2  A    between atoms: C_7  and  S_8
REMARK    3  A    between atoms: S_8  and  N_11
REMARK    4  A    between atoms: N_11  and  C_12
REMARK    5  A    between atoms: C_12  and  C_13
REMARK    6  A    between atoms: C_16  and  C_17
REMARK                            x       y       z     vdW  Elec       q    Type
REMARK                         _______ _______ _______ _____ _____    ______ ____
ROOT
ATOM      1  N   UNL     1       6.298   5.037  19.142  0.00  0.00    +0.000 NA
ATOM      2  H   UNL     1       6.523   4.705  20.082  0.00  0.00    +0.000 HD
ENDROOT
BRANCH   1   3
ATOM      3  S   UNL     1       4.906   4.380  18.490  0.00  0.00    +0.000 S 
ATOM      4  O   UNL     1       4.642   3.150  19.205  0.00  0.00    +0.000 OA
ATOM      5  O   UNL     1       5.040   4.401  17.052  0.00  0.00    +0.000 OA
BRANCH   3  12
ATOM      6  C   UNL     1       2.276   8.869  17.735  0.00  0.00    +0.000 C 
ATOM      7  C   UNL     1       2.477   7.625  18.552  0.00  0.00    +0.000 A 
ATOM      8  C   UNL     1       1.719   7.389  19.708  0.00  0.00    +0.000 A 
ATOM      9  C   UNL     1       1.922   6.230  20.460  0.00  0.00    +0.000 A 
ATOM     10  C   UNL     1       2.882   5.303  20.064  0.00  0.00    +0.000 A 
ATOM     11  F   UNL     1       3.037   4.186  20.787  0.00  0.00    +0.000 F 
ATOM     12  C   UNL     1       3.642   5.530  18.924  0.00  0.00    +0.000 A 
ATOM     13  C   UNL     1       3.446   6.690  18.164  0.00  0.00    +0.000 A 
ENDBRANCH   3  12
ENDBRANCH   1   3
BRANCH   1  14
ATOM     14  C   UNL     1       7.433   5.267  18.240  0.00  0.00    +0.000 C 
BRANCH  14  15
ATOM     15  C   UNL     1       7.615   6.727  17.970  0.00  0.00    +0.000 A 
ATOM     16  N   UNL     1       6.912   7.393  17.041  0.00  0.00    +0.000 NA
ATOM     17  O   UNL     1       7.357   8.710  17.189  0.00  0.00    +0.000 OA
ATOM     18  C   UNL     1       8.265   8.707  18.212  0.00  0.00    +0.000 A 
ATOM     19  N   UNL     1       8.459   7.510  18.721  0.00  0.00    +0.000 NA
BRANCH  18  20
ATOM     20  C   UNL     1       8.823   9.993  18.617  0.00  0.00    +0.000 A 
ATOM     21  C   UNL     1       9.333  10.148  19.918  0.00  0.00    +0.000 A 
ATOM     22  C   UNL     1       9.832  11.379  20.358  0.00  0.00    +0.000 A 
ATOM     23  C   UNL     1       9.826  12.473  19.497  0.00  0.00    +0.000 A 
ATOM     24  C   UNL     1       9.335  12.323  18.206  0.00  0.00    +0.000 A 
ATOM     25  F   UNL     1       9.328  13.377  17.379  0.00  0.00    +0.000 F 
ATOM     26  C   UNL     1       8.839  11.101  17.758  0.00  0.00    +0.000 A 
ENDBRANCH  18  20
ENDBRANCH  14  15
ENDBRANCH   1  14
TORSDOF 5
ENDMDL
MODEL 9
REMARK VINA RESULT:      -8.2      1.747      2.253
REMARK  Name = 
REMARK  6 active torsions:
REMARK  status: ('A' for Active; 'I' for Inactive)
REMARK    1  A    between atoms: C_1  and  C_2
REMARK    2  A    between atoms: C_7  and  S_8
REMARK    3  A    between atoms: S_8  and  N_11
REMARK    4  A    between atoms: N_11  and  C_12
REMARK    5  A    between atoms: C_12  and  C_13
REMARK    6  A    between atoms: C_16  and  C_17
REMARK                            x       y       z     vdW  Elec       q    Type
REMARK                         _______ _______ _______ _____ _____    ______ ____
ROOT
ATOM      1  N   UNL     1       4.700   6.056  19.593  0.00  0.00    +0.000 NA
ATOM      2  H   UNL     1       4.832   6.324  20.571  0.00  0.00    +0.000 HD
ENDROOT
BRANCH   1   3
ATOM      3  S   UNL     1       3.133   6.219  19.034  0.00  0.00    +0.000 S 
ATOM      4  O   UNL     1       3.214   6.472  17.612  0.00  0.00    +0.000 OA
ATOM      5  O   UNL     1       2.441   7.126  19.921  0.00  0.00    +0.000 OA
BRANCH   3  12
ATOM      6  C   UNL     1       1.254   2.366  22.075  0.00  0.00    +0.000 C 
ATOM      7  C   UNL     1       1.596   2.858  20.698  0.00  0.00    +0.000 A 
ATOM      8  C   UNL     1       1.430   2.036  19.575  0.00  0.00    +0.000 A 
ATOM      9  C   UNL     1       1.758   2.508  18.301  0.00  0.00    +0.000 A 
ATOM     10  C   UNL     1       2.254   3.799  18.145  0.00  0.00    +0.000 A 
ATOM     11  F   UNL     1       2.534   4.236  16.910  0.00  0.00    +0.000 F 
ATOM     12  C   UNL     1       2.427   4.619  19.252  0.00  0.00    +0.000 A 
ATOM     13  C   UNL     1       2.102   4.155  20.532  0.00  0.00    +0.000 A 
ENDBRANCH   3  12
ENDBRANCH   1   3
BRANCH   1  14
ATOM     14  C   UNL     1       5.479   4.906  19.120  0.00  0.00    +0.000 C 
BRANCH  14  15
ATOM     15  C   UNL     1       6.098   5.189  17.787  0.00  0.00    +0.000 A 
ATOM     16  N   UNL     1       7.104   6.062  17.618  0.00  0.00    +0.000 NA
ATOM     17  O   UNL     1       7.397   5.947  16.256  0.00  0.00    +0.000 OA
ATOM     18  C   UNL     1       6.555   4.997  15.749  0.00  0.00    +0.000 A 
ATOM     19  N   UNL     1       5.735   4.504  16.652  0.00  0.00    +0.000 NA
BRANCH  18  20
ATOM     20  C   UNL     1       6.719   4.636  14.345  0.00  0.00    +0.000 A 
ATOM     21  C   UNL     1       7.677   5.307  13.564  0.00  0.00    +0.000 A 
ATOM     22  C   UNL     1       7.831   5.021  12.204  0.00  0.00    +0.000 A 
ATOM     23  C   UNL     1       7.025   4.056  11.606  0.00  0.00    +0.000 A 
ATOM     24  C   UNL     1       6.086   3.380  12.375  0.00  0.00    +0.000 A 
ATOM     25  F   UNL     1       5.309   2.452  11.799  0.00  0.00    +0.000 F 
ATOM     26  C   UNL     1       5.927   3.656  13.731  0.00  0.00    +0.000 A 
ENDBRANCH  18  20
ENDBRANCH  14  15
ENDBRANCH   1  14
TORSDOF 5
ENDMDL
