MODEL 1
REMARK VINA RESULT:      -9.5      0.000      0.000
REMARK  Name = 
REMARK  3 active torsions:
REMARK  status: ('A' for Active; 'I' for Inactive)
REMARK    1  A    between atoms: C_1  and  C_2
REMARK    2  A    between atoms: N_16  and  C_17
REMARK    3  A    between atoms: C_17  and  C_18
REMARK                            x       y       z     vdW  Elec       q    Type
REMARK                         _______ _______ _______ _____ _____    ______ ____
ROOT
ATOM      1  C   UNL     1       2.306   4.872  20.253  0.00  0.00    +0.000 C 
ATOM      2  C   UNL     1       2.771   5.083  18.777  0.00  0.00    +0.000 C 
ATOM      3  C   UNL     1       1.690   4.575  17.806  0.00  0.00    +0.000 C 
ATOM      4  C   UNL     1       1.778   3.050  17.974  0.00  0.00    +0.000 C 
ATOM      5  C   UNL     1       3.196   2.831  18.458  0.00  0.00    +0.000 C 
ATOM      6  O   UNL     1       3.695   1.745  18.723  0.00  0.00    +0.000 OA
ATOM      7  N   UNL     1       3.825   4.097  18.486  0.00  0.00    +0.000 N 
ATOM      8  C   UNL     1       4.643   4.383  17.342  0.00  0.00    +0.000 A 
ATOM      9  C   UNL     1       5.086   3.355  16.491  0.00  0.00    +0.000 A 
ATOM     10  C   UNL     1       5.637   3.650  15.245  0.00  0.00    +0.000 A 
ATOM     11  C   UNL     1       5.844   4.974  14.873  0.00  0.00    +0.000 A 
ATOM     12  C   UNL     1       5.479   6.003  15.738  0.00  0.00    +0.000 A 
ATOM     13  C   UNL     1       4.846   5.706  16.952  0.00  0.00    +0.000 A 
ATOM     14  C   UNL     1       4.258   6.803  17.739  0.00  0.00    +0.000 C 
ATOM     15  O   UNL     1       4.688   7.949  17.614  0.00  0.00    +0.000 OA
ATOM     16  N   UNL     1       3.178   6.489  18.549  0.00  0.00    +0.000 N 
ENDROOT
BRANCH  16  17
ATOM     17  C   UNL     1       2.566   7.596  19.311  0.00  0.00    +0.000 C 
BRANCH  17  18
ATOM     18  C   UNL     1       1.565   8.531  18.600  0.00  0.00    +0.000 C 
ATOM     19  O   UNL     1       1.467   8.477  17.375  0.00  0.00    +0.000 OA
ATOM     20  N   UNL     1       0.821   9.330  19.448  0.00  0.00    +0.000 N 
ATOM     21  C   UNL     1      -0.313  10.069  19.069  0.00  0.00    +0.000 A 
ATOM     22  C   UNL     1      -0.881  10.928  20.002  0.00  0.00    +0.000 A 
ATOM     23  C   UNL     1      -2.050  11.614  19.666  0.00  0.00    +0.000 A 
ATOM     24  C   UNL     1      -2.665  11.379  18.431  0.00  0.00    +0.000 A 
ATOM     25  C   UNL     1      -3.907  11.945  18.087  0.00  0.00    +0.000 A 
ATOM     26  C   UNL     1      -4.516  11.624  16.873  0.00  0.00    +0.000 A 
ATOM     27  C   UNL     1      -3.860  10.784  15.981  0.00  0.00    +0.000 A 
ATOM     28  C   UNL     1      -2.613  10.251  16.315  0.00  0.00    +0.000 A 
ATOM     29  C   UNL     1      -2.013  10.506  17.541  0.00  0.00    +0.000 A 
ATOM     30  N   UNL     1      -0.866   9.881  17.857  0.00  0.00    +0.000 NA
ATOM     31  H   UNL     1       1.137   9.397  20.414  0.00  0.00    +0.000 HD
ENDBRANCH  17  18
ENDBRANCH  16  17
TORSDOF 2
ENDMDL
MODEL 2
REMARK VINA RESULT:      -9.0      2.358      8.828
REMARK  Name = 
REMARK  3 active torsions:
REMARK  status: ('A' for Active; 'I' for Inactive)
REMARK    1  A    between atoms: C_1  and  C_2
REMARK    2  A    between atoms: N_16  and  C_17
REMARK    3  A    between atoms: C_17  and  C_18
REMARK                            x       y       z     vdW  Elec       q    Type
REMARK                         _______ _______ _______ _____ _____    ______ ____
ROOT
ATOM      1  C   UNL     1      -0.713  11.653  21.502  0.00  0.00    +0.000 C 
ATOM      2  C   UNL     1      -1.091  11.777  19.992  0.00  0.00    +0.000 C 
ATOM      3  C   UNL     1      -1.060  13.255  19.560  0.00  0.00    +0.000 C 
ATOM      4  C   UNL     1      -2.294  13.837  20.267  0.00  0.00    +0.000 C 
ATOM      5  C   UNL     1      -3.190  12.632  20.460  0.00  0.00    +0.000 C 
ATOM      6  O   UNL     1      -4.292  12.644  20.994  0.00  0.00    +0.000 OA
ATOM      7  N   UNL     1      -2.537  11.529  19.862  0.00  0.00    +0.000 N 
ATOM      8  C   UNL     1      -2.995  11.208  18.541  0.00  0.00    +0.000 A 
ATOM      9  C   UNL     1      -4.230  11.683  18.064  0.00  0.00    +0.000 A 
ATOM     10  C   UNL     1      -4.547  11.609  16.709  0.00  0.00    +0.000 A 
ATOM     11  C   UNL     1      -3.681  10.971  15.827  0.00  0.00    +0.000 A 
ATOM     12  C   UNL     1      -2.487  10.428  16.298  0.00  0.00    +0.000 A 
ATOM     13  C   UNL     1      -2.131  10.581  17.644  0.00  0.00    +0.000 A 
ATOM     14  C   UNL     1      -0.770  10.212  18.069  0.00  0.00    +0.000 C 
ATOM     15  O   UNL     1      -0.127   9.385  17.425  0.00  0.00    +0.000 OA
ATOM     16  N   UNL     1      -0.248  10.886  19.162  0.00  0.00    +0.000 N 
ENDROOT
BRANCH  16  17
ATOM     17  C   UNL     1       1.130  10.542  19.566  0.00  0.00    +0.000 C 
BRANCH  17  18
ATOM     18  C   UNL     1       1.471   9.072  19.891  0.00  0.00    +0.000 C 
ATOM     19  O   UNL     1       1.034   8.575  20.928  0.00  0.00    +0.000 OA
ATOM     20  N   UNL     1       2.221   8.428  18.926  0.00  0.00    +0.000 N 
ATOM     21  C   UNL     1       2.442   7.041  18.870  0.00  0.00    +0.000 A 
ATOM     22  C   UNL     1       3.325   6.552  17.915  0.00  0.00    +0.000 A 
ATOM     23  C   UNL     1       3.499   5.171  17.798  0.00  0.00    +0.000 A 
ATOM     24  C   UNL     1       2.740   4.304  18.592  0.00  0.00    +0.000 A 
ATOM     25  C   UNL     1       2.781   2.906  18.434  0.00  0.00    +0.000 A 
ATOM     26  C   UNL     1       1.952   2.085  19.199  0.00  0.00    +0.000 A 
ATOM     27  C   UNL     1       1.124   2.655  20.160  0.00  0.00    +0.000 A 
ATOM     28  C   UNL     1       1.112   4.041  20.334  0.00  0.00    +0.000 A 
ATOM     29  C   UNL     1       1.882   4.885  19.544  0.00  0.00    +0.000 A 
ATOM     30  N   UNL     1       1.751   6.215  19.678  0.00  0.00    +0.000 NA
ATOM     31  H   UNL     1       2.660   9.013  18.216  0.00  0.00    +0.000 HD
ENDBRANCH  17  18
ENDBRANCH  16  17
TORSDOF 2
ENDMDL
MODEL 3
REMARK VINA RESULT:      -8.8      1.355      2.898
REMARK  Name = 
REMARK  3 active torsions:
REMARK  status: ('A' for Active; 'I' for Inactive)
REMARK    1  A    between atoms: C_1  and  C_2
REMARK    2  A    between atoms: N_16  and  C_17
REMARK    3  A    between atoms: C_17  and  C_18
REMARK                            x       y       z     vdW  Elec       q    Type
REMARK                         _______ _______ _______ _____ _____    ______ ____
ROOT
ATOM      1  C   UNL     1       4.623   7.164  17.130  0.00  0.00    +0.000 C 
ATOM      2  C   UNL     1       4.224   6.003  18.095  0.00  0.00    +0.000 C 
ATOM      3  C   UNL     1       5.460   5.516  18.872  0.00  0.00    +0.000 C 
ATOM      4  C   UNL     1       6.274   4.791  17.788  0.00  0.00    +0.000 C 
ATOM      5  C   UNL     1       5.226   4.392  16.770  0.00  0.00    +0.000 C 
ATOM      6  O   UNL     1       5.443   3.787  15.728  0.00  0.00    +0.000 OA
ATOM      7  N   UNL     1       3.973   4.801  17.282  0.00  0.00    +0.000 N 
ATOM      8  C   UNL     1       3.223   3.762  17.927  0.00  0.00    +0.000 A 
ATOM      9  C   UNL     1       3.527   2.406  17.711  0.00  0.00    +0.000 A 
ATOM     10  C   UNL     1       2.994   1.417  18.536  0.00  0.00    +0.000 A 
ATOM     11  C   UNL     1       2.075   1.755  19.523  0.00  0.00    +0.000 A 
ATOM     12  C   UNL     1       1.706   3.087  19.699  0.00  0.00    +0.000 A 
ATOM     13  C   UNL     1       2.309   4.089  18.927  0.00  0.00    +0.000 A 
ATOM     14  C   UNL     1       2.085   5.499  19.286  0.00  0.00    +0.000 C 
ATOM     15  O   UNL     1       1.074   5.824  19.908  0.00  0.00    +0.000 OA
ATOM     16  N   UNL     1       3.085   6.400  18.955  0.00  0.00    +0.000 N 
ENDROOT
BRANCH  16  17
ATOM     17  C   UNL     1       2.877   7.809  19.347  0.00  0.00    +0.000 C 
BRANCH  17  18
ATOM     18  C   UNL     1       1.834   8.652  18.584  0.00  0.00    +0.000 C 
ATOM     19  O   UNL     1       1.753   8.536  17.362  0.00  0.00    +0.000 OA
ATOM     20  N   UNL     1       1.037   9.446  19.386  0.00  0.00    +0.000 N 
ATOM     21  C   UNL     1      -0.131  10.104  18.962  0.00  0.00    +0.000 A 
ATOM     22  C   UNL     1      -0.757  10.972  19.849  0.00  0.00    +0.000 A 
ATOM     23  C   UNL     1      -1.958  11.575  19.470  0.00  0.00    +0.000 A 
ATOM     24  C   UNL     1      -2.544  11.250  18.242  0.00  0.00    +0.000 A 
ATOM     25  C   UNL     1      -3.812  11.728  17.860  0.00  0.00    +0.000 A 
ATOM     26  C   UNL     1      -4.388  11.318  16.657  0.00  0.00    +0.000 A 
ATOM     27  C   UNL     1      -3.676  10.476  15.811  0.00  0.00    +0.000 A 
ATOM     28  C   UNL     1      -2.405  10.028  16.182  0.00  0.00    +0.000 A 
ATOM     29  C   UNL     1      -1.835  10.373  17.400  0.00  0.00    +0.000 A 
ATOM     30  N   UNL     1      -0.659   9.829  17.755  0.00  0.00    +0.000 NA
ATOM     31  H   UNL     1       1.337   9.576  20.351  0.00  0.00    +0.000 HD
ENDBRANCH  17  18
ENDBRANCH  16  17
TORSDOF 2
ENDMDL
MODEL 4
REMARK VINA RESULT:      -8.8      2.098      8.986
REMARK  Name = 
REMARK  3 active torsions:
REMARK  status: ('A' for Active; 'I' for Inactive)
REMARK    1  A    between atoms: C_1  and  C_2
REMARK    2  A    between atoms: N_16  and  C_17
REMARK    3  A    between atoms: C_17  and  C_18
REMARK                            x       y       z     vdW  Elec       q    Type
REMARK                         _______ _______ _______ _____ _____    ______ ____
ROOT
ATOM      1  C   UNL     1       0.634  11.852  20.837  0.00  0.00    +0.000 C 
ATOM      2  C   UNL     1      -0.308  11.923  19.595  0.00  0.00    +0.000 C 
ATOM      3  C   UNL     1      -0.345  13.361  19.044  0.00  0.00    +0.000 C 
ATOM      4  C   UNL     1      -1.146  14.112  20.119  0.00  0.00    +0.000 C 
ATOM      5  C   UNL     1      -1.974  13.022  20.766  0.00  0.00    +0.000 C 
ATOM      6  O   UNL     1      -2.764  13.184  21.688  0.00  0.00    +0.000 OA
ATOM      7  N   UNL     1      -1.698  11.823  20.070  0.00  0.00    +0.000 N 
ATOM      8  C   UNL     1      -2.670  11.472  19.075  0.00  0.00    +0.000 A 
ATOM      9  C   UNL     1      -3.954  12.046  19.080  0.00  0.00    +0.000 A 
ATOM     10  C   UNL     1      -4.793  11.923  17.973  0.00  0.00    +0.000 A 
ATOM     11  C   UNL     1      -4.404  11.145  16.889  0.00  0.00    +0.000 A 
ATOM     12  C   UNL     1      -3.165  10.508  16.902  0.00  0.00    +0.000 A 
ATOM     13  C   UNL     1      -2.287  10.704  17.976  0.00  0.00    +0.000 A 
ATOM     14  C   UNL     1      -0.902  10.220  17.864  0.00  0.00    +0.000 C 
ATOM     15  O   UNL     1      -0.633   9.291  17.103  0.00  0.00    +0.000 OA
ATOM     16  N   UNL     1       0.064  10.900  18.591  0.00  0.00    +0.000 N 
ENDROOT
BRANCH  16  17
ATOM     17  C   UNL     1       1.459  10.436  18.451  0.00  0.00    +0.000 C 
BRANCH  17  18
ATOM     18  C   UNL     1       1.815   8.994  18.869  0.00  0.00    +0.000 C 
ATOM     19  O   UNL     1       1.268   8.509  19.859  0.00  0.00    +0.000 OA
ATOM     20  N   UNL     1       2.711   8.356  18.032  0.00  0.00    +0.000 N 
ATOM     21  C   UNL     1       2.995   6.980  18.055  0.00  0.00    +0.000 A 
ATOM     22  C   UNL     1       4.013   6.504  17.239  0.00  0.00    +0.000 A 
ATOM     23  C   UNL     1       4.259   5.129  17.195  0.00  0.00    +0.000 A 
ATOM     24  C   UNL     1       3.440   4.253  17.916  0.00  0.00    +0.000 A 
ATOM     25  C   UNL     1       3.559   2.853  17.814  0.00  0.00    +0.000 A 
ATOM     26  C   UNL     1       2.672   2.019  18.495  0.00  0.00    +0.000 A 
ATOM     27  C   UNL     1       1.704   2.579  19.321  0.00  0.00    +0.000 A 
ATOM     28  C   UNL     1       1.611   3.968  19.442  0.00  0.00    +0.000 A 
ATOM     29  C   UNL     1       2.442   4.822  18.728  0.00  0.00    +0.000 A 
ATOM     30  N   UNL     1       2.239   6.148  18.796  0.00  0.00    +0.000 NA
ATOM     31  H   UNL     1       3.213   8.939  17.364  0.00  0.00    +0.000 HD
ENDBRANCH  17  18
ENDBRANCH  16  17
TORSDOF 2
ENDMDL
MODEL 5
REMARK VINA RESULT:      -8.5      6.993     10.825
REMARK  Name = 
REMARK  3 active torsions:
REMARK  status: ('A' for Active; 'I' for Inactive)
REMARK    1  A    between atoms: C_1  and  C_2
REMARK    2  A    between atoms: N_16  and  C_17
REMARK    3  A    between atoms: C_17  and  C_18
REMARK                            x       y       z     vdW  Elec       q    Type
REMARK                         _______ _______ _______ _____ _____    ______ ____
ROOT
ATOM      1  C   UNL     1      10.420  13.016  17.418  0.00  0.00    +0.000 C 
ATOM      2  C   UNL     1       9.378  13.104  18.578  0.00  0.00    +0.000 C 
ATOM      3  C   UNL     1       7.999  13.500  18.018  0.00  0.00    +0.000 C 
ATOM      4  C   UNL     1       8.204  14.974  17.634  0.00  0.00    +0.000 C 
ATOM      5  C   UNL     1       9.338  15.417  18.534  0.00  0.00    +0.000 C 
ATOM      6  O   UNL     1       9.831  16.539  18.555  0.00  0.00    +0.000 OA
ATOM      7  N   UNL     1       9.667  14.318  19.360  0.00  0.00    +0.000 N 
ATOM      8  C   UNL     1       9.089  14.362  20.672  0.00  0.00    +0.000 A 
ATOM      9  C   UNL     1       8.587  15.564  21.204  0.00  0.00    +0.000 A 
ATOM     10  C   UNL     1       7.785  15.558  22.345  0.00  0.00    +0.000 A 
ATOM     11  C   UNL     1       7.555  14.368  23.025  0.00  0.00    +0.000 A 
ATOM     12  C   UNL     1       8.108  13.179  22.553  0.00  0.00    +0.000 A 
ATOM     13  C   UNL     1       8.840  13.175  21.358  0.00  0.00    +0.000 A 
ATOM     14  C   UNL     1       9.213  11.885  20.754  0.00  0.00    +0.000 C 
ATOM     15  O   UNL     1       9.309  10.880  21.457  0.00  0.00    +0.000 OA
ATOM     16  N   UNL     1       9.371  11.857  19.377  0.00  0.00    +0.000 N 
ENDROOT
BRANCH  16  17
ATOM     17  C   UNL     1       9.710  10.555  18.767  0.00  0.00    +0.000 C 
BRANCH  17  18
ATOM     18  C   UNL     1       8.568   9.618  18.318  0.00  0.00    +0.000 C 
ATOM     19  O   UNL     1       7.698  10.058  17.568  0.00  0.00    +0.000 OA
ATOM     20  N   UNL     1       8.670   8.322  18.785  0.00  0.00    +0.000 N 
ATOM     21  C   UNL     1       7.907   7.236  18.321  0.00  0.00    +0.000 A 
ATOM     22  C   UNL     1       8.029   6.018  18.976  0.00  0.00    +0.000 A 
ATOM     23  C   UNL     1       7.334   4.911  18.482  0.00  0.00    +0.000 A 
ATOM     24  C   UNL     1       6.584   5.028  17.307  0.00  0.00    +0.000 A 
ATOM     25  C   UNL     1       5.965   3.922  16.693  0.00  0.00    +0.000 A 
ATOM     26  C   UNL     1       5.288   4.075  15.482  0.00  0.00    +0.000 A 
ATOM     27  C   UNL     1       5.182   5.339  14.914  0.00  0.00    +0.000 A 
ATOM     28  C   UNL     1       5.773   6.438  15.543  0.00  0.00    +0.000 A 
ATOM     29  C   UNL     1       6.502   6.303  16.717  0.00  0.00    +0.000 A 
ATOM     30  N   UNL     1       7.141   7.371  17.222  0.00  0.00    +0.000 NA
ATOM     31  H   UNL     1       9.337   8.153  19.537  0.00  0.00    +0.000 HD
ENDBRANCH  17  18
ENDBRANCH  16  17
TORSDOF 2
ENDMDL
MODEL 6
REMARK VINA RESULT:      -8.4      3.162      9.201
REMARK  Name = 
REMARK  3 active torsions:
REMARK  status: ('A' for Active; 'I' for Inactive)
REMARK    1  A    between atoms: C_1  and  C_2
REMARK    2  A    between atoms: N_16  and  C_17
REMARK    3  A    between atoms: C_17  and  C_18
REMARK                            x       y       z     vdW  Elec       q    Type
REMARK                         _______ _______ _______ _____ _____    ______ ____
ROOT
ATOM      1  C   UNL     1      -1.827  11.325  19.037  0.00  0.00    +0.000 C 
ATOM      2  C   UNL     1      -0.548  11.968  19.660  0.00  0.00    +0.000 C 
ATOM      3  C   UNL     1      -0.506  11.695  21.175  0.00  0.00    +0.000 C 
ATOM      4  C   UNL     1      -1.632  12.595  21.709  0.00  0.00    +0.000 C 
ATOM      5  C   UNL     1      -1.743  13.679  20.658  0.00  0.00    +0.000 C 
ATOM      6  O   UNL     1      -2.532  14.616  20.686  0.00  0.00    +0.000 OA
ATOM      7  N   UNL     1      -0.741  13.427  19.694  0.00  0.00    +0.000 N 
ATOM      8  C   UNL     1       0.453  14.207  19.854  0.00  0.00    +0.000 A 
ATOM      9  C   UNL     1       0.458  15.375  20.638  0.00  0.00    +0.000 A 
ATOM     10  C   UNL     1       1.658  15.972  21.019  0.00  0.00    +0.000 A 
ATOM     11  C   UNL     1       2.865  15.471  20.543  0.00  0.00    +0.000 A 
ATOM     12  C   UNL     1       2.872  14.359  19.703  0.00  0.00    +0.000 A 
ATOM     13  C   UNL     1       1.671  13.709  19.393  0.00  0.00    +0.000 A 
ATOM     14  C   UNL     1       1.720  12.408  18.705  0.00  0.00    +0.000 C 
ATOM     15  O   UNL     1       2.694  12.112  18.014  0.00  0.00    +0.000 OA
ATOM     16  N   UNL     1       0.668  11.534  18.934  0.00  0.00    +0.000 N 
ENDROOT
BRANCH  16  17
ATOM     17  C   UNL     1       0.735  10.216  18.272  0.00  0.00    +0.000 C 
BRANCH  17  18
ATOM     18  C   UNL     1       1.402   9.038  19.013  0.00  0.00    +0.000 C 
ATOM     19  O   UNL     1       1.124   8.845  20.196  0.00  0.00    +0.000 OA
ATOM     20  N   UNL     1       2.239   8.265  18.232  0.00  0.00    +0.000 N 
ATOM     21  C   UNL     1       2.758   7.012  18.602  0.00  0.00    +0.000 A 
ATOM     22  C   UNL     1       3.690   6.412  17.765  0.00  0.00    +0.000 A 
ATOM     23  C   UNL     1       4.159   5.134  18.081  0.00  0.00    +0.000 A 
ATOM     24  C   UNL     1       3.639   4.456  19.189  0.00  0.00    +0.000 A 
ATOM     25  C   UNL     1       3.980   3.122  19.486  0.00  0.00    +0.000 A 
ATOM     26  C   UNL     1       3.380   2.464  20.560  0.00  0.00    +0.000 A 
ATOM     27  C   UNL     1       2.484   3.152  21.370  0.00  0.00    +0.000 A 
ATOM     28  C   UNL     1       2.174   4.484  21.088  0.00  0.00    +0.000 A 
ATOM     29  C   UNL     1       2.710   5.145  19.991  0.00  0.00    +0.000 A 
ATOM     30  N   UNL     1       2.295   6.389  19.702  0.00  0.00    +0.000 NA
ATOM     31  H   UNL     1       2.512   8.649  17.328  0.00  0.00    +0.000 HD
ENDBRANCH  17  18
ENDBRANCH  16  17
TORSDOF 2
ENDMDL
MODEL 7
REMARK VINA RESULT:      -8.3      3.597      9.985
REMARK  Name = 
REMARK  3 active torsions:
REMARK  status: ('A' for Active; 'I' for Inactive)
REMARK    1  A    between atoms: C_1  and  C_2
REMARK    2  A    between atoms: N_16  and  C_17
REMARK    3  A    between atoms: C_17  and  C_18
REMARK                            x       y       z     vdW  Elec       q    Type
REMARK                         _______ _______ _______ _____ _____    ______ ____
ROOT
ATOM      1  C   UNL     1      -1.467  13.155  23.286  0.00  0.00    +0.000 C 
ATOM      2  C   UNL     1      -2.400  13.376  22.054  0.00  0.00    +0.000 C 
ATOM      3  C   UNL     1      -2.885  14.837  22.016  0.00  0.00    +0.000 C 
ATOM      4  C   UNL     1      -3.865  14.896  23.198  0.00  0.00    +0.000 C 
ATOM      5  C   UNL     1      -4.310  13.457  23.358  0.00  0.00    +0.000 C 
ATOM      6  O   UNL     1      -5.100  13.048  24.200  0.00  0.00    +0.000 OA
ATOM      7  N   UNL     1      -3.686  12.713  22.331  0.00  0.00    +0.000 N 
ATOM      8  C   UNL     1      -4.514  12.464  21.186  0.00  0.00    +0.000 A 
ATOM      9  C   UNL     1      -5.913  12.597  21.259  0.00  0.00    +0.000 A 
ATOM     10  C   UNL     1      -6.686  12.628  20.099  0.00  0.00    +0.000 A 
ATOM     11  C   UNL     1      -6.088  12.429  18.860  0.00  0.00    +0.000 A 
ATOM     12  C   UNL     1      -4.713  12.220  18.778  0.00  0.00    +0.000 A 
ATOM     13  C   UNL     1      -3.926  12.276  19.936  0.00  0.00    +0.000 A 
ATOM     14  C   UNL     1      -2.460  12.290  19.803  0.00  0.00    +0.000 C 
ATOM     15  O   UNL     1      -1.927  11.807  18.804  0.00  0.00    +0.000 OA
ATOM     16  N   UNL     1      -1.743  12.924  20.806  0.00  0.00    +0.000 N 
ENDROOT
BRANCH  16  17
ATOM     17  C   UNL     1      -0.274  12.969  20.654  0.00  0.00    +0.000 C 
BRANCH  17  18
ATOM     18  C   UNL     1       0.522  11.647  20.676  0.00  0.00    +0.000 C 
ATOM     19  O   UNL     1       0.704  11.079  21.752  0.00  0.00    +0.000 OA
ATOM     20  N   UNL     1       0.925  11.197  19.433  0.00  0.00    +0.000 N 
ATOM     21  C   UNL     1       1.436   9.915  19.167  0.00  0.00    +0.000 A 
ATOM     22  C   UNL     1       1.920   9.651  17.892  0.00  0.00    +0.000 A 
ATOM     23  C   UNL     1       2.363   8.361  17.590  0.00  0.00    +0.000 A 
ATOM     24  C   UNL     1       2.252   7.345  18.547  0.00  0.00    +0.000 A 
ATOM     25  C   UNL     1       2.564   6.002  18.262  0.00  0.00    +0.000 A 
ATOM     26  C   UNL     1       2.369   5.013  19.226  0.00  0.00    +0.000 A 
ATOM     27  C   UNL     1       1.915   5.371  20.490  0.00  0.00    +0.000 A 
ATOM     28  C   UNL     1       1.636   6.709  20.777  0.00  0.00    +0.000 A 
ATOM     29  C   UNL     1       1.765   7.705  19.817  0.00  0.00    +0.000 A 
ATOM     30  N   UNL     1       1.379   8.958  20.111  0.00  0.00    +0.000 NA
ATOM     31  H   UNL     1       0.862  11.859  18.660  0.00  0.00    +0.000 HD
ENDBRANCH  17  18
ENDBRANCH  16  17
TORSDOF 2
ENDMDL
MODEL 8
REMARK VINA RESULT:      -8.3      2.665      9.394
REMARK  Name = 
REMARK  3 active torsions:
REMARK  status: ('A' for Active; 'I' for Inactive)
REMARK    1  A    between atoms: C_1  and  C_2
REMARK    2  A    between atoms: N_16  and  C_17
REMARK    3  A    between atoms: C_17  and  C_18
REMARK                            x       y       z     vdW  Elec       q    Type
REMARK                         _______ _______ _______ _____ _____    ______ ____
ROOT
ATOM      1  C   UNL     1      -1.887  11.062  16.559  0.00  0.00    +0.000 C 
ATOM      2  C   UNL     1      -2.302  11.065  18.064  0.00  0.00    +0.000 C 
ATOM      3  C   UNL     1      -2.947   9.717  18.435  0.00  0.00    +0.000 C 
ATOM      4  C   UNL     1      -4.301   9.782  17.711  0.00  0.00    +0.000 C 
ATOM      5  C   UNL     1      -4.554  11.268  17.571  0.00  0.00    +0.000 C 
ATOM      6  O   UNL     1      -5.535  11.774  17.040  0.00  0.00    +0.000 OA
ATOM      7  N   UNL     1      -3.483  11.934  18.210  0.00  0.00    +0.000 N 
ATOM      8  C   UNL     1      -3.765  12.377  19.545  0.00  0.00    +0.000 A 
ATOM      9  C   UNL     1      -5.089  12.492  20.006  0.00  0.00    +0.000 A 
ATOM     10  C   UNL     1      -5.358  12.650  21.365  0.00  0.00    +0.000 A 
ATOM     11  C   UNL     1      -4.311  12.795  22.268  0.00  0.00    +0.000 A 
ATOM     12  C   UNL     1      -2.994  12.759  21.815  0.00  0.00    +0.000 A 
ATOM     13  C   UNL     1      -2.725  12.512  20.463  0.00  0.00    +0.000 A 
ATOM     14  C   UNL     1      -1.338  12.243  20.047  0.00  0.00    +0.000 C 
ATOM     15  O   UNL     1      -0.400  12.666  20.722  0.00  0.00    +0.000 OA
ATOM     16  N   UNL     1      -1.160  11.448  18.926  0.00  0.00    +0.000 N 
ENDROOT
BRANCH  16  17
ATOM     17  C   UNL     1       0.231  11.149  18.530  0.00  0.00    +0.000 C 
BRANCH  17  18
ATOM     18  C   UNL     1       0.937   9.921  19.143  0.00  0.00    +0.000 C 
ATOM     19  O   UNL     1       0.645   9.577  20.288  0.00  0.00    +0.000 OA
ATOM     20  N   UNL     1       1.824   9.284  18.297  0.00  0.00    +0.000 N 
ATOM     21  C   UNL     1       2.393   8.019  18.529  0.00  0.00    +0.000 A 
ATOM     22  C   UNL     1       3.368   7.564  17.650  0.00  0.00    +0.000 A 
ATOM     23  C   UNL     1       3.889   6.280  17.824  0.00  0.00    +0.000 A 
ATOM     24  C   UNL     1       3.380   5.452  18.831  0.00  0.00    +0.000 A 
ATOM     25  C   UNL     1       3.776   4.109  18.976  0.00  0.00    +0.000 A 
ATOM     26  C   UNL     1       3.186   3.302  19.949  0.00  0.00    +0.000 A 
ATOM     27  C   UNL     1       2.244   3.848  20.812  0.00  0.00    +0.000 A 
ATOM     28  C   UNL     1       1.878   5.190  20.683  0.00  0.00    +0.000 A 
ATOM     29  C   UNL     1       2.404   6.000  19.685  0.00  0.00    +0.000 A 
ATOM     30  N   UNL     1       1.938   7.250  19.536  0.00  0.00    +0.000 NA
ATOM     31  H   UNL     1       2.097   9.785  17.452  0.00  0.00    +0.000 HD
ENDBRANCH  17  18
ENDBRANCH  16  17
TORSDOF 2
ENDMDL
MODEL 9
REMARK VINA RESULT:      -8.3      2.647      9.242
REMARK  Name = 
REMARK  3 active torsions:
REMARK  status: ('A' for Active; 'I' for Inactive)
REMARK    1  A    between atoms: C_1  and  C_2
REMARK    2  A    between atoms: N_16  and  C_17
REMARK    3  A    between atoms: C_17  and  C_18
REMARK                            x       y       z     vdW  Elec       q    Type
REMARK                         _______ _______ _______ _____ _____    ______ ____
ROOT
ATOM      1  C   UNL     1       1.661  11.272  19.317  0.00  0.00    +0.000 C 
ATOM      2  C   UNL     1       0.319  11.092  20.094  0.00  0.00    +0.000 C 
ATOM      3  C   UNL     1      -0.746  10.476  19.168  0.00  0.00    +0.000 C 
ATOM      4  C   UNL     1      -1.064  11.631  18.206  0.00  0.00    +0.000 C 
ATOM      5  C   UNL     1      -0.693  12.864  19.002  0.00  0.00    +0.000 C 
ATOM      6  O   UNL     1      -0.786  14.020  18.606  0.00  0.00    +0.000 OA
ATOM      7  N   UNL     1      -0.281  12.424  20.281  0.00  0.00    +0.000 N 
ATOM      8  C   UNL     1      -1.290  12.512  21.297  0.00  0.00    +0.000 A 
ATOM      9  C   UNL     1      -2.425  13.324  21.124  0.00  0.00    +0.000 A 
ATOM     10  C   UNL     1      -3.525  13.199  21.972  0.00  0.00    +0.000 A 
ATOM     11  C   UNL     1      -3.470  12.336  23.060  0.00  0.00    +0.000 A 
ATOM     12  C   UNL     1      -2.321  11.581  23.289  0.00  0.00    +0.000 A 
ATOM     13  C   UNL     1      -1.252  11.643  22.386  0.00  0.00    +0.000 A 
ATOM     14  C   UNL     1      -0.154  10.670  22.511  0.00  0.00    +0.000 C 
ATOM     15  O   UNL     1       0.078  10.139  23.597  0.00  0.00    +0.000 OA
ATOM     16  N   UNL     1       0.534  10.343  21.353  0.00  0.00    +0.000 N 
ENDROOT
BRANCH  16  17
ATOM     17  C   UNL     1       1.611   9.340  21.472  0.00  0.00    +0.000 C 
BRANCH  17  18
ATOM     18  C   UNL     1       1.632   8.143  20.499  0.00  0.00    +0.000 C 
ATOM     19  O   UNL     1       1.788   8.355  19.297  0.00  0.00    +0.000 OA
ATOM     20  N   UNL     1       1.515   6.906  21.104  0.00  0.00    +0.000 N 
ATOM     21  C   UNL     1       1.755   5.674  20.472  0.00  0.00    +0.000 A 
ATOM     22  C   UNL     1       1.471   4.508  21.172  0.00  0.00    +0.000 A 
ATOM     23  C   UNL     1       1.773   3.276  20.587  0.00  0.00    +0.000 A 
ATOM     24  C   UNL     1       2.411   3.235  19.342  0.00  0.00    +0.000 A 
ATOM     25  C   UNL     1       2.852   2.031  18.759  0.00  0.00    +0.000 A 
ATOM     26  C   UNL     1       3.549   2.047  17.550  0.00  0.00    +0.000 A 
ATOM     27  C   UNL     1       3.758   3.256  16.897  0.00  0.00    +0.000 A 
ATOM     28  C   UNL     1       3.291   4.444  17.466  0.00  0.00    +0.000 A 
ATOM     29  C   UNL     1       2.648   4.463  18.696  0.00  0.00    +0.000 A 
ATOM     30  N   UNL     1       2.317   5.642  19.249  0.00  0.00    +0.000 NA
ATOM     31  H   UNL     1       1.212   6.895  22.077  0.00  0.00    +0.000 HD
ENDBRANCH  17  18
ENDBRANCH  16  17
TORSDOF 2
ENDMDL
