MODEL 1
REMARK VINA RESULT:      -8.6      0.000      0.000
REMARK  Name = 
REMARK  3 active torsions:
REMARK  status: ('A' for Active; 'I' for Inactive)
REMARK    1  A    between atoms: C_2  and  C_3
REMARK    2  A    between atoms: C_3  and  C_4
REMARK    3  A    between atoms: N_21  and  C_22
REMARK                            x       y       z     vdW  Elec       q    Type
REMARK                         _______ _______ _______ _____ _____    ______ ____
ROOT
ATOM      1  O   UNL     1       0.318   9.860  21.653  0.00  0.00    +0.000 OA
ATOM      2  C   UNL     1       0.686   9.937  20.475  0.00  0.00    +0.000 C 
ATOM      3  N   UNL     1       1.259   8.841  19.811  0.00  0.00    +0.000 N 
ATOM      4  C   UNL     1       1.455   7.656  20.666  0.00  0.00    +0.000 C 
ATOM      5  C   UNL     1       1.789   6.335  19.959  0.00  0.00    +0.000 C 
ATOM      6  C   UNL     1       2.592   6.577  18.741  0.00  0.00    +0.000 A 
ATOM      7  C   UNL     1       2.775   7.815  18.174  0.00  0.00    +0.000 A 
ATOM      8  C   UNL     1       3.713   7.588  17.154  0.00  0.00    +0.000 A 
ATOM      9  N   UNL     1       4.126   6.319  17.113  0.00  0.00    +0.000 NA
ATOM     10  N   UNL     1       3.384   5.680  18.056  0.00  0.00    +0.000 N 
ATOM     11  C   UNL     1       2.171   9.072  18.669  0.00  0.00    +0.000 C 
ENDROOT
BRANCH  10  12
ATOM     12  C   UNL     1       3.537   4.288  18.298  0.00  0.00    +0.000 A 
ATOM     13  C   UNL     1       4.362   3.855  19.341  0.00  0.00    +0.000 A 
ATOM     14  C   UNL     1       4.382   2.501  19.690  0.00  0.00    +0.000 A 
ATOM     15  C   UNL     1       3.617   1.579  18.976  0.00  0.00    +0.000 A 
ATOM     16  C   UNL     1       2.857   1.998  17.888  0.00  0.00    +0.000 A 
ATOM     17  C   UNL     1       2.820   3.349  17.542  0.00  0.00    +0.000 A 
ENDBRANCH  10  12
BRANCH   2  18
ATOM     18  C   UNL     1       0.463  11.225  19.697  0.00  0.00    +0.000 C 
BRANCH  18  19
ATOM     19  C   UNL     1      -0.978  11.565  19.470  0.00  0.00    +0.000 A 
ATOM     20  C   UNL     1      -1.735  12.438  20.234  0.00  0.00    +0.000 A 
ATOM     21  N   UNL     1      -2.985  12.520  19.690  0.00  0.00    +0.000 N 
ATOM     22  C   UNL     1      -3.072  11.726  18.571  0.00  0.00    +0.000 A 
ATOM     23  C   UNL     1      -4.149  11.521  17.697  0.00  0.00    +0.000 A 
ATOM     24  C   UNL     1      -3.947  10.655  16.620  0.00  0.00    +0.000 A 
ATOM     25  C   UNL     1      -2.723  10.028  16.436  0.00  0.00    +0.000 A 
ATOM     26  F   UNL     1      -2.564   9.198  15.396  0.00  0.00    +0.000 F 
ATOM     27  C   UNL     1      -1.653  10.242  17.307  0.00  0.00    +0.000 A 
ATOM     28  C   UNL     1      -1.828  11.108  18.406  0.00  0.00    +0.000 A 
ATOM     29  H   UNL     1      -3.739  13.094  20.042  0.00  0.00    +0.000 HD
ENDBRANCH  18  19
ENDBRANCH   2  18
TORSDOF 3
ENDMDL
MODEL 2
REMARK VINA RESULT:      -8.6      0.432      1.006
REMARK  Name = 
REMARK  3 active torsions:
REMARK  status: ('A' for Active; 'I' for Inactive)
REMARK    1  A    between atoms: C_2  and  C_3
REMARK    2  A    between atoms: C_3  and  C_4
REMARK    3  A    between atoms: N_21  and  C_22
REMARK                            x       y       z     vdW  Elec       q    Type
REMARK                         _______ _______ _______ _____ _____    ______ ____
ROOT
ATOM      1  O   UNL     1       0.169  10.191  22.028  0.00  0.00    +0.000 OA
ATOM      2  C   UNL     1       0.481  10.241  20.832  0.00  0.00    +0.000 C 
ATOM      3  N   UNL     1       1.002   9.125  20.160  0.00  0.00    +0.000 N 
ATOM      4  C   UNL     1       1.220   7.951  21.025  0.00  0.00    +0.000 C 
ATOM      5  C   UNL     1       1.497   6.612  20.327  0.00  0.00    +0.000 C 
ATOM      6  C   UNL     1       2.244   6.820  19.068  0.00  0.00    +0.000 A 
ATOM      7  C   UNL     1       2.420   8.045  18.471  0.00  0.00    +0.000 A 
ATOM      8  C   UNL     1       3.304   7.785  17.411  0.00  0.00    +0.000 A 
ATOM      9  N   UNL     1       3.693   6.508  17.372  0.00  0.00    +0.000 NA
ATOM     10  N   UNL     1       2.987   5.898  18.361  0.00  0.00    +0.000 N 
ATOM     11  C   UNL     1       1.862   9.321  18.972  0.00  0.00    +0.000 C 
ENDROOT
BRANCH  10  12
ATOM     12  C   UNL     1       3.128   4.508  18.619  0.00  0.00    +0.000 A 
ATOM     13  C   UNL     1       2.311   3.593  17.946  0.00  0.00    +0.000 A 
ATOM     14  C   UNL     1       2.560   2.223  18.069  0.00  0.00    +0.000 A 
ATOM     15  C   UNL     1       3.589   1.766  18.892  0.00  0.00    +0.000 A 
ATOM     16  C   UNL     1       4.352   2.672  19.624  0.00  0.00    +0.000 A 
ATOM     17  C   UNL     1       4.119   4.041  19.496  0.00  0.00    +0.000 A 
ENDBRANCH  10  12
BRANCH   2  18
ATOM     18  C   UNL     1       0.242  11.520  20.044  0.00  0.00    +0.000 C 
BRANCH  18  19
ATOM     19  C   UNL     1      -1.197  11.782  19.716  0.00  0.00    +0.000 A 
ATOM     20  C   UNL     1      -2.042  12.636  20.404  0.00  0.00    +0.000 A 
ATOM     21  N   UNL     1      -3.257  12.640  19.780  0.00  0.00    +0.000 N 
ATOM     22  C   UNL     1      -3.233  11.813  18.682  0.00  0.00    +0.000 A 
ATOM     23  C   UNL     1      -4.241  11.530  17.749  0.00  0.00    +0.000 A 
ATOM     24  C   UNL     1      -3.929  10.647  16.713  0.00  0.00    +0.000 A 
ATOM     25  C   UNL     1      -2.666  10.076  16.626  0.00  0.00    +0.000 A 
ATOM     26  F   UNL     1      -2.402   9.228  15.624  0.00  0.00    +0.000 F 
ATOM     27  C   UNL     1      -1.667  10.368  17.556  0.00  0.00    +0.000 A 
ATOM     28  C   UNL     1      -1.953  11.253  18.615  0.00  0.00    +0.000 A 
ATOM     29  H   UNL     1      -4.059  13.185  20.066  0.00  0.00    +0.000 HD
ENDBRANCH  18  19
ENDBRANCH   2  18
TORSDOF 3
ENDMDL
MODEL 3
REMARK VINA RESULT:      -8.6      2.585      8.841
REMARK  Name = 
REMARK  3 active torsions:
REMARK  status: ('A' for Active; 'I' for Inactive)
REMARK    1  A    between atoms: C_2  and  C_3
REMARK    2  A    between atoms: C_3  and  C_4
REMARK    3  A    between atoms: N_21  and  C_22
REMARK                            x       y       z     vdW  Elec       q    Type
REMARK                         _______ _______ _______ _____ _____    ______ ____
ROOT
ATOM      1  O   UNL     1       2.225   7.030  20.387  0.00  0.00    +0.000 OA
ATOM      2  C   UNL     1       1.897   7.895  19.566  0.00  0.00    +0.000 C 
ATOM      3  N   UNL     1       1.151   9.022  19.943  0.00  0.00    +0.000 N 
ATOM      4  C   UNL     1       0.732   9.020  21.357  0.00  0.00    +0.000 C 
ATOM      5  C   UNL     1       0.183  10.337  21.923  0.00  0.00    +0.000 C 
ATOM      6  C   UNL     1      -0.543  11.095  20.882  0.00  0.00    +0.000 A 
ATOM      7  C   UNL     1      -0.494  10.800  19.541  0.00  0.00    +0.000 A 
ATOM      8  C   UNL     1      -1.439  11.665  18.966  0.00  0.00    +0.000 A 
ATOM      9  N   UNL     1      -2.070  12.411  19.877  0.00  0.00    +0.000 NA
ATOM     10  N   UNL     1      -1.470  12.102  21.057  0.00  0.00    +0.000 N 
ATOM     11  C   UNL     1       0.315   9.716  18.939  0.00  0.00    +0.000 C 
ENDROOT
BRANCH  10  12
ATOM     12  C   UNL     1      -1.871  12.717  22.273  0.00  0.00    +0.000 A 
ATOM     13  C   UNL     1      -1.071  13.715  22.839  0.00  0.00    +0.000 A 
ATOM     14  C   UNL     1      -1.543  14.439  23.938  0.00  0.00    +0.000 A 
ATOM     15  C   UNL     1      -2.786  14.140  24.497  0.00  0.00    +0.000 A 
ATOM     16  C   UNL     1      -3.547  13.093  23.983  0.00  0.00    +0.000 A 
ATOM     17  C   UNL     1      -3.090  12.376  22.878  0.00  0.00    +0.000 A 
ENDBRANCH  10  12
BRANCH   2  18
ATOM     18  C   UNL     1       2.358   7.777  18.121  0.00  0.00    +0.000 C 
BRANCH  18  19
ATOM     19  C   UNL     1       3.207   6.573  17.843  0.00  0.00    +0.000 A 
ATOM     20  C   UNL     1       4.556   6.588  17.531  0.00  0.00    +0.000 A 
ATOM     21  N   UNL     1       4.984   5.298  17.391  0.00  0.00    +0.000 N 
ATOM     22  C   UNL     1       3.947   4.424  17.615  0.00  0.00    +0.000 A 
ATOM     23  C   UNL     1       3.934   3.022  17.597  0.00  0.00    +0.000 A 
ATOM     24  C   UNL     1       2.722   2.386  17.877  0.00  0.00    +0.000 A 
ATOM     25  C   UNL     1       1.583   3.127  18.158  0.00  0.00    +0.000 A 
ATOM     26  F   UNL     1       0.435   2.486  18.416  0.00  0.00    +0.000 F 
ATOM     27  C   UNL     1       1.605   4.522  18.180  0.00  0.00    +0.000 A 
ATOM     28  C   UNL     1       2.813   5.193  17.898  0.00  0.00    +0.000 A 
ATOM     29  H   UNL     1       5.930   5.016  17.173  0.00  0.00    +0.000 HD
ENDBRANCH  18  19
ENDBRANCH   2  18
TORSDOF 3
ENDMDL
MODEL 4
REMARK VINA RESULT:      -8.4      1.168      1.467
REMARK  Name = 
REMARK  3 active torsions:
REMARK  status: ('A' for Active; 'I' for Inactive)
REMARK    1  A    between atoms: C_2  and  C_3
REMARK    2  A    between atoms: C_3  and  C_4
REMARK    3  A    between atoms: N_21  and  C_22
REMARK                            x       y       z     vdW  Elec       q    Type
REMARK                         _______ _______ _______ _____ _____    ______ ____
ROOT
ATOM      1  O   UNL     1       0.153  11.280  22.195  0.00  0.00    +0.000 OA
ATOM      2  C   UNL     1       0.282  11.070  20.982  0.00  0.00    +0.000 C 
ATOM      3  N   UNL     1       0.720   9.829  20.493  0.00  0.00    +0.000 N 
ATOM      4  C   UNL     1       1.086   8.864  21.546  0.00  0.00    +0.000 C 
ATOM      5  C   UNL     1       1.282   7.404  21.114  0.00  0.00    +0.000 C 
ATOM      6  C   UNL     1       1.829   7.328  19.743  0.00  0.00    +0.000 A 
ATOM      7  C   UNL     1       1.891   8.396  18.880  0.00  0.00    +0.000 A 
ATOM      8  C   UNL     1       2.612   7.904  17.780  0.00  0.00    +0.000 A 
ATOM      9  N   UNL     1       3.015   6.643  17.956  0.00  0.00    +0.000 NA
ATOM     10  N   UNL     1       2.476   6.267  19.145  0.00  0.00    +0.000 N 
ATOM     11  C   UNL     1       1.389   9.756  19.175  0.00  0.00    +0.000 C 
ENDROOT
BRANCH  10  12
ATOM     12  C   UNL     1       2.681   4.963  19.670  0.00  0.00    +0.000 A 
ATOM     13  C   UNL     1       3.829   4.247  19.314  0.00  0.00    +0.000 A 
ATOM     14  C   UNL     1       4.118   3.040  19.957  0.00  0.00    +0.000 A 
ATOM     15  C   UNL     1       3.246   2.527  20.917  0.00  0.00    +0.000 A 
ATOM     16  C   UNL     1       2.064   3.199  21.215  0.00  0.00    +0.000 A 
ATOM     17  C   UNL     1       1.775   4.412  20.588  0.00  0.00    +0.000 A 
ENDBRANCH  10  12
BRANCH   2  18
ATOM     18  C   UNL     1      -0.095  12.154  19.985  0.00  0.00    +0.000 C 
BRANCH  18  19
ATOM     19  C   UNL     1      -1.555  12.200  19.649  0.00  0.00    +0.000 A 
ATOM     20  C   UNL     1      -2.519  12.932  20.320  0.00  0.00    +0.000 A 
ATOM     21  N   UNL     1      -3.719  12.751  19.692  0.00  0.00    +0.000 N 
ATOM     22  C   UNL     1      -3.569  11.920  18.607  0.00  0.00    +0.000 A 
ATOM     23  C   UNL     1      -4.520  11.480  17.675  0.00  0.00    +0.000 A 
ATOM     24  C   UNL     1      -4.077  10.636  16.654  0.00  0.00    +0.000 A 
ATOM     25  C   UNL     1      -2.744  10.253  16.581  0.00  0.00    +0.000 A 
ATOM     26  F   UNL     1      -2.354   9.437  15.592  0.00  0.00    +0.000 F 
ATOM     27  C   UNL     1      -1.803  10.700  17.509  0.00  0.00    +0.000 A 
ATOM     28  C   UNL     1      -2.221  11.551  18.553  0.00  0.00    +0.000 A 
ATOM     29  H   UNL     1      -4.593  13.178  19.966  0.00  0.00    +0.000 HD
ENDBRANCH  18  19
ENDBRANCH   2  18
TORSDOF 3
ENDMDL
MODEL 5
REMARK VINA RESULT:      -8.4      2.489      8.848
REMARK  Name = 
REMARK  3 active torsions:
REMARK  status: ('A' for Active; 'I' for Inactive)
REMARK    1  A    between atoms: C_2  and  C_3
REMARK    2  A    between atoms: C_3  and  C_4
REMARK    3  A    between atoms: N_21  and  C_22
REMARK                            x       y       z     vdW  Elec       q    Type
REMARK                         _______ _______ _______ _____ _____    ______ ____
ROOT
ATOM      1  O   UNL     1       2.176   6.931  20.354  0.00  0.00    +0.000 OA
ATOM      2  C   UNL     1       1.952   7.773  19.476  0.00  0.00    +0.000 C 
ATOM      3  N   UNL     1       1.256   8.959  19.756  0.00  0.00    +0.000 N 
ATOM      4  C   UNL     1       0.753   9.049  21.139  0.00  0.00    +0.000 C 
ATOM      5  C   UNL     1       0.253  10.421  21.610  0.00  0.00    +0.000 C 
ATOM      6  C   UNL     1      -0.361  11.171  20.493  0.00  0.00    +0.000 A 
ATOM      7  C   UNL     1      -0.249  10.810  19.172  0.00  0.00    +0.000 A 
ATOM      8  C   UNL     1      -1.102  11.701  18.501  0.00  0.00    +0.000 A 
ATOM      9  N   UNL     1      -1.740  12.525  19.337  0.00  0.00    +0.000 NA
ATOM     10  N   UNL     1      -1.232  12.238  20.565  0.00  0.00    +0.000 N 
ATOM     11  C   UNL     1       0.526   9.653  18.671  0.00  0.00    +0.000 C 
ENDROOT
BRANCH  10  12
ATOM     12  C   UNL     1      -1.667  12.932  21.725  0.00  0.00    +0.000 A 
ATOM     13  C   UNL     1      -2.955  12.707  22.223  0.00  0.00    +0.000 A 
ATOM     14  C   UNL     1      -3.326  13.255  23.455  0.00  0.00    +0.000 A 
ATOM     15  C   UNL     1      -2.434  14.059  24.164  0.00  0.00    +0.000 A 
ATOM     16  C   UNL     1      -1.181  14.348  23.632  0.00  0.00    +0.000 A 
ATOM     17  C   UNL     1      -0.797  13.793  22.411  0.00  0.00    +0.000 A 
ENDBRANCH  10  12
BRANCH   2  18
ATOM     18  C   UNL     1       2.492   7.559  18.070  0.00  0.00    +0.000 C 
BRANCH  18  19
ATOM     19  C   UNL     1       3.312   6.316  17.909  0.00  0.00    +0.000 A 
ATOM     20  C   UNL     1       4.681   6.269  17.704  0.00  0.00    +0.000 A 
ATOM     21  N   UNL     1       5.067   4.959  17.651  0.00  0.00    +0.000 N 
ATOM     22  C   UNL     1       3.983   4.134  17.827  0.00  0.00    +0.000 A 
ATOM     23  C   UNL     1       3.917   2.733  17.864  0.00  0.00    +0.000 A 
ATOM     24  C   UNL     1       2.663   2.154  18.073  0.00  0.00    +0.000 A 
ATOM     25  C   UNL     1       1.535   2.947  18.232  0.00  0.00    +0.000 A 
ATOM     26  F   UNL     1       0.347   2.358  18.425  0.00  0.00    +0.000 F 
ATOM     27  C   UNL     1       1.610   4.340  18.201  0.00  0.00    +0.000 A 
ATOM     28  C   UNL     1       2.861   4.954  17.988  0.00  0.00    +0.000 A 
ATOM     29  H   UNL     1       6.016   4.635  17.520  0.00  0.00    +0.000 HD
ENDBRANCH  18  19
ENDBRANCH   2  18
TORSDOF 3
ENDMDL
MODEL 6
REMARK VINA RESULT:      -8.3      1.653      2.314
REMARK  Name = 
REMARK  3 active torsions:
REMARK  status: ('A' for Active; 'I' for Inactive)
REMARK    1  A    between atoms: C_2  and  C_3
REMARK    2  A    between atoms: C_3  and  C_4
REMARK    3  A    between atoms: N_21  and  C_22
REMARK                            x       y       z     vdW  Elec       q    Type
REMARK                         _______ _______ _______ _____ _____    ______ ____
ROOT
ATOM      1  O   UNL     1      -0.550  11.813  22.942  0.00  0.00    +0.000 OA
ATOM      2  C   UNL     1      -0.491  11.731  21.709  0.00  0.00    +0.000 C 
ATOM      3  N   UNL     1       0.067  10.611  21.073  0.00  0.00    +0.000 N 
ATOM      4  C   UNL     1       0.641   9.617  21.999  0.00  0.00    +0.000 C 
ATOM      5  C   UNL     1       0.993   8.242  21.415  0.00  0.00    +0.000 C 
ATOM      6  C   UNL     1       1.435   8.365  20.009  0.00  0.00    +0.000 A 
ATOM      7  C   UNL     1       1.286   9.502  19.252  0.00  0.00    +0.000 A 
ATOM      8  C   UNL     1       1.975   9.214  18.064  0.00  0.00    +0.000 A 
ATOM      9  N   UNL     1       2.555   8.011  18.088  0.00  0.00    +0.000 NA
ATOM     10  N   UNL     1       2.167   7.461  19.268  0.00  0.00    +0.000 N 
ATOM     11  C   UNL     1       0.633  10.748  19.713  0.00  0.00    +0.000 C 
ENDROOT
BRANCH  10  12
ATOM     12  C   UNL     1       2.584   6.156  19.648  0.00  0.00    +0.000 A 
ATOM     13  C   UNL     1       1.716   5.339  20.380  0.00  0.00    +0.000 A 
ATOM     14  C   UNL     1       2.053   4.002  20.607  0.00  0.00    +0.000 A 
ATOM     15  C   UNL     1       3.267   3.493  20.146  0.00  0.00    +0.000 A 
ATOM     16  C   UNL     1       4.166   4.327  19.487  0.00  0.00    +0.000 A 
ATOM     17  C   UNL     1       3.832   5.659  19.243  0.00  0.00    +0.000 A 
ENDBRANCH  10  12
BRANCH   2  18
ATOM     18  C   UNL     1      -1.087  12.835  20.850  0.00  0.00    +0.000 C 
BRANCH  18  19
ATOM     19  C   UNL     1      -2.491  12.571  20.396  0.00  0.00    +0.000 A 
ATOM     20  C   UNL     1      -3.639  12.815  21.130  0.00  0.00    +0.000 A 
ATOM     21  N   UNL     1      -4.722  12.488  20.364  0.00  0.00    +0.000 N 
ATOM     22  C   UNL     1      -4.316  12.041  19.129  0.00  0.00    +0.000 A 
ATOM     23  C   UNL     1      -5.080  11.621  18.030  0.00  0.00    +0.000 A 
ATOM     24  C   UNL     1      -4.391  11.224  16.882  0.00  0.00    +0.000 A 
ATOM     25  C   UNL     1      -3.003  11.248  16.846  0.00  0.00    +0.000 A 
ATOM     26  F   UNL     1      -2.373  10.855  15.731  0.00  0.00    +0.000 F 
ATOM     27  C   UNL     1      -2.251  11.674  17.942  0.00  0.00    +0.000 A 
ATOM     28  C   UNL     1      -2.918  12.076  19.117  0.00  0.00    +0.000 A 
ATOM     29  H   UNL     1      -5.688  12.577  20.649  0.00  0.00    +0.000 HD
ENDBRANCH  18  19
ENDBRANCH   2  18
TORSDOF 3
ENDMDL
MODEL 7
REMARK VINA RESULT:      -8.3      3.263      9.156
REMARK  Name = 
REMARK  3 active torsions:
REMARK  status: ('A' for Active; 'I' for Inactive)
REMARK    1  A    between atoms: C_2  and  C_3
REMARK    2  A    between atoms: C_3  and  C_4
REMARK    3  A    between atoms: N_21  and  C_22
REMARK                            x       y       z     vdW  Elec       q    Type
REMARK                         _______ _______ _______ _____ _____    ______ ____
ROOT
ATOM      1  O   UNL     1       2.643   8.034  17.778  0.00  0.00    +0.000 OA
ATOM      2  C   UNL     1       2.266   7.677  18.901  0.00  0.00    +0.000 C 
ATOM      3  N   UNL     1       1.387   8.459  19.665  0.00  0.00    +0.000 N 
ATOM      4  C   UNL     1       1.044   9.754  19.048  0.00  0.00    +0.000 C 
ATOM      5  C   UNL     1      -0.131  10.528  19.661  0.00  0.00    +0.000 C 
ATOM      6  C   UNL     1      -0.209  10.299  21.120  0.00  0.00    +0.000 A 
ATOM      7  C   UNL     1       0.492   9.320  21.783  0.00  0.00    +0.000 A 
ATOM      8  C   UNL     1       0.232   9.574  23.139  0.00  0.00    +0.000 A 
ATOM      9  N   UNL     1      -0.530  10.656  23.320  0.00  0.00    +0.000 NA
ATOM     10  N   UNL     1      -0.855  11.067  22.066  0.00  0.00    +0.000 N 
ATOM     11  C   UNL     1       1.389   8.335  21.139  0.00  0.00    +0.000 C 
ENDROOT
BRANCH  10  12
ATOM     12  C   UNL     1      -1.681  12.203  21.852  0.00  0.00    +0.000 A 
ATOM     13  C   UNL     1      -2.942  12.264  22.453  0.00  0.00    +0.000 A 
ATOM     14  C   UNL     1      -3.684  13.447  22.385  0.00  0.00    +0.000 A 
ATOM     15  C   UNL     1      -3.191  14.548  21.685  0.00  0.00    +0.000 A 
ATOM     16  C   UNL     1      -1.972  14.462  21.020  0.00  0.00    +0.000 A 
ATOM     17  C   UNL     1      -1.218  13.290  21.094  0.00  0.00    +0.000 A 
ENDBRANCH  10  12
BRANCH   2  18
ATOM     18  C   UNL     1       2.712   6.332  19.453  0.00  0.00    +0.000 C 
BRANCH  18  19
ATOM     19  C   UNL     1       3.184   5.364  18.410  0.00  0.00    +0.000 A 
ATOM     20  C   UNL     1       2.460   4.297  17.907  0.00  0.00    +0.000 A 
ATOM     21  N   UNL     1       3.207   3.679  16.945  0.00  0.00    +0.000 N 
ATOM     22  C   UNL     1       4.412   4.321  16.791  0.00  0.00    +0.000 A 
ATOM     23  C   UNL     1       5.471   4.046  15.914  0.00  0.00    +0.000 A 
ATOM     24  C   UNL     1       6.587   4.884  15.968  0.00  0.00    +0.000 A 
ATOM     25  C   UNL     1       6.632   5.944  16.863  0.00  0.00    +0.000 A 
ATOM     26  F   UNL     1       7.720   6.726  16.894  0.00  0.00    +0.000 F 
ATOM     27  C   UNL     1       5.571   6.216  17.729  0.00  0.00    +0.000 A 
ATOM     28  C   UNL     1       4.433   5.384  17.700  0.00  0.00    +0.000 A 
ATOM     29  H   UNL     1       2.916   2.875  16.406  0.00  0.00    +0.000 HD
ENDBRANCH  18  19
ENDBRANCH   2  18
TORSDOF 3
ENDMDL
MODEL 8
REMARK VINA RESULT:      -8.2      3.329      4.379
REMARK  Name = 
REMARK  3 active torsions:
REMARK  status: ('A' for Active; 'I' for Inactive)
REMARK    1  A    between atoms: C_2  and  C_3
REMARK    2  A    between atoms: C_3  and  C_4
REMARK    3  A    between atoms: N_21  and  C_22
REMARK                            x       y       z     vdW  Elec       q    Type
REMARK                         _______ _______ _______ _____ _____    ______ ____
ROOT
ATOM      1  O   UNL     1       0.509  10.409  18.499  0.00  0.00    +0.000 OA
ATOM      2  C   UNL     1       0.825   9.656  19.429  0.00  0.00    +0.000 C 
ATOM      3  N   UNL     1       1.746   8.613  19.250  0.00  0.00    +0.000 N 
ATOM      4  C   UNL     1       2.213   8.454  17.860  0.00  0.00    +0.000 C 
ATOM      5  C   UNL     1       3.432   7.549  17.634  0.00  0.00    +0.000 C 
ATOM      6  C   UNL     1       3.451   6.438  18.609  0.00  0.00    +0.000 A 
ATOM      7  C   UNL     1       2.654   6.381  19.726  0.00  0.00    +0.000 A 
ATOM      8  C   UNL     1       2.897   5.104  20.255  0.00  0.00    +0.000 A 
ATOM      9  N   UNL     1       3.743   4.393  19.504  0.00  0.00    +0.000 NA
ATOM     10  N   UNL     1       4.134   5.243  18.519  0.00  0.00    +0.000 N 
ATOM     11  C   UNL     1       1.695   7.430  20.138  0.00  0.00    +0.000 C 
ENDROOT
BRANCH  10  12
ATOM     12  C   UNL     1       5.057   4.839  17.517  0.00  0.00    +0.000 A 
ATOM     13  C   UNL     1       4.583   4.405  16.275  0.00  0.00    +0.000 A 
ATOM     14  C   UNL     1       5.486   4.170  15.234  0.00  0.00    +0.000 A 
ATOM     15  C   UNL     1       6.856   4.324  15.442  0.00  0.00    +0.000 A 
ATOM     16  C   UNL     1       7.334   4.680  16.701  0.00  0.00    +0.000 A 
ATOM     17  C   UNL     1       6.439   4.930  17.741  0.00  0.00    +0.000 A 
ENDBRANCH  10  12
BRANCH   2  18
ATOM     18  C   UNL     1       0.253   9.894  20.818  0.00  0.00    +0.000 C 
BRANCH  18  19
ATOM     19  C   UNL     1       0.237  11.332  21.239  0.00  0.00    +0.000 A 
ATOM     20  C   UNL     1       1.116  12.312  20.810  0.00  0.00    +0.000 A 
ATOM     21  N   UNL     1       0.753  13.500  21.379  0.00  0.00    +0.000 N 
ATOM     22  C   UNL     1      -0.357  13.331  22.170  0.00  0.00    +0.000 A 
ATOM     23  C   UNL     1      -1.076  14.272  22.922  0.00  0.00    +0.000 A 
ATOM     24  C   UNL     1      -2.188  13.814  23.633  0.00  0.00    +0.000 A 
ATOM     25  C   UNL     1      -2.553  12.475  23.590  0.00  0.00    +0.000 A 
ATOM     26  F   UNL     1      -3.621  12.068  24.288  0.00  0.00    +0.000 F 
ATOM     27  C   UNL     1      -1.836  11.546  22.834  0.00  0.00    +0.000 A 
ATOM     28  C   UNL     1      -0.707  11.978  22.109  0.00  0.00    +0.000 A 
ATOM     29  H   UNL     1       1.218  14.385  21.230  0.00  0.00    +0.000 HD
ENDBRANCH  18  19
ENDBRANCH   2  18
TORSDOF 3
ENDMDL
MODEL 9
REMARK VINA RESULT:      -8.2      1.335      1.630
REMARK  Name = 
REMARK  3 active torsions:
REMARK  status: ('A' for Active; 'I' for Inactive)
REMARK    1  A    between atoms: C_2  and  C_3
REMARK    2  A    between atoms: C_3  and  C_4
REMARK    3  A    between atoms: N_21  and  C_22
REMARK                            x       y       z     vdW  Elec       q    Type
REMARK                         _______ _______ _______ _____ _____    ______ ____
ROOT
ATOM      1  O   UNL     1      -0.084  10.846  22.875  0.00  0.00    +0.000 OA
ATOM      2  C   UNL     1       0.012  11.001  21.651  0.00  0.00    +0.000 C 
ATOM      3  N   UNL     1       0.519   9.990  20.819  0.00  0.00    +0.000 N 
ATOM      4  C   UNL     1       0.996   8.798  21.545  0.00  0.00    +0.000 C 
ATOM      5  C   UNL     1       1.280   7.542  20.710  0.00  0.00    +0.000 C 
ATOM      6  C   UNL     1       1.776   7.904  19.365  0.00  0.00    +0.000 A 
ATOM      7  C   UNL     1       1.725   9.174  18.843  0.00  0.00    +0.000 A 
ATOM      8  C   UNL     1       2.435   9.075  17.635  0.00  0.00    +0.000 A 
ATOM      9  N   UNL     1       2.936   7.853  17.436  0.00  0.00    +0.000 NA
ATOM     10  N   UNL     1       2.474   7.112  18.477  0.00  0.00    +0.000 N 
ATOM     11  C   UNL     1       1.138  10.349  19.524  0.00  0.00    +0.000 C 
ENDROOT
BRANCH  10  12
ATOM     12  C   UNL     1       2.794   5.733  18.602  0.00  0.00    +0.000 A 
ATOM     13  C   UNL     1       3.959   5.353  19.276  0.00  0.00    +0.000 A 
ATOM     14  C   UNL     1       4.190   4.001  19.549  0.00  0.00    +0.000 A 
ATOM     15  C   UNL     1       3.286   3.032  19.116  0.00  0.00    +0.000 A 
ATOM     16  C   UNL     1       2.167   3.403  18.376  0.00  0.00    +0.000 A 
ATOM     17  C   UNL     1       1.922   4.750  18.112  0.00  0.00    +0.000 A 
ENDBRANCH  10  12
BRANCH   2  18
ATOM     18  C   UNL     1      -0.483  12.289  21.013  0.00  0.00    +0.000 C 
BRANCH  18  19
ATOM     19  C   UNL     1      -1.931  12.267  20.626  0.00  0.00    +0.000 A 
ATOM     20  C   UNL     1      -2.993  12.613  21.444  0.00  0.00    +0.000 A 
ATOM     21  N   UNL     1      -4.149  12.508  20.722  0.00  0.00    +0.000 N 
ATOM     22  C   UNL     1      -3.875  12.110  19.436  0.00  0.00    +0.000 A 
ATOM     23  C   UNL     1      -4.745  11.893  18.357  0.00  0.00    +0.000 A 
ATOM     24  C   UNL     1      -4.179  11.496  17.144  0.00  0.00    +0.000 A 
ATOM     25  C   UNL     1      -2.807  11.324  17.026  0.00  0.00    +0.000 A 
ATOM     26  F   UNL     1      -2.297  10.936  15.849  0.00  0.00    +0.000 F 
ATOM     27  C   UNL     1      -1.947  11.547  18.103  0.00  0.00    +0.000 A 
ATOM     28  C   UNL     1      -2.489  11.944  19.342  0.00  0.00    +0.000 A 
ATOM     29  H   UNL     1      -5.076  12.711  21.071  0.00  0.00    +0.000 HD
ENDBRANCH  18  19
ENDBRANCH   2  18
TORSDOF 3
ENDMDL
