MODEL 1
REMARK VINA RESULT:      -8.8      0.000      0.000
REMARK  Name = 
REMARK  6 active torsions:
REMARK  status: ('A' for Active; 'I' for Inactive)
REMARK    1  A    between atoms: C_1  and  C_2
REMARK    2  A    between atoms: N_5  and  C_6
REMARK    3  A    between atoms: C_6  and  C_7
REMARK    4  A    between atoms: C_7  and  C_8
REMARK    5  A    between atoms: C_12  and  N_13
REMARK    6  A    between atoms: C_16  and  C_17
REMARK                            x       y       z     vdW  Elec       q    Type
REMARK                         _______ _______ _______ _____ _____    ______ ____
ROOT
ATOM      1  C   UNL     1       3.760   4.020  18.337  0.00  0.00    +0.000 A 
ATOM      2  C   UNL     1       3.488   3.107  19.363  0.00  0.00    +0.000 A 
ATOM      3  C   UNL     1       2.732   3.480  20.460  0.00  0.00    +0.000 A 
ATOM      4  C   UNL     1       2.261   4.784  20.567  0.00  0.00    +0.000 A 
ATOM      5  C   UNL     1       2.533   5.752  19.591  0.00  0.00    +0.000 A 
ATOM      6  C   UNL     1       3.279   5.349  18.466  0.00  0.00    +0.000 A 
ENDROOT
BRANCH   5   7
ATOM      7  N   UNL     1       2.104   7.097  19.790  0.00  0.00    +0.000 N 
ATOM      8  C   UNL     1       1.426   7.567  20.995  0.00  0.00    +0.000 C 
ATOM      9  C   UNL     1       0.973   8.948  20.626  0.00  0.00    +0.000 A 
ATOM     10  C   UNL     1       0.250   9.921  21.306  0.00  0.00    +0.000 A 
ATOM     11  C   UNL     1      -0.044  11.111  20.609  0.00  0.00    +0.000 A 
ATOM     12  C   UNL     1       0.398  11.279  19.299  0.00  0.00    +0.000 A 
ATOM     13  N   UNL     1       1.122  10.360  18.640  0.00  0.00    +0.000 NA
ATOM     14  C   UNL     1       1.380   9.239  19.339  0.00  0.00    +0.000 A 
ATOM     15  C   UNL     1       2.137   8.101  18.809  0.00  0.00    +0.000 C 
ATOM     16  O   UNL     1       2.666   8.120  17.711  0.00  0.00    +0.000 OA
BRANCH  10  17
ATOM     17  C   UNL     1      -0.213   9.775  22.726  0.00  0.00    +0.000 C 
ATOM     18  F   UNL     1       0.798   9.560  23.609  0.00  0.00    +0.000 F 
ATOM     19  F   UNL     1      -0.867  10.885  23.167  0.00  0.00    +0.000 F 
ATOM     20  F   UNL     1      -1.082   8.741  22.886  0.00  0.00    +0.000 F 
ENDBRANCH  10  17
ENDBRANCH   5   7
BRANCH   1  21
ATOM     21  C   UNL     1       4.616   3.624  17.140  0.00  0.00    +0.000 C 
BRANCH  21  22
ATOM     22  C   UNL     1       5.277   4.811  16.393  0.00  0.00    +0.000 C 
BRANCH  22  27
ATOM     23  C   UNL     1       7.951   8.219  17.685  0.00  0.00    +0.000 C 
ATOM     24  C   UNL     1       7.078   6.983  17.560  0.00  0.00    +0.000 C 
ATOM     25  C   UNL     1       7.419   5.894  18.570  0.00  0.00    +0.000 C 
ATOM     26  C   UNL     1       7.284   4.578  17.809  0.00  0.00    +0.000 C 
ATOM     27  N   UNL     1       6.747   4.889  16.478  0.00  0.00    +0.000 NA
ATOM     28  C   UNL     1       7.208   6.270  16.217  0.00  0.00    +0.000 C 
ENDBRANCH  22  27
ENDBRANCH  21  22
ENDBRANCH   1  21
TORSDOF 5
ENDMDL
MODEL 2
REMARK VINA RESULT:      -8.7      1.175      1.881
REMARK  Name = 
REMARK  6 active torsions:
REMARK  status: ('A' for Active; 'I' for Inactive)
REMARK    1  A    between atoms: C_1  and  C_2
REMARK    2  A    between atoms: N_5  and  C_6
REMARK    3  A    between atoms: C_6  and  C_7
REMARK    4  A    between atoms: C_7  and  C_8
REMARK    5  A    between atoms: C_12  and  N_13
REMARK    6  A    between atoms: C_16  and  C_17
REMARK                            x       y       z     vdW  Elec       q    Type
REMARK                         _______ _______ _______ _____ _____    ______ ____
ROOT
ATOM      1  C   UNL     1       4.172   4.623  18.759  0.00  0.00    +0.000 A 
ATOM      2  C   UNL     1       3.292   3.816  18.027  0.00  0.00    +0.000 A 
ATOM      3  C   UNL     1       2.044   4.285  17.656  0.00  0.00    +0.000 A 
ATOM      4  C   UNL     1       1.640   5.560  18.039  0.00  0.00    +0.000 A 
ATOM      5  C   UNL     1       2.463   6.399  18.803  0.00  0.00    +0.000 A 
ATOM      6  C   UNL     1       3.741   5.918  19.148  0.00  0.00    +0.000 A 
ENDROOT
BRANCH   5   7
ATOM      7  N   UNL     1       1.969   7.661  19.246  0.00  0.00    +0.000 N 
ATOM      8  C   UNL     1       1.387   7.892  20.565  0.00  0.00    +0.000 C 
ATOM      9  C   UNL     1       0.809   9.270  20.457  0.00  0.00    +0.000 A 
ATOM     10  C   UNL     1       0.095  10.072  21.342  0.00  0.00    +0.000 A 
ATOM     11  C   UNL     1      -0.346  11.324  20.866  0.00  0.00    +0.000 A 
ATOM     12  C   UNL     1      -0.053  11.717  19.563  0.00  0.00    +0.000 A 
ATOM     13  N   UNL     1       0.660  10.967  18.707  0.00  0.00    +0.000 NA
ATOM     14  C   UNL     1       1.061   9.780  19.198  0.00  0.00    +0.000 A 
ATOM     15  C   UNL     1       1.834   8.798  18.432  0.00  0.00    +0.000 C 
ATOM     16  O   UNL     1       2.246   9.020  17.307  0.00  0.00    +0.000 OA
BRANCH  10  17
ATOM     17  C   UNL     1      -0.209   9.681  22.758  0.00  0.00    +0.000 C 
ATOM     18  F   UNL     1      -0.872  10.640  23.458  0.00  0.00    +0.000 F 
ATOM     19  F   UNL     1      -0.984   8.563  22.824  0.00  0.00    +0.000 F 
ATOM     20  F   UNL     1       0.914   9.399  23.472  0.00  0.00    +0.000 F 
ENDBRANCH  10  17
ENDBRANCH   5   7
BRANCH   1  21
ATOM     21  C   UNL     1       5.536   4.103  19.194  0.00  0.00    +0.000 C 
BRANCH  21  22
ATOM     22  C   UNL     1       6.535   5.198  19.647  0.00  0.00    +0.000 C 
BRANCH  22  27
ATOM     23  C   UNL     1       7.015   5.068  15.154  0.00  0.00    +0.000 C 
ATOM     24  C   UNL     1       6.827   5.430  16.617  0.00  0.00    +0.000 C 
ATOM     25  C   UNL     1       7.296   6.839  16.958  0.00  0.00    +0.000 C 
ATOM     26  C   UNL     1       7.956   6.725  18.330  0.00  0.00    +0.000 C 
ATOM     27  N   UNL     1       7.741   5.356  18.813  0.00  0.00    +0.000 NA
ATOM     28  C   UNL     1       7.624   4.552  17.577  0.00  0.00    +0.000 C 
ENDBRANCH  22  27
ENDBRANCH  21  22
ENDBRANCH   1  21
TORSDOF 5
ENDMDL
MODEL 3
REMARK VINA RESULT:      -8.6      1.435      2.448
REMARK  Name = 
REMARK  6 active torsions:
REMARK  status: ('A' for Active; 'I' for Inactive)
REMARK    1  A    between atoms: C_1  and  C_2
REMARK    2  A    between atoms: N_5  and  C_6
REMARK    3  A    between atoms: C_6  and  C_7
REMARK    4  A    between atoms: C_7  and  C_8
REMARK    5  A    between atoms: C_12  and  N_13
REMARK    6  A    between atoms: C_16  and  C_17
REMARK                            x       y       z     vdW  Elec       q    Type
REMARK                         _______ _______ _______ _____ _____    ______ ____
ROOT
ATOM      1  C   UNL     1       4.851   5.080  18.248  0.00  0.00    +0.000 A 
ATOM      2  C   UNL     1       4.035   3.949  18.112  0.00  0.00    +0.000 A 
ATOM      3  C   UNL     1       2.662   4.047  18.247  0.00  0.00    +0.000 A 
ATOM      4  C   UNL     1       2.081   5.273  18.552  0.00  0.00    +0.000 A 
ATOM      5  C   UNL     1       2.848   6.431  18.736  0.00  0.00    +0.000 A 
ATOM      6  C   UNL     1       4.242   6.321  18.568  0.00  0.00    +0.000 A 
ENDROOT
BRANCH   5   7
ATOM      7  N   UNL     1       2.214   7.644  19.136  0.00  0.00    +0.000 N 
ATOM      8  C   UNL     1       1.603   7.852  20.446  0.00  0.00    +0.000 C 
ATOM      9  C   UNL     1       0.875   9.153  20.291  0.00  0.00    +0.000 A 
ATOM     10  C   UNL     1       0.072   9.898  21.148  0.00  0.00    +0.000 A 
ATOM     11  C   UNL     1      -0.504  11.076  20.631  0.00  0.00    +0.000 A 
ATOM     12  C   UNL     1      -0.250  11.457  19.315  0.00  0.00    +0.000 A 
ATOM     13  N   UNL     1       0.547  10.764  18.486  0.00  0.00    +0.000 NA
ATOM     14  C   UNL     1       1.076   9.645  19.017  0.00  0.00    +0.000 A 
ATOM     15  C   UNL     1       1.957   8.732  18.285  0.00  0.00    +0.000 C 
ATOM     16  O   UNL     1       2.348   8.962  17.154  0.00  0.00    +0.000 OA
BRANCH  10  17
ATOM     17  C   UNL     1      -0.194   9.522  22.576  0.00  0.00    +0.000 C 
ATOM     18  F   UNL     1      -0.915  10.451  23.259  0.00  0.00    +0.000 F 
ATOM     19  F   UNL     1      -0.893   8.357  22.676  0.00  0.00    +0.000 F 
ATOM     20  F   UNL     1       0.950   9.333  23.286  0.00  0.00    +0.000 F 
ENDBRANCH  10  17
ENDBRANCH   5   7
BRANCH   1  21
ATOM     21  C   UNL     1       6.366   4.973  18.129  0.00  0.00    +0.000 C 
BRANCH  21  22
ATOM     22  C   UNL     1       6.874   4.426  16.771  0.00  0.00    +0.000 C 
BRANCH  22  27
ATOM     23  C   UNL     1       6.463   3.564  12.353  0.00  0.00    +0.000 C 
ATOM     24  C   UNL     1       6.279   3.870  13.829  0.00  0.00    +0.000 C 
ATOM     25  C   UNL     1       5.008   4.656  14.132  0.00  0.00    +0.000 C 
ATOM     26  C   UNL     1       5.398   5.652  15.221  0.00  0.00    +0.000 C 
ATOM     27  N   UNL     1       6.776   5.349  15.626  0.00  0.00    +0.000 NA
ATOM     28  C   UNL     1       7.382   4.743  14.419  0.00  0.00    +0.000 C 
ENDBRANCH  22  27
ENDBRANCH  21  22
ENDBRANCH   1  21
TORSDOF 5
ENDMDL
MODEL 4
REMARK VINA RESULT:      -8.5      1.182      2.183
REMARK  Name = 
REMARK  6 active torsions:
REMARK  status: ('A' for Active; 'I' for Inactive)
REMARK    1  A    between atoms: C_1  and  C_2
REMARK    2  A    between atoms: N_5  and  C_6
REMARK    3  A    between atoms: C_6  and  C_7
REMARK    4  A    between atoms: C_7  and  C_8
REMARK    5  A    between atoms: C_12  and  N_13
REMARK    6  A    between atoms: C_16  and  C_17
REMARK                            x       y       z     vdW  Elec       q    Type
REMARK                         _______ _______ _______ _____ _____    ______ ____
ROOT
ATOM      1  C   UNL     1       4.851   5.276  18.785  0.00  0.00    +0.000 A 
ATOM      2  C   UNL     1       4.076   4.142  18.514  0.00  0.00    +0.000 A 
ATOM      3  C   UNL     1       2.695   4.223  18.468  0.00  0.00    +0.000 A 
ATOM      4  C   UNL     1       2.063   5.435  18.725  0.00  0.00    +0.000 A 
ATOM      5  C   UNL     1       2.784   6.595  19.037  0.00  0.00    +0.000 A 
ATOM      6  C   UNL     1       4.190   6.502  19.052  0.00  0.00    +0.000 A 
ENDROOT
BRANCH   5   7
ATOM      7  N   UNL     1       2.087   7.791  19.380  0.00  0.00    +0.000 N 
ATOM      8  C   UNL     1       1.462   8.027  20.679  0.00  0.00    +0.000 C 
ATOM      9  C   UNL     1       0.669   9.280  20.462  0.00  0.00    +0.000 A 
ATOM     10  C   UNL     1      -0.174  10.022  21.283  0.00  0.00    +0.000 A 
ATOM     11  C   UNL     1      -0.809  11.144  20.711  0.00  0.00    +0.000 A 
ATOM     12  C   UNL     1      -0.570  11.476  19.379  0.00  0.00    +0.000 A 
ATOM     13  N   UNL     1       0.265  10.787  18.584  0.00  0.00    +0.000 NA
ATOM     14  C   UNL     1       0.848   9.723  19.167  0.00  0.00    +0.000 A 
ATOM     15  C   UNL     1       1.778   8.823  18.479  0.00  0.00    +0.000 C 
ATOM     16  O   UNL     1       2.160   9.020  17.339  0.00  0.00    +0.000 OA
BRANCH  10  17
ATOM     17  C   UNL     1      -0.426   9.699  22.727  0.00  0.00    +0.000 C 
ATOM     18  F   UNL     1      -1.057   8.511  22.918  0.00  0.00    +0.000 F 
ATOM     19  F   UNL     1       0.731   9.631  23.443  0.00  0.00    +0.000 F 
ATOM     20  F   UNL     1      -1.191  10.639  23.343  0.00  0.00    +0.000 F 
ENDBRANCH  10  17
ENDBRANCH   5   7
BRANCH   1  21
ATOM     21  C   UNL     1       6.370   5.187  18.865  0.00  0.00    +0.000 C 
BRANCH  21  22
ATOM     22  C   UNL     1       7.045   4.495  17.653  0.00  0.00    +0.000 C 
BRANCH  22  27
ATOM     23  C   UNL     1       5.577   4.075  13.399  0.00  0.00    +0.000 C 
ATOM     24  C   UNL     1       5.810   4.404  14.863  0.00  0.00    +0.000 C 
ATOM     25  C   UNL     1       5.221   5.744  15.285  0.00  0.00    +0.000 C 
ATOM     26  C   UNL     1       6.241   6.352  16.243  0.00  0.00    +0.000 C 
ATOM     27  N   UNL     1       7.286   5.347  16.475  0.00  0.00    +0.000 NA
ATOM     28  C   UNL     1       7.283   4.533  15.238  0.00  0.00    +0.000 C 
ENDBRANCH  22  27
ENDBRANCH  21  22
ENDBRANCH   1  21
TORSDOF 5
ENDMDL
MODEL 5
REMARK VINA RESULT:      -8.4      2.066      3.809
REMARK  Name = 
REMARK  6 active torsions:
REMARK  status: ('A' for Active; 'I' for Inactive)
REMARK    1  A    between atoms: C_1  and  C_2
REMARK    2  A    between atoms: N_5  and  C_6
REMARK    3  A    between atoms: C_6  and  C_7
REMARK    4  A    between atoms: C_7  and  C_8
REMARK    5  A    between atoms: C_12  and  N_13
REMARK    6  A    between atoms: C_16  and  C_17
REMARK                            x       y       z     vdW  Elec       q    Type
REMARK                         _______ _______ _______ _____ _____    ______ ____
ROOT
ATOM      1  C   UNL     1       2.878   4.939  17.646  0.00  0.00    +0.000 A 
ATOM      2  C   UNL     1       4.122   5.214  17.065  0.00  0.00    +0.000 A 
ATOM      3  C   UNL     1       4.690   6.471  17.171  0.00  0.00    +0.000 A 
ATOM      4  C   UNL     1       4.008   7.487  17.832  0.00  0.00    +0.000 A 
ATOM      5  C   UNL     1       2.744   7.282  18.401  0.00  0.00    +0.000 A 
ATOM      6  C   UNL     1       2.192   5.989  18.310  0.00  0.00    +0.000 A 
ENDROOT
BRANCH   5   7
ATOM      7  N   UNL     1       2.047   8.378  18.990  0.00  0.00    +0.000 N 
ATOM      8  C   UNL     1       1.448   8.343  20.321  0.00  0.00    +0.000 C 
ATOM      9  C   UNL     1       0.643   9.606  20.376  0.00  0.00    +0.000 A 
ATOM     10  C   UNL     1      -0.187  10.160  21.344  0.00  0.00    +0.000 A 
ATOM     11  C   UNL     1      -0.840  11.368  21.021  0.00  0.00    +0.000 A 
ATOM     12  C   UNL     1      -0.630  11.962  19.779  0.00  0.00    +0.000 A 
ATOM     13  N   UNL     1       0.192  11.454  18.846  0.00  0.00    +0.000 NA
ATOM     14  C   UNL     1       0.793  10.301  19.192  0.00  0.00    +0.000 A 
ATOM     15  C   UNL     1       1.714   9.567  18.320  0.00  0.00    +0.000 C 
ATOM     16  O   UNL     1       2.071   9.992  17.236  0.00  0.00    +0.000 OA
BRANCH  10  17
ATOM     17  C   UNL     1      -0.407   9.552  22.699  0.00  0.00    +0.000 C 
ATOM     18  F   UNL     1      -1.243  10.275  23.491  0.00  0.00    +0.000 F 
ATOM     19  F   UNL     1      -0.950   8.307  22.617  0.00  0.00    +0.000 F 
ATOM     20  F   UNL     1       0.750   9.410  23.398  0.00  0.00    +0.000 F 
ENDBRANCH  10  17
ENDBRANCH   5   7
BRANCH   1  21
ATOM     21  C   UNL     1       2.234   3.565  17.509  0.00  0.00    +0.000 C 
BRANCH  21  22
ATOM     22  C   UNL     1       1.049   3.304  18.473  0.00  0.00    +0.000 C 
BRANCH  22  27
ATOM     23  C   UNL     1       4.802   1.955  20.602  0.00  0.00    +0.000 C 
ATOM     24  C   UNL     1       3.499   2.590  20.149  0.00  0.00    +0.000 C 
ATOM     25  C   UNL     1       2.601   3.021  21.303  0.00  0.00    +0.000 C 
ATOM     26  C   UNL     1       1.180   2.686  20.858  0.00  0.00    +0.000 C 
ATOM     27  N   UNL     1       1.248   2.230  19.464  0.00  0.00    +0.000 NA
ATOM     28  C   UNL     1       2.606   1.656  19.339  0.00  0.00    +0.000 C 
ENDBRANCH  22  27
ENDBRANCH  21  22
ENDBRANCH   1  21
TORSDOF 5
ENDMDL
MODEL 6
REMARK VINA RESULT:      -8.3      2.003      3.027
REMARK  Name = 
REMARK  6 active torsions:
REMARK  status: ('A' for Active; 'I' for Inactive)
REMARK    1  A    between atoms: C_1  and  C_2
REMARK    2  A    between atoms: N_5  and  C_6
REMARK    3  A    between atoms: C_6  and  C_7
REMARK    4  A    between atoms: C_7  and  C_8
REMARK    5  A    between atoms: C_12  and  N_13
REMARK    6  A    between atoms: C_16  and  C_17
REMARK                            x       y       z     vdW  Elec       q    Type
REMARK                         _______ _______ _______ _____ _____    ______ ____
ROOT
ATOM      1  C   UNL     1       4.482   5.884  17.227  0.00  0.00    +0.000 A 
ATOM      2  C   UNL     1       3.879   4.648  17.488  0.00  0.00    +0.000 A 
ATOM      3  C   UNL     1       2.679   4.577  18.173  0.00  0.00    +0.000 A 
ATOM      4  C   UNL     1       2.075   5.740  18.639  0.00  0.00    +0.000 A 
ATOM      5  C   UNL     1       2.650   7.003  18.440  0.00  0.00    +0.000 A 
ATOM      6  C   UNL     1       3.857   7.061  17.716  0.00  0.00    +0.000 A 
ENDROOT
BRANCH   5   7
ATOM      7  N   UNL     1       2.039   8.156  19.013  0.00  0.00    +0.000 N 
ATOM      8  C   UNL     1       1.438   8.185  20.344  0.00  0.00    +0.000 C 
ATOM      9  C   UNL     1       0.732   9.506  20.382  0.00  0.00    +0.000 A 
ATOM     10  C   UNL     1      -0.054  10.134  21.342  0.00  0.00    +0.000 A 
ATOM     11  C   UNL     1      -0.612  11.384  21.002  0.00  0.00    +0.000 A 
ATOM     12  C   UNL     1      -0.357  11.945  19.753  0.00  0.00    +0.000 A 
ATOM     13  N   UNL     1       0.424  11.364  18.828  0.00  0.00    +0.000 NA
ATOM     14  C   UNL     1       0.935  10.173  19.190  0.00  0.00    +0.000 A 
ATOM     15  C   UNL     1       1.798   9.359  18.328  0.00  0.00    +0.000 C 
ATOM     16  O   UNL     1       2.186   9.742  17.239  0.00  0.00    +0.000 OA
BRANCH  10  17
ATOM     17  C   UNL     1      -0.320   9.562  22.704  0.00  0.00    +0.000 C 
ATOM     18  F   UNL     1      -0.929   8.347  22.675  0.00  0.00    +0.000 F 
ATOM     19  F   UNL     1       0.827   9.392  23.418  0.00  0.00    +0.000 F 
ATOM     20  F   UNL     1      -1.115  10.367  23.459  0.00  0.00    +0.000 F 
ENDBRANCH  10  17
ENDBRANCH   5   7
BRANCH   1  21
ATOM     21  C   UNL     1       5.817   5.968  16.498  0.00  0.00    +0.000 C 
BRANCH  21  22
ATOM     22  C   UNL     1       5.771   5.543  15.008  0.00  0.00    +0.000 C 
BRANCH  22  27
ATOM     23  C   UNL     1       5.641   2.445  11.719  0.00  0.00    +0.000 C 
ATOM     24  C   UNL     1       5.825   3.669  12.599  0.00  0.00    +0.000 C 
ATOM     25  C   UNL     1       6.998   4.547  12.179  0.00  0.00    +0.000 C 
ATOM     26  C   UNL     1       7.637   5.018  13.482  0.00  0.00    +0.000 C 
ATOM     27  N   UNL     1       6.785   4.560  14.586  0.00  0.00    +0.000 NA
ATOM     28  C   UNL     1       6.134   3.341  14.056  0.00  0.00    +0.000 C 
ENDBRANCH  22  27
ENDBRANCH  21  22
ENDBRANCH   1  21
TORSDOF 5
ENDMDL
MODEL 7
REMARK VINA RESULT:      -8.3      1.976      3.908
REMARK  Name = 
REMARK  6 active torsions:
REMARK  status: ('A' for Active; 'I' for Inactive)
REMARK    1  A    between atoms: C_1  and  C_2
REMARK    2  A    between atoms: N_5  and  C_6
REMARK    3  A    between atoms: C_6  and  C_7
REMARK    4  A    between atoms: C_7  and  C_8
REMARK    5  A    between atoms: C_12  and  N_13
REMARK    6  A    between atoms: C_16  and  C_17
REMARK                            x       y       z     vdW  Elec       q    Type
REMARK                         _______ _______ _______ _____ _____    ______ ____
ROOT
ATOM      1  C   UNL     1       2.991   4.946  17.452  0.00  0.00    +0.000 A 
ATOM      2  C   UNL     1       4.328   5.183  17.107  0.00  0.00    +0.000 A 
ATOM      3  C   UNL     1       4.937   6.385  17.421  0.00  0.00    +0.000 A 
ATOM      4  C   UNL     1       4.210   7.386  18.057  0.00  0.00    +0.000 A 
ATOM      5  C   UNL     1       2.860   7.220  18.394  0.00  0.00    +0.000 A 
ATOM      6  C   UNL     1       2.262   5.981  18.094  0.00  0.00    +0.000 A 
ENDROOT
BRANCH   5   7
ATOM      7  N   UNL     1       2.135   8.308  18.964  0.00  0.00    +0.000 N 
ATOM      8  C   UNL     1       1.527   8.276  20.291  0.00  0.00    +0.000 C 
ATOM      9  C   UNL     1       0.694   9.522  20.324  0.00  0.00    +0.000 A 
ATOM     10  C   UNL     1      -0.155  10.070  21.279  0.00  0.00    +0.000 A 
ATOM     11  C   UNL     1      -0.831  11.259  20.936  0.00  0.00    +0.000 A 
ATOM     12  C   UNL     1      -0.626  11.843  19.689  0.00  0.00    +0.000 A 
ATOM     13  N   UNL     1       0.214  11.341  18.768  0.00  0.00    +0.000 NA
ATOM     14  C   UNL     1       0.838  10.206  19.133  0.00  0.00    +0.000 A 
ATOM     15  C   UNL     1       1.781   9.481  18.277  0.00  0.00    +0.000 C 
ATOM     16  O   UNL     1       2.136   9.900  17.190  0.00  0.00    +0.000 OA
BRANCH  10  17
ATOM     17  C   UNL     1      -0.372   9.474  22.640  0.00  0.00    +0.000 C 
ATOM     18  F   UNL     1      -1.208  10.203  23.427  0.00  0.00    +0.000 F 
ATOM     19  F   UNL     1      -0.912   8.226  22.570  0.00  0.00    +0.000 F 
ATOM     20  F   UNL     1       0.787   9.341  23.339  0.00  0.00    +0.000 F 
ENDBRANCH  10  17
ENDBRANCH   5   7
BRANCH   1  21
ATOM     21  C   UNL     1       2.306   3.635  17.085  0.00  0.00    +0.000 C 
BRANCH  21  22
ATOM     22  C   UNL     1       2.921   2.374  17.745  0.00  0.00    +0.000 C 
BRANCH  22  27
ATOM     23  C   UNL     1       2.154   3.325  22.097  0.00  0.00    +0.000 C 
ATOM     24  C   UNL     1       2.145   3.180  20.585  0.00  0.00    +0.000 C 
ATOM     25  C   UNL     1       0.753   3.286  19.974  0.00  0.00    +0.000 C 
ATOM     26  C   UNL     1       0.722   2.248  18.856  0.00  0.00    +0.000 C 
ATOM     27  N   UNL     1       2.072   1.685  18.735  0.00  0.00    +0.000 NA
ATOM     28  C   UNL     1       2.644   1.826  20.093  0.00  0.00    +0.000 C 
ENDBRANCH  22  27
ENDBRANCH  21  22
ENDBRANCH   1  21
TORSDOF 5
ENDMDL
MODEL 8
REMARK VINA RESULT:      -8.3      4.098      8.423
REMARK  Name = 
REMARK  6 active torsions:
REMARK  status: ('A' for Active; 'I' for Inactive)
REMARK    1  A    between atoms: C_1  and  C_2
REMARK    2  A    between atoms: N_5  and  C_6
REMARK    3  A    between atoms: C_6  and  C_7
REMARK    4  A    between atoms: C_7  and  C_8
REMARK    5  A    between atoms: C_12  and  N_13
REMARK    6  A    between atoms: C_16  and  C_17
REMARK                            x       y       z     vdW  Elec       q    Type
REMARK                         _______ _______ _______ _____ _____    ______ ____
ROOT
ATOM      1  C   UNL     1       0.388  10.086  19.788  0.00  0.00    +0.000 A 
ATOM      2  C   UNL     1       0.130   9.978  21.160  0.00  0.00    +0.000 A 
ATOM      3  C   UNL     1       0.689   8.955  21.907  0.00  0.00    +0.000 A 
ATOM      4  C   UNL     1       1.490   8.002  21.287  0.00  0.00    +0.000 A 
ATOM      5  C   UNL     1       1.754   8.037  19.911  0.00  0.00    +0.000 A 
ATOM      6  C   UNL     1       1.201   9.100  19.171  0.00  0.00    +0.000 A 
ENDROOT
BRANCH   5   7
ATOM      7  N   UNL     1       2.507   6.987  19.309  0.00  0.00    +0.000 N 
ATOM      8  C   UNL     1       3.465   7.189  18.224  0.00  0.00    +0.000 C 
ATOM      9  C   UNL     1       3.795   5.795  17.785  0.00  0.00    +0.000 A 
ATOM     10  C   UNL     1       4.613   5.285  16.783  0.00  0.00    +0.000 A 
ATOM     11  C   UNL     1       4.639   3.885  16.620  0.00  0.00    +0.000 A 
ATOM     12  C   UNL     1       3.875   3.072  17.454  0.00  0.00    +0.000 A 
ATOM     13  N   UNL     1       3.103   3.548  18.444  0.00  0.00    +0.000 NA
ATOM     14  C   UNL     1       3.104   4.889  18.565  0.00  0.00    +0.000 A 
ATOM     15  C   UNL     1       2.321   5.619  19.566  0.00  0.00    +0.000 C 
ATOM     16  O   UNL     1       1.666   5.056  20.425  0.00  0.00    +0.000 OA
BRANCH  10  17
ATOM     17  C   UNL     1       5.467   6.139  15.891  0.00  0.00    +0.000 C 
ATOM     18  F   UNL     1       6.166   5.430  14.965  0.00  0.00    +0.000 F 
ATOM     19  F   UNL     1       4.728   7.044  15.192  0.00  0.00    +0.000 F 
ATOM     20  F   UNL     1       6.384   6.862  16.587  0.00  0.00    +0.000 F 
ENDBRANCH  10  17
ENDBRANCH   5   7
BRANCH   1  21
ATOM     21  C   UNL     1      -0.246  11.193  18.955  0.00  0.00    +0.000 C 
BRANCH  21  22
ATOM     22  C   UNL     1      -1.676  11.599  19.396  0.00  0.00    +0.000 C 
BRANCH  22  27
ATOM     23  C   UNL     1      -2.970   9.625  15.541  0.00  0.00    +0.000 C 
ATOM     24  C   UNL     1      -2.808  10.161  16.952  0.00  0.00    +0.000 C 
ATOM     25  C   UNL     1      -4.132  10.368  17.679  0.00  0.00    +0.000 C 
ATOM     26  C   UNL     1      -3.962  11.661  18.472  0.00  0.00    +0.000 C 
ATOM     27  N   UNL     1      -2.566  12.089  18.327  0.00  0.00    +0.000 NA
ATOM     28  C   UNL     1      -2.153  11.537  17.017  0.00  0.00    +0.000 C 
ENDBRANCH  22  27
ENDBRANCH  21  22
ENDBRANCH   1  21
TORSDOF 5
ENDMDL
MODEL 9
REMARK VINA RESULT:      -8.0      3.985      7.774
REMARK  Name = 
REMARK  6 active torsions:
REMARK  status: ('A' for Active; 'I' for Inactive)
REMARK    1  A    between atoms: C_1  and  C_2
REMARK    2  A    between atoms: N_5  and  C_6
REMARK    3  A    between atoms: C_6  and  C_7
REMARK    4  A    between atoms: C_7  and  C_8
REMARK    5  A    between atoms: C_12  and  N_13
REMARK    6  A    between atoms: C_16  and  C_17
REMARK                            x       y       z     vdW  Elec       q    Type
REMARK                         _______ _______ _______ _____ _____    ______ ____
ROOT
ATOM      1  C   UNL     1       0.386  10.215  19.638  0.00  0.00    +0.000 A 
ATOM      2  C   UNL     1       0.023  10.100  20.986  0.00  0.00    +0.000 A 
ATOM      3  C   UNL     1       0.494   9.053  21.758  0.00  0.00    +0.000 A 
ATOM      4  C   UNL     1       1.311   8.082  21.187  0.00  0.00    +0.000 A 
ATOM      5  C   UNL     1       1.677   8.125  19.835  0.00  0.00    +0.000 A 
ATOM      6  C   UNL     1       1.213   9.212  19.070  0.00  0.00    +0.000 A 
ENDROOT
BRANCH   5   7
ATOM      7  N   UNL     1       2.442   7.059  19.276  0.00  0.00    +0.000 N 
ATOM      8  C   UNL     1       3.413   7.230  18.199  0.00  0.00    +0.000 C 
ATOM      9  C   UNL     1       3.754   5.823  17.808  0.00  0.00    +0.000 A 
ATOM     10  C   UNL     1       4.587   5.286  16.834  0.00  0.00    +0.000 A 
ATOM     11  C   UNL     1       4.621   3.881  16.717  0.00  0.00    +0.000 A 
ATOM     12  C   UNL     1       3.848   3.092  17.566  0.00  0.00    +0.000 A 
ATOM     13  N   UNL     1       3.062   3.597  18.531  0.00  0.00    +0.000 NA
ATOM     14  C   UNL     1       3.057   4.940  18.609  0.00  0.00    +0.000 A 
ATOM     15  C   UNL     1       2.258   5.699  19.575  0.00  0.00    +0.000 C 
ATOM     16  O   UNL     1       1.593   5.162  20.443  0.00  0.00    +0.000 OA
BRANCH  10  17
ATOM     17  C   UNL     1       5.449   6.114  15.926  0.00  0.00    +0.000 C 
ATOM     18  F   UNL     1       4.751   7.010  15.180  0.00  0.00    +0.000 F 
ATOM     19  F   UNL     1       6.371   6.837  16.619  0.00  0.00    +0.000 F 
ATOM     20  F   UNL     1       6.155   5.355  15.045  0.00  0.00    +0.000 F 
ENDBRANCH  10  17
ENDBRANCH   5   7
BRANCH   1  21
ATOM     21  C   UNL     1      -0.152  11.350  18.775  0.00  0.00    +0.000 C 
BRANCH  21  22
ATOM     22  C   UNL     1       0.479  12.737  19.059  0.00  0.00    +0.000 C 
BRANCH  22  27
ATOM     23  C   UNL     1       3.757  15.459  17.547  0.00  0.00    +0.000 C 
ATOM     24  C   UNL     1       2.644  14.752  18.302  0.00  0.00    +0.000 C 
ATOM     25  C   UNL     1       2.687  14.987  19.807  0.00  0.00    +0.000 C 
ATOM     26  C   UNL     1       2.310  13.649  20.437  0.00  0.00    +0.000 C 
ATOM     27  N   UNL     1       1.925  12.740  19.351  0.00  0.00    +0.000 NA
ATOM     28  C   UNL     1       2.688  13.232  18.182  0.00  0.00    +0.000 C 
ENDBRANCH  22  27
ENDBRANCH  21  22
ENDBRANCH   1  21
TORSDOF 5
ENDMDL
