MODEL 1
REMARK VINA RESULT:      -8.7      0.000      0.000
REMARK  Name = 
REMARK  5 active torsions:
REMARK  status: ('A' for Active; 'I' for Inactive)
REMARK    1  A    between atoms: C_2  and  O_3
REMARK    2  A    between atoms: C_2  and  C_4
REMARK    3  A    between atoms: C_10  and  N_11
REMARK    4  A    between atoms: N_11  and  C_12
REMARK    5  A    between atoms: C_12  and  C_13
REMARK                            x       y       z     vdW  Elec       q    Type
REMARK                         _______ _______ _______ _____ _____    ______ ____
ROOT
ATOM      1  C   UNL     1       7.056   5.215  18.134  0.00  0.00    +0.000 A 
ATOM      2  N   UNL     1       7.659   4.568  17.113  0.00  0.00    +0.000 NA
ATOM      3  N   UNL     1       6.642   3.911  16.514  0.00  0.00    +0.000 N 
ATOM      4  C   UNL     1       5.414   4.138  17.078  0.00  0.00    +0.000 A 
ATOM      5  C   UNL     1       4.135   3.684  16.750  0.00  0.00    +0.000 A 
ATOM      6  C   UNL     1       3.075   4.167  17.532  0.00  0.00    +0.000 A 
ATOM      7  C   UNL     1       3.278   5.020  18.625  0.00  0.00    +0.000 A 
ATOM      8  C   UNL     1       4.577   5.447  18.921  0.00  0.00    +0.000 A 
ATOM      9  C   UNL     1       5.656   4.997  18.140  0.00  0.00    +0.000 A 
ATOM     10  H   UNL     1       6.845   3.330  15.709  0.00  0.00    +0.000 HD
ENDROOT
BRANCH   1  12
ATOM     11  O   UNL     1       8.372   7.098  18.786  0.00  0.00    +0.000 OA
ATOM     12  C   UNL     1       7.837   6.034  19.064  0.00  0.00    +0.000 C 
BRANCH  12  13
ATOM     13  O   UNL     1       7.911   5.477  20.306  0.00  0.00    +0.000 OA
ATOM     14  H   UNL     1       7.183   4.813  20.349  0.00  0.00    +0.000 HD
ENDBRANCH  12  13
ENDBRANCH   1  12
BRANCH   7  15
ATOM     15  N   UNL     1       2.149   5.520  19.292  0.00  0.00    +0.000 N 
ATOM     16  H   UNL     1       1.471   5.837  18.600  0.00  0.00    +0.000 HD
BRANCH  15  17
ATOM     17  C   UNL     1       2.371   6.593  20.278  0.00  0.00    +0.000 C 
BRANCH  17  18
ATOM     18  C   UNL     1       1.899   7.921  19.724  0.00  0.00    +0.000 A 
ATOM     19  C   UNL     1       2.112   8.230  18.365  0.00  0.00    +0.000 A 
ATOM     20  C   UNL     1       1.644   9.416  17.822  0.00  0.00    +0.000 A 
ATOM     21  C   UNL     1       0.938  10.302  18.624  0.00  0.00    +0.000 A 
ATOM     22  C   UNL     1       0.694   9.998  19.972  0.00  0.00    +0.000 A 
ATOM     23  C   UNL     1      -0.035  10.881  20.780  0.00  0.00    +0.000 A 
ATOM     24  C   UNL     1      -0.282  10.563  22.107  0.00  0.00    +0.000 A 
ATOM     25  C   UNL     1       0.209   9.366  22.585  0.00  0.00    +0.000 A 
ATOM     26  N   UNL     1       0.921   8.488  21.837  0.00  0.00    +0.000 NA
ATOM     27  C   UNL     1       1.168   8.792  20.543  0.00  0.00    +0.000 A 
ENDBRANCH  17  18
ENDBRANCH  15  17
ENDBRANCH   7  15
TORSDOF 5
ENDMDL
MODEL 2
REMARK VINA RESULT:      -8.6      3.617      5.351
REMARK  Name = 
REMARK  5 active torsions:
REMARK  status: ('A' for Active; 'I' for Inactive)
REMARK    1  A    between atoms: C_2  and  O_3
REMARK    2  A    between atoms: C_2  and  C_4
REMARK    3  A    between atoms: C_10  and  N_11
REMARK    4  A    between atoms: N_11  and  C_12
REMARK    5  A    between atoms: C_12  and  C_13
REMARK                            x       y       z     vdW  Elec       q    Type
REMARK                         _______ _______ _______ _____ _____    ______ ____
ROOT
ATOM      1  C   UNL     1       6.591   4.017  13.146  0.00  0.00    +0.000 A 
ATOM      2  N   UNL     1       7.570   4.897  12.846  0.00  0.00    +0.000 NA
ATOM      3  N   UNL     1       7.811   5.511  14.026  0.00  0.00    +0.000 N 
ATOM      4  C   UNL     1       7.062   5.039  15.071  0.00  0.00    +0.000 A 
ATOM      5  C   UNL     1       7.028   5.375  16.425  0.00  0.00    +0.000 A 
ATOM      6  C   UNL     1       6.153   4.638  17.237  0.00  0.00    +0.000 A 
ATOM      7  C   UNL     1       5.308   3.646  16.720  0.00  0.00    +0.000 A 
ATOM      8  C   UNL     1       5.372   3.344  15.356  0.00  0.00    +0.000 A 
ATOM      9  C   UNL     1       6.256   4.051  14.523  0.00  0.00    +0.000 A 
ATOM     10  H   UNL     1       8.515   6.240  14.060  0.00  0.00    +0.000 HD
ENDROOT
BRANCH   1  12
ATOM     11  O   UNL     1       6.616   2.281  11.507  0.00  0.00    +0.000 OA
ATOM     12  C   UNL     1       6.014   3.159  12.108  0.00  0.00    +0.000 C 
BRANCH  12  13
ATOM     13  O   UNL     1       4.702   3.445  11.872  0.00  0.00    +0.000 OA
ATOM     14  H   UNL     1       4.306   2.616  11.513  0.00  0.00    +0.000 HD
ENDBRANCH  12  13
ENDBRANCH   1  12
BRANCH   7  15
ATOM     15  N   UNL     1       4.533   2.903  17.622  0.00  0.00    +0.000 N 
ATOM     16  H   UNL     1       4.851   1.934  17.612  0.00  0.00    +0.000 HD
BRANCH  15  17
ATOM     17  C   UNL     1       3.070   2.932  17.434  0.00  0.00    +0.000 C 
BRANCH  17  18
ATOM     18  C   UNL     1       2.385   3.354  18.716  0.00  0.00    +0.000 A 
ATOM     19  C   UNL     1       1.898   2.375  19.607  0.00  0.00    +0.000 A 
ATOM     20  C   UNL     1       1.313   2.735  20.812  0.00  0.00    +0.000 A 
ATOM     21  C   UNL     1       1.223   4.078  21.152  0.00  0.00    +0.000 A 
ATOM     22  C   UNL     1       1.726   5.064  20.289  0.00  0.00    +0.000 A 
ATOM     23  C   UNL     1       1.655   6.418  20.638  0.00  0.00    +0.000 A 
ATOM     24  C   UNL     1       2.169   7.383  19.784  0.00  0.00    +0.000 A 
ATOM     25  C   UNL     1       2.741   6.958  18.603  0.00  0.00    +0.000 A 
ATOM     26  N   UNL     1       2.824   5.658  18.228  0.00  0.00    +0.000 NA
ATOM     27  C   UNL     1       2.325   4.713  19.054  0.00  0.00    +0.000 A 
ENDBRANCH  17  18
ENDBRANCH  15  17
ENDBRANCH   7  15
TORSDOF 5
ENDMDL
MODEL 3
REMARK VINA RESULT:      -8.3      4.019      5.646
REMARK  Name = 
REMARK  5 active torsions:
REMARK  status: ('A' for Active; 'I' for Inactive)
REMARK    1  A    between atoms: C_2  and  O_3
REMARK    2  A    between atoms: C_2  and  C_4
REMARK    3  A    between atoms: C_10  and  N_11
REMARK    4  A    between atoms: N_11  and  C_12
REMARK    5  A    between atoms: C_12  and  C_13
REMARK                            x       y       z     vdW  Elec       q    Type
REMARK                         _______ _______ _______ _____ _____    ______ ____
ROOT
ATOM      1  C   UNL     1       6.310   3.696  12.517  0.00  0.00    +0.000 A 
ATOM      2  N   UNL     1       7.206   4.439  11.832  0.00  0.00    +0.000 NA
ATOM      3  N   UNL     1       7.754   5.226  12.784  0.00  0.00    +0.000 N 
ATOM      4  C   UNL     1       7.282   4.993  14.048  0.00  0.00    +0.000 A 
ATOM      5  C   UNL     1       7.601   5.557  15.285  0.00  0.00    +0.000 A 
ATOM      6  C   UNL     1       6.940   5.033  16.406  0.00  0.00    +0.000 A 
ATOM      7  C   UNL     1       5.965   4.032  16.302  0.00  0.00    +0.000 A 
ATOM      8  C   UNL     1       5.673   3.498  15.042  0.00  0.00    +0.000 A 
ATOM      9  C   UNL     1       6.336   3.988  13.904  0.00  0.00    +0.000 A 
ATOM     10  H   UNL     1       8.464   5.896  12.511  0.00  0.00    +0.000 HD
ENDROOT
BRANCH   1  12
ATOM     11  O   UNL     1       4.337   2.934  11.410  0.00  0.00    +0.000 OA
ATOM     12  C   UNL     1       5.466   2.718  11.826  0.00  0.00    +0.000 C 
BRANCH  12  13
ATOM     13  O   UNL     1       6.081   1.510  11.688  0.00  0.00    +0.000 OA
ATOM     14  H   UNL     1       6.598   1.564  10.850  0.00  0.00    +0.000 HD
ENDBRANCH  12  13
ENDBRANCH   1  12
BRANCH   7  15
ATOM     15  N   UNL     1       5.423   3.511  17.486  0.00  0.00    +0.000 N 
ATOM     16  H   UNL     1       4.435   3.305  17.335  0.00  0.00    +0.000 HD
BRANCH  15  17
ATOM     17  C   UNL     1       5.563   4.327  18.706  0.00  0.00    +0.000 C 
BRANCH  17  18
ATOM     18  C   UNL     1       4.257   5.022  19.026  0.00  0.00    +0.000 A 
ATOM     19  C   UNL     1       4.014   6.322  18.536  0.00  0.00    +0.000 A 
ATOM     20  C   UNL     1       2.806   6.959  18.772  0.00  0.00    +0.000 A 
ATOM     21  C   UNL     1       1.814   6.298  19.484  0.00  0.00    +0.000 A 
ATOM     22  C   UNL     1       2.028   4.994  19.956  0.00  0.00    +0.000 A 
ATOM     23  C   UNL     1       1.023   4.317  20.658  0.00  0.00    +0.000 A 
ATOM     24  C   UNL     1       1.241   3.023  21.107  0.00  0.00    +0.000 A 
ATOM     25  C   UNL     1       2.464   2.446  20.837  0.00  0.00    +0.000 A 
ATOM     26  N   UNL     1       3.463   3.069  20.165  0.00  0.00    +0.000 NA
ATOM     27  C   UNL     1       3.258   4.330  19.726  0.00  0.00    +0.000 A 
ENDBRANCH  17  18
ENDBRANCH  15  17
ENDBRANCH   7  15
TORSDOF 5
ENDMDL
MODEL 4
REMARK VINA RESULT:      -8.3      3.655      5.438
REMARK  Name = 
REMARK  5 active torsions:
REMARK  status: ('A' for Active; 'I' for Inactive)
REMARK    1  A    between atoms: C_2  and  O_3
REMARK    2  A    between atoms: C_2  and  C_4
REMARK    3  A    between atoms: C_10  and  N_11
REMARK    4  A    between atoms: N_11  and  C_12
REMARK    5  A    between atoms: C_12  and  C_13
REMARK                            x       y       z     vdW  Elec       q    Type
REMARK                         _______ _______ _______ _____ _____    ______ ____
ROOT
ATOM      1  C   UNL     1       6.547   3.989  12.967  0.00  0.00    +0.000 A 
ATOM      2  N   UNL     1       7.527   4.834  12.578  0.00  0.00    +0.000 NA
ATOM      3  N   UNL     1       7.831   5.503  13.712  0.00  0.00    +0.000 N 
ATOM      4  C   UNL     1       7.123   5.099  14.813  0.00  0.00    +0.000 A 
ATOM      5  C   UNL     1       7.156   5.506  16.148  0.00  0.00    +0.000 A 
ATOM      6  C   UNL     1       6.306   4.828  17.035  0.00  0.00    +0.000 A 
ATOM      7  C   UNL     1       5.423   3.827  16.609  0.00  0.00    +0.000 A 
ATOM      8  C   UNL     1       5.419   3.454  15.262  0.00  0.00    +0.000 A 
ATOM      9  C   UNL     1       6.276   4.101  14.354  0.00  0.00    +0.000 A 
ATOM     10  H   UNL     1       8.548   6.219  13.676  0.00  0.00    +0.000 HD
ENDROOT
BRANCH   1  12
ATOM     11  O   UNL     1       4.770   3.210  11.576  0.00  0.00    +0.000 OA
ATOM     12  C   UNL     1       5.910   3.090  12.002  0.00  0.00    +0.000 C 
BRANCH  12  13
ATOM     13  O   UNL     1       6.736   2.077  11.615  0.00  0.00    +0.000 OA
ATOM     14  H   UNL     1       6.153   1.393  11.210  0.00  0.00    +0.000 HD
ENDBRANCH  12  13
ENDBRANCH   1  12
BRANCH   7  15
ATOM     15  N   UNL     1       4.677   3.147  17.583  0.00  0.00    +0.000 N 
ATOM     16  H   UNL     1       3.687   3.352  17.444  0.00  0.00    +0.000 HD
BRANCH  15  17
ATOM     17  C   UNL     1       5.027   3.394  18.994  0.00  0.00    +0.000 C 
BRANCH  17  18
ATOM     18  C   UNL     1       3.773   3.568  19.823  0.00  0.00    +0.000 A 
ATOM     19  C   UNL     1       3.305   2.503  20.620  0.00  0.00    +0.000 A 
ATOM     20  C   UNL     1       2.189   2.654  21.428  0.00  0.00    +0.000 A 
ATOM     21  C   UNL     1       1.536   3.879  21.468  0.00  0.00    +0.000 A 
ATOM     22  C   UNL     1       2.005   4.958  20.703  0.00  0.00    +0.000 A 
ATOM     23  C   UNL     1       1.361   6.201  20.755  0.00  0.00    +0.000 A 
ATOM     24  C   UNL     1       1.841   7.264  20.005  0.00  0.00    +0.000 A 
ATOM     25  C   UNL     1       2.957   7.048  19.224  0.00  0.00    +0.000 A 
ATOM     26  N   UNL     1       3.606   5.860  19.143  0.00  0.00    +0.000 NA
ATOM     27  C   UNL     1       3.142   4.819  19.870  0.00  0.00    +0.000 A 
ENDBRANCH  17  18
ENDBRANCH  15  17
ENDBRANCH   7  15
TORSDOF 5
ENDMDL
MODEL 5
REMARK VINA RESULT:      -8.2      2.503      4.141
REMARK  Name = 
REMARK  5 active torsions:
REMARK  status: ('A' for Active; 'I' for Inactive)
REMARK    1  A    between atoms: C_2  and  O_3
REMARK    2  A    between atoms: C_2  and  C_4
REMARK    3  A    between atoms: C_10  and  N_11
REMARK    4  A    between atoms: N_11  and  C_12
REMARK    5  A    between atoms: C_12  and  C_13
REMARK                            x       y       z     vdW  Elec       q    Type
REMARK                         _______ _______ _______ _____ _____    ______ ____
ROOT
ATOM      1  C   UNL     1       7.371   6.004  17.672  0.00  0.00    +0.000 A 
ATOM      2  N   UNL     1       7.810   6.805  16.677  0.00  0.00    +0.000 NA
ATOM      3  N   UNL     1       7.210   6.296  15.578  0.00  0.00    +0.000 N 
ATOM      4  C   UNL     1       6.380   5.237  15.828  0.00  0.00    +0.000 A 
ATOM      5  C   UNL     1       5.571   4.463  14.993  0.00  0.00    +0.000 A 
ATOM      6  C   UNL     1       4.800   3.466  15.608  0.00  0.00    +0.000 A 
ATOM      7  C   UNL     1       4.867   3.209  16.984  0.00  0.00    +0.000 A 
ATOM      8  C   UNL     1       5.694   4.005  17.783  0.00  0.00    +0.000 A 
ATOM      9  C   UNL     1       6.461   5.027  17.197  0.00  0.00    +0.000 A 
ATOM     10  H   UNL     1       7.395   6.729  14.679  0.00  0.00    +0.000 HD
ENDROOT
BRANCH   1  12
ATOM     11  O   UNL     1       7.534   5.493  19.998  0.00  0.00    +0.000 OA
ATOM     12  C   UNL     1       7.825   6.207  19.049  0.00  0.00    +0.000 C 
BRANCH  12  13
ATOM     13  O   UNL     1       8.628   7.302  19.173  0.00  0.00    +0.000 OA
ATOM     14  H   UNL     1       8.104   7.964  19.683  0.00  0.00    +0.000 HD
ENDBRANCH  12  13
ENDBRANCH   1  12
BRANCH   7  15
ATOM     15  N   UNL     1       3.994   2.252  17.521  0.00  0.00    +0.000 N 
ATOM     16  H   UNL     1       4.142   1.363  17.042  0.00  0.00    +0.000 HD
BRANCH  15  17
ATOM     17  C   UNL     1       2.554   2.571  17.507  0.00  0.00    +0.000 C 
BRANCH  17  18
ATOM     18  C   UNL     1       2.128   3.132  18.847  0.00  0.00    +0.000 A 
ATOM     19  C   UNL     1       1.791   2.257  19.900  0.00  0.00    +0.000 A 
ATOM     20  C   UNL     1       1.447   2.745  21.151  0.00  0.00    +0.000 A 
ATOM     21  C   UNL     1       1.456   4.115  21.374  0.00  0.00    +0.000 A 
ATOM     22  C   UNL     1       1.815   5.000  20.346  0.00  0.00    +0.000 A 
ATOM     23  C   UNL     1       1.843   6.381  20.573  0.00  0.00    +0.000 A 
ATOM     24  C   UNL     1       2.213   7.245  19.553  0.00  0.00    +0.000 A 
ATOM     25  C   UNL     1       2.546   6.695  18.333  0.00  0.00    +0.000 A 
ATOM     26  N   UNL     1       2.527   5.365  18.073  0.00  0.00    +0.000 NA
ATOM     27  C   UNL     1       2.166   4.517  19.061  0.00  0.00    +0.000 A 
ENDBRANCH  17  18
ENDBRANCH  15  17
ENDBRANCH   7  15
TORSDOF 5
ENDMDL
MODEL 6
REMARK VINA RESULT:      -8.2      1.970      2.420
REMARK  Name = 
REMARK  5 active torsions:
REMARK  status: ('A' for Active; 'I' for Inactive)
REMARK    1  A    between atoms: C_2  and  O_3
REMARK    2  A    between atoms: C_2  and  C_4
REMARK    3  A    between atoms: C_10  and  N_11
REMARK    4  A    between atoms: N_11  and  C_12
REMARK    5  A    between atoms: C_12  and  C_13
REMARK                            x       y       z     vdW  Elec       q    Type
REMARK                         _______ _______ _______ _____ _____    ______ ____
ROOT
ATOM      1  C   UNL     1       6.933   4.617  16.065  0.00  0.00    +0.000 A 
ATOM      2  N   UNL     1       8.069   4.183  16.654  0.00  0.00    +0.000 NA
ATOM      3  N   UNL     1       7.826   4.360  17.971  0.00  0.00    +0.000 N 
ATOM      4  C   UNL     1       6.578   4.847  18.254  0.00  0.00    +0.000 A 
ATOM      5  C   UNL     1       5.938   5.138  19.461  0.00  0.00    +0.000 A 
ATOM      6  C   UNL     1       4.612   5.588  19.379  0.00  0.00    +0.000 A 
ATOM      7  C   UNL     1       3.965   5.793  18.153  0.00  0.00    +0.000 A 
ATOM      8  C   UNL     1       4.645   5.494  16.968  0.00  0.00    +0.000 A 
ATOM      9  C   UNL     1       5.967   5.019  17.021  0.00  0.00    +0.000 A 
ATOM     10  H   UNL     1       8.550   4.112  18.636  0.00  0.00    +0.000 HD
ENDROOT
BRANCH   1  12
ATOM     11  O   UNL     1       7.159   5.530  13.871  0.00  0.00    +0.000 OA
ATOM     12  C   UNL     1       6.803   4.620  14.606  0.00  0.00    +0.000 C 
BRANCH  12  13
ATOM     13  O   UNL     1       6.228   3.477  14.136  0.00  0.00    +0.000 OA
ATOM     14  H   UNL     1       6.439   3.445  13.173  0.00  0.00    +0.000 HD
ENDBRANCH  12  13
ENDBRANCH   1  12
BRANCH   7  15
ATOM     15  N   UNL     1       2.611   6.161  18.173  0.00  0.00    +0.000 N 
ATOM     16  H   UNL     1       2.432   6.808  17.405  0.00  0.00    +0.000 HD
BRANCH  15  17
ATOM     17  C   UNL     1       2.091   6.743  19.425  0.00  0.00    +0.000 C 
BRANCH  17  18
ATOM     18  C   UNL     1       1.795   8.215  19.236  0.00  0.00    +0.000 A 
ATOM     19  C   UNL     1       2.149   8.853  18.029  0.00  0.00    +0.000 A 
ATOM     20  C   UNL     1       1.843  10.188  17.811  0.00  0.00    +0.000 A 
ATOM     21  C   UNL     1       1.160  10.899  18.789  0.00  0.00    +0.000 A 
ATOM     22  C   UNL     1       0.776  10.272  19.984  0.00  0.00    +0.000 A 
ATOM     23  C   UNL     1       0.070  10.981  20.964  0.00  0.00    +0.000 A 
ATOM     24  C   UNL     1      -0.317  10.348  22.136  0.00  0.00    +0.000 A 
ATOM     25  C   UNL     1       0.017   9.018  22.289  0.00  0.00    +0.000 A 
ATOM     26  N   UNL     1       0.703   8.300  21.367  0.00  0.00    +0.000 NA
ATOM     27  C   UNL     1       1.084   8.911  20.223  0.00  0.00    +0.000 A 
ENDBRANCH  17  18
ENDBRANCH  15  17
ENDBRANCH   7  15
TORSDOF 5
ENDMDL
MODEL 7
REMARK VINA RESULT:      -8.2      2.149      2.952
REMARK  Name = 
REMARK  5 active torsions:
REMARK  status: ('A' for Active; 'I' for Inactive)
REMARK    1  A    between atoms: C_2  and  O_3
REMARK    2  A    between atoms: C_2  and  C_4
REMARK    3  A    between atoms: C_10  and  N_11
REMARK    4  A    between atoms: N_11  and  C_12
REMARK    5  A    between atoms: C_12  and  C_13
REMARK                            x       y       z     vdW  Elec       q    Type
REMARK                         _______ _______ _______ _____ _____    ______ ____
ROOT
ATOM      1  C   UNL     1       3.935   3.131  17.982  0.00  0.00    +0.000 A 
ATOM      2  N   UNL     1       3.583   1.854  17.716  0.00  0.00    +0.000 NA
ATOM      3  N   UNL     1       2.480   1.669  18.476  0.00  0.00    +0.000 N 
ATOM      4  C   UNL     1       2.090   2.776  19.181  0.00  0.00    +0.000 A 
ATOM      5  C   UNL     1       1.013   3.006  20.040  0.00  0.00    +0.000 A 
ATOM      6  C   UNL     1       0.889   4.303  20.563  0.00  0.00    +0.000 A 
ATOM      7  C   UNL     1       1.822   5.313  20.289  0.00  0.00    +0.000 A 
ATOM      8  C   UNL     1       2.887   5.037  19.427  0.00  0.00    +0.000 A 
ATOM      9  C   UNL     1       3.024   3.753  18.871  0.00  0.00    +0.000 A 
ATOM     10  H   UNL     1       2.025   0.764  18.458  0.00  0.00    +0.000 HD
ENDROOT
BRANCH   1  12
ATOM     11  O   UNL     1       5.235   4.013  16.184  0.00  0.00    +0.000 OA
ATOM     12  C   UNL     1       5.127   3.720  17.366  0.00  0.00    +0.000 C 
BRANCH  12  13
ATOM     13  O   UNL     1       6.131   3.915  18.267  0.00  0.00    +0.000 OA
ATOM     14  H   UNL     1       6.354   4.875  18.219  0.00  0.00    +0.000 HD
ENDBRANCH  12  13
ENDBRANCH   1  12
BRANCH   7  15
ATOM     15  N   UNL     1       1.566   6.600  20.786  0.00  0.00    +0.000 N 
ATOM     16  H   UNL     1       0.558   6.757  20.792  0.00  0.00    +0.000 HD
BRANCH  15  17
ATOM     17  C   UNL     1       2.226   7.728  20.103  0.00  0.00    +0.000 C 
BRANCH  17  18
ATOM     18  C   UNL     1       1.244   8.859  19.888  0.00  0.00    +0.000 A 
ATOM     19  C   UNL     1       0.940   9.287  18.580  0.00  0.00    +0.000 A 
ATOM     20  C   UNL     1       0.005  10.286  18.354  0.00  0.00    +0.000 A 
ATOM     21  C   UNL     1      -0.655  10.858  19.433  0.00  0.00    +0.000 A 
ATOM     22  C   UNL     1      -0.385  10.425  20.741  0.00  0.00    +0.000 A 
ATOM     23  C   UNL     1      -1.063  10.986  21.830  0.00  0.00    +0.000 A 
ATOM     24  C   UNL     1      -0.798  10.541  23.117  0.00  0.00    +0.000 A 
ATOM     25  C   UNL     1       0.141   9.543  23.272  0.00  0.00    +0.000 A 
ATOM     26  N   UNL     1       0.821   8.978  22.244  0.00  0.00    +0.000 NA
ATOM     27  C   UNL     1       0.569   9.408  20.988  0.00  0.00    +0.000 A 
ENDBRANCH  17  18
ENDBRANCH  15  17
ENDBRANCH   7  15
TORSDOF 5
ENDMDL
MODEL 8
REMARK VINA RESULT:      -8.1      2.771      6.526
REMARK  Name = 
REMARK  5 active torsions:
REMARK  status: ('A' for Active; 'I' for Inactive)
REMARK    1  A    between atoms: C_2  and  O_3
REMARK    2  A    between atoms: C_2  and  C_4
REMARK    3  A    between atoms: C_10  and  N_11
REMARK    4  A    between atoms: N_11  and  C_12
REMARK    5  A    between atoms: C_12  and  C_13
REMARK                            x       y       z     vdW  Elec       q    Type
REMARK                         _______ _______ _______ _____ _____    ______ ____
ROOT
ATOM      1  C   UNL     1       1.902   8.042  19.075  0.00  0.00    +0.000 A 
ATOM      2  N   UNL     1       1.690   8.541  20.312  0.00  0.00    +0.000 NA
ATOM      3  N   UNL     1       1.660   7.439  21.094  0.00  0.00    +0.000 N 
ATOM      4  C   UNL     1       1.883   6.266  20.423  0.00  0.00    +0.000 A 
ATOM      5  C   UNL     1       1.961   4.941  20.856  0.00  0.00    +0.000 A 
ATOM      6  C   UNL     1       2.256   3.976  19.882  0.00  0.00    +0.000 A 
ATOM      7  C   UNL     1       2.415   4.301  18.528  0.00  0.00    +0.000 A 
ATOM      8  C   UNL     1       2.324   5.641  18.137  0.00  0.00    +0.000 A 
ATOM      9  C   UNL     1       2.051   6.633  19.096  0.00  0.00    +0.000 A 
ATOM     10  H   UNL     1       1.500   7.553  22.088  0.00  0.00    +0.000 HD
ENDROOT
BRANCH   1  12
ATOM     11  O   UNL     1       2.810   8.868  17.028  0.00  0.00    +0.000 OA
ATOM     12  C   UNL     1       1.968   8.930  17.912  0.00  0.00    +0.000 C 
BRANCH  12  13
ATOM     13  O   UNL     1       0.971   9.859  17.913  0.00  0.00    +0.000 OA
ATOM     14  H   UNL     1       0.925  10.207  16.992  0.00  0.00    +0.000 HD
ENDBRANCH  12  13
ENDBRANCH   1  12
BRANCH   7  15
ATOM     15  N   UNL     1       2.795   3.281  17.643  0.00  0.00    +0.000 N 
ATOM     16  H   UNL     1       2.194   2.471  17.794  0.00  0.00    +0.000 HD
BRANCH  15  17
ATOM     17  C   UNL     1       4.204   2.849  17.681  0.00  0.00    +0.000 C 
BRANCH  17  18
ATOM     18  C   UNL     1       5.068   3.804  16.885  0.00  0.00    +0.000 A 
ATOM     19  C   UNL     1       4.901   3.903  15.489  0.00  0.00    +0.000 A 
ATOM     20  C   UNL     1       5.644   4.807  14.744  0.00  0.00    +0.000 A 
ATOM     21  C   UNL     1       6.549   5.640  15.388  0.00  0.00    +0.000 A 
ATOM     22  C   UNL     1       6.708   5.573  16.781  0.00  0.00    +0.000 A 
ATOM     23  C   UNL     1       7.607   6.424  17.436  0.00  0.00    +0.000 A 
ATOM     24  C   UNL     1       7.746   6.359  18.814  0.00  0.00    +0.000 A 
ATOM     25  C   UNL     1       6.975   5.440  19.496  0.00  0.00    +0.000 A 
ATOM     26  N   UNL     1       6.099   4.596  18.898  0.00  0.00    +0.000 NA
ATOM     27  C   UNL     1       5.960   4.653  17.555  0.00  0.00    +0.000 A 
ENDBRANCH  17  18
ENDBRANCH  15  17
ENDBRANCH   7  15
TORSDOF 5
ENDMDL
MODEL 9
REMARK VINA RESULT:      -8.0      1.331      1.920
REMARK  Name = 
REMARK  5 active torsions:
REMARK  status: ('A' for Active; 'I' for Inactive)
REMARK    1  A    between atoms: C_2  and  O_3
REMARK    2  A    between atoms: C_2  and  C_4
REMARK    3  A    between atoms: C_10  and  N_11
REMARK    4  A    between atoms: N_11  and  C_12
REMARK    5  A    between atoms: C_12  and  C_13
REMARK                            x       y       z     vdW  Elec       q    Type
REMARK                         _______ _______ _______ _____ _____    ______ ____
ROOT
ATOM      1  C   UNL     1       6.538   5.688  18.115  0.00  0.00    +0.000 A 
ATOM      2  N   UNL     1       7.016   4.442  18.324  0.00  0.00    +0.000 NA
ATOM      3  N   UNL     1       5.906   3.725  18.607  0.00  0.00    +0.000 N 
ATOM      4  C   UNL     1       4.741   4.442  18.548  0.00  0.00    +0.000 A 
ATOM      5  C   UNL     1       3.407   4.078  18.740  0.00  0.00    +0.000 A 
ATOM      6  C   UNL     1       2.445   5.081  18.550  0.00  0.00    +0.000 A 
ATOM      7  C   UNL     1       2.793   6.403  18.238  0.00  0.00    +0.000 A 
ATOM      8  C   UNL     1       4.142   6.725  18.060  0.00  0.00    +0.000 A 
ATOM      9  C   UNL     1       5.126   5.734  18.221  0.00  0.00    +0.000 A 
ATOM     10  H   UNL     1       6.006   2.738  18.817  0.00  0.00    +0.000 HD
ENDROOT
BRANCH   1  12
ATOM     11  O   UNL     1       7.474   7.408  16.749  0.00  0.00    +0.000 OA
ATOM     12  C   UNL     1       7.448   6.794  17.806  0.00  0.00    +0.000 C 
BRANCH  12  13
ATOM     13  O   UNL     1       8.284   7.081  18.843  0.00  0.00    +0.000 OA
ATOM     14  H   UNL     1       8.934   6.340  18.878  0.00  0.00    +0.000 HD
ENDBRANCH  12  13
ENDBRANCH   1  12
BRANCH   7  15
ATOM     15  N   UNL     1       1.759   7.315  17.982  0.00  0.00    +0.000 N 
ATOM     16  H   UNL     1       1.350   7.105  17.071  0.00  0.00    +0.000 HD
BRANCH  15  17
ATOM     17  C   UNL     1       2.098   8.749  18.037  0.00  0.00    +0.000 C 
BRANCH  17  18
ATOM     18  C   UNL     1       0.953   9.537  18.637  0.00  0.00    +0.000 A 
ATOM     19  C   UNL     1       0.039  10.201  17.794  0.00  0.00    +0.000 A 
ATOM     20  C   UNL     1      -1.048  10.885  18.316  0.00  0.00    +0.000 A 
ATOM     21  C   UNL     1      -1.248  10.899  19.690  0.00  0.00    +0.000 A 
ATOM     22  C   UNL     1      -0.363  10.221  20.543  0.00  0.00    +0.000 A 
ATOM     23  C   UNL     1      -0.572  10.217  21.928  0.00  0.00    +0.000 A 
ATOM     24  C   UNL     1       0.300   9.532  22.760  0.00  0.00    +0.000 A 
ATOM     25  C   UNL     1       1.359   8.869  22.176  0.00  0.00    +0.000 A 
ATOM     26  N   UNL     1       1.598   8.853  20.841  0.00  0.00    +0.000 NA
ATOM     27  C   UNL     1       0.753   9.520  20.025  0.00  0.00    +0.000 A 
ENDBRANCH  17  18
ENDBRANCH  15  17
ENDBRANCH   7  15
TORSDOF 5
ENDMDL
