MODEL 1
REMARK VINA RESULT:      -7.5      0.000      0.000
REMARK  Name = 
REMARK  6 active torsions:
REMARK  status: ('A' for Active; 'I' for Inactive)
REMARK    1  A    between atoms: C_1  and  C_2
REMARK    2  A    between atoms: C_6  and  C_7
REMARK    3  A    between atoms: N_9  and  C_10
REMARK    4  A    between atoms: C_18  and  C_19
REMARK    5  A    between atoms: C_24  and  C_25
REMARK    6  A    between atoms: C_24  and  O_26
REMARK                            x       y       z     vdW  Elec       q    Type
REMARK                         _______ _______ _______ _____ _____    ______ ____
ROOT
ATOM      1  C   UNL     1       3.630   6.836  17.399  0.00  0.00    +0.000 A 
ATOM      2  N   UNL     1       3.404   8.157  17.524  0.00  0.00    +0.000 NA
ATOM      3  N   UNL     1       2.182   8.265  18.088  0.00  0.00    +0.000 N 
ATOM      4  C   UNL     1       1.550   7.051  18.140  0.00  0.00    +0.000 A 
ATOM      5  C   UNL     1       2.487   6.088  17.827  0.00  0.00    +0.000 A 
ENDROOT
BRANCH   5   6
ATOM      6  C   UNL     1       2.281   4.648  17.842  0.00  0.00    +0.000 C 
ATOM      7  O   UNL     1       1.844   4.079  16.845  0.00  0.00    +0.000 OA
ATOM      8  N   UNL     1       2.601   3.942  19.007  0.00  0.00    +0.000 N 
ATOM      9  C   UNL     1       3.200   4.471  20.232  0.00  0.00    +0.000 C 
ATOM     10  C   UNL     1       2.257   4.205  21.406  0.00  0.00    +0.000 C 
ATOM     11  C   UNL     1       1.993   2.696  21.543  0.00  0.00    +0.000 C 
ATOM     12  C   UNL     1       1.002   2.406  22.669  0.00  0.00    +0.000 C 
ATOM     13  C   UNL     1       1.483   2.117  20.211  0.00  0.00    +0.000 C 
ATOM     14  C   UNL     1       2.390   2.495  19.041  0.00  0.00    +0.000 C 
BRANCH  11  15
ATOM     15  O   UNL     1       3.225   2.045  21.874  0.00  0.00    +0.000 OA
ATOM     16  H   UNL     1       3.027   1.306  22.476  0.00  0.00    +0.000 HD
ENDBRANCH  11  15
ENDBRANCH   5   6
BRANCH   1  22
ATOM     17  C   UNL     1       6.286   4.109  14.145  0.00  0.00    +0.000 C 
ATOM     18  C   UNL     1       6.247   5.009  15.344  0.00  0.00    +0.000 A 
ATOM     19  C   UNL     1       7.416   5.395  16.004  0.00  0.00    +0.000 A 
ATOM     20  C   UNL     1       7.350   6.242  17.110  0.00  0.00    +0.000 A 
ATOM     21  C   UNL     1       6.113   6.714  17.562  0.00  0.00    +0.000 A 
ATOM     22  C   UNL     1       4.927   6.346  16.913  0.00  0.00    +0.000 A 
ATOM     23  C   UNL     1       5.010   5.483  15.810  0.00  0.00    +0.000 A 
ENDBRANCH   1  22
BRANCH   3  24
ATOM     24  C   UNL     1       1.689   9.506  18.582  0.00  0.00    +0.000 A 
ATOM     25  C   UNL     1       2.202  10.710  18.077  0.00  0.00    +0.000 A 
ATOM     26  C   UNL     1       1.730  11.931  18.569  0.00  0.00    +0.000 A 
ATOM     27  C   UNL     1       0.766  11.944  19.571  0.00  0.00    +0.000 A 
ATOM     28  F   UNL     1       0.321  13.115  20.045  0.00  0.00    +0.000 F 
ATOM     29  C   UNL     1       0.262  10.761  20.094  0.00  0.00    +0.000 A 
ATOM     30  C   UNL     1       0.719   9.538  19.599  0.00  0.00    +0.000 A 
ENDBRANCH   3  24
TORSDOF 4
ENDMDL
MODEL 2
REMARK VINA RESULT:      -7.4      4.668      9.278
REMARK  Name = 
REMARK  6 active torsions:
REMARK  status: ('A' for Active; 'I' for Inactive)
REMARK    1  A    between atoms: C_1  and  C_2
REMARK    2  A    between atoms: C_6  and  C_7
REMARK    3  A    between atoms: N_9  and  C_10
REMARK    4  A    between atoms: C_18  and  C_19
REMARK    5  A    between atoms: C_24  and  C_25
REMARK    6  A    between atoms: C_24  and  O_26
REMARK                            x       y       z     vdW  Elec       q    Type
REMARK                         _______ _______ _______ _____ _____    ______ ____
ROOT
ATOM      1  C   UNL     1      -0.442  10.190  18.627  0.00  0.00    +0.000 A 
ATOM      2  N   UNL     1       0.359   9.267  18.063  0.00  0.00    +0.000 NA
ATOM      3  N   UNL     1       1.338   9.038  18.963  0.00  0.00    +0.000 N 
ATOM      4  C   UNL     1       1.286   9.937  19.996  0.00  0.00    +0.000 A 
ATOM      5  C   UNL     1       0.087  10.613  19.889  0.00  0.00    +0.000 A 
ENDROOT
BRANCH   5   6
ATOM      6  C   UNL     1      -0.431  11.602  20.820  0.00  0.00    +0.000 C 
ATOM      7  O   UNL     1      -1.206  11.261  21.710  0.00  0.00    +0.000 OA
ATOM      8  N   UNL     1      -0.017  12.931  20.680  0.00  0.00    +0.000 N 
ATOM      9  C   UNL     1       0.956  13.463  19.726  0.00  0.00    +0.000 C 
ATOM     10  C   UNL     1       0.278  14.525  18.859  0.00  0.00    +0.000 C 
ATOM     11  C   UNL     1      -0.282  15.652  19.744  0.00  0.00    +0.000 C 
ATOM     12  C   UNL     1      -1.023  16.697  18.909  0.00  0.00    +0.000 C 
ATOM     13  C   UNL     1      -1.207  15.073  20.829  0.00  0.00    +0.000 C 
ATOM     14  C   UNL     1      -0.537  13.938  21.603  0.00  0.00    +0.000 C 
BRANCH  11  15
ATOM     15  O   UNL     1       0.811  16.313  20.390  0.00  0.00    +0.000 OA
ATOM     16  H   UNL     1       0.640  17.271  20.376  0.00  0.00    +0.000 HD
ENDBRANCH  11  15
ENDBRANCH   5   6
BRANCH   1  22
ATOM     17  C   UNL     1      -3.406  10.171  14.590  0.00  0.00    +0.000 C 
ATOM     18  C   UNL     1      -3.145  10.620  15.997  0.00  0.00    +0.000 A 
ATOM     19  C   UNL     1      -4.060  11.418  16.688  0.00  0.00    +0.000 A 
ATOM     20  C   UNL     1      -3.797  11.812  17.999  0.00  0.00    +0.000 A 
ATOM     21  C   UNL     1      -2.617  11.408  18.632  0.00  0.00    +0.000 A 
ATOM     22  C   UNL     1      -1.686  10.603  17.961  0.00  0.00    +0.000 A 
ATOM     23  C   UNL     1      -1.960  10.226  16.638  0.00  0.00    +0.000 A 
ENDBRANCH   1  22
BRANCH   3  24
ATOM     24  C   UNL     1       2.255   7.958  18.819  0.00  0.00    +0.000 A 
ATOM     25  C   UNL     1       3.089   7.898  17.693  0.00  0.00    +0.000 A 
ATOM     26  C   UNL     1       3.979   6.831  17.540  0.00  0.00    +0.000 A 
ATOM     27  C   UNL     1       4.021   5.824  18.498  0.00  0.00    +0.000 A 
ATOM     28  F   UNL     1       4.871   4.800  18.345  0.00  0.00    +0.000 F 
ATOM     29  C   UNL     1       3.188   5.860  19.609  0.00  0.00    +0.000 A 
ATOM     30  C   UNL     1       2.305   6.928  19.775  0.00  0.00    +0.000 A 
ENDBRANCH   3  24
TORSDOF 4
ENDMDL
MODEL 3
REMARK VINA RESULT:      -7.3      1.612      2.375
REMARK  Name = 
REMARK  6 active torsions:
REMARK  status: ('A' for Active; 'I' for Inactive)
REMARK    1  A    between atoms: C_1  and  C_2
REMARK    2  A    between atoms: C_6  and  C_7
REMARK    3  A    between atoms: N_9  and  C_10
REMARK    4  A    between atoms: C_18  and  C_19
REMARK    5  A    between atoms: C_24  and  C_25
REMARK    6  A    between atoms: C_24  and  O_26
REMARK                            x       y       z     vdW  Elec       q    Type
REMARK                         _______ _______ _______ _____ _____    ______ ____
ROOT
ATOM      1  C   UNL     1       3.055   7.378  18.504  0.00  0.00    +0.000 A 
ATOM      2  N   UNL     1       2.805   8.585  17.962  0.00  0.00    +0.000 NA
ATOM      3  N   UNL     1       1.790   9.104  18.685  0.00  0.00    +0.000 N 
ATOM      4  C   UNL     1       1.262   8.174  19.541  0.00  0.00    +0.000 A 
ATOM      5  C   UNL     1       2.120   7.093  19.551  0.00  0.00    +0.000 A 
ENDROOT
BRANCH   5   6
ATOM      6  C   UNL     1       2.002   5.906  20.383  0.00  0.00    +0.000 C 
ATOM      7  O   UNL     1       2.110   5.998  21.603  0.00  0.00    +0.000 OA
ATOM      8  N   UNL     1       1.756   4.678  19.760  0.00  0.00    +0.000 N 
ATOM      9  C   UNL     1       1.527   4.433  18.336  0.00  0.00    +0.000 C 
ATOM     10  C   UNL     1       2.590   3.463  17.817  0.00  0.00    +0.000 C 
ATOM     11  C   UNL     1       2.534   2.144  18.607  0.00  0.00    +0.000 C 
ATOM     12  C   UNL     1       3.629   1.179  18.153  0.00  0.00    +0.000 C 
ATOM     13  C   UNL     1       2.648   2.418  20.117  0.00  0.00    +0.000 C 
ATOM     14  C   UNL     1       1.645   3.474  20.582  0.00  0.00    +0.000 C 
BRANCH  11  15
ATOM     15  O   UNL     1       1.273   1.514  18.357  0.00  0.00    +0.000 OA
ATOM     16  H   UNL     1       0.642   2.198  18.072  0.00  0.00    +0.000 HD
ENDBRANCH  11  15
ENDBRANCH   5   6
BRANCH   1  22
ATOM     17  C   UNL     1       5.692   5.424  14.721  0.00  0.00    +0.000 C 
ATOM     18  C   UNL     1       5.482   5.590  16.197  0.00  0.00    +0.000 A 
ATOM     19  C   UNL     1       6.339   4.995  17.126  0.00  0.00    +0.000 A 
ATOM     20  C   UNL     1       6.126   5.175  18.493  0.00  0.00    +0.000 A 
ATOM     21  C   UNL     1       5.055   5.956  18.940  0.00  0.00    +0.000 A 
ATOM     22  C   UNL     1       4.185   6.568  18.027  0.00  0.00    +0.000 A 
ATOM     23  C   UNL     1       4.406   6.366  16.657  0.00  0.00    +0.000 A 
ENDBRANCH   1  22
BRANCH   3  24
ATOM     24  C   UNL     1       1.393  10.465  18.554  0.00  0.00    +0.000 A 
ATOM     25  C   UNL     1       2.353  11.446  18.264  0.00  0.00    +0.000 A 
ATOM     26  C   UNL     1       1.969  12.785  18.149  0.00  0.00    +0.000 A 
ATOM     27  C   UNL     1       0.639  13.141  18.341  0.00  0.00    +0.000 A 
ATOM     28  F   UNL     1       0.276  14.426  18.237  0.00  0.00    +0.000 F 
ATOM     29  C   UNL     1      -0.320  12.184  18.647  0.00  0.00    +0.000 A 
ATOM     30  C   UNL     1       0.053  10.843  18.751  0.00  0.00    +0.000 A 
ENDBRANCH   3  24
TORSDOF 4
ENDMDL
MODEL 4
REMARK VINA RESULT:      -7.2      4.972      8.591
REMARK  Name = 
REMARK  6 active torsions:
REMARK  status: ('A' for Active; 'I' for Inactive)
REMARK    1  A    between atoms: C_1  and  C_2
REMARK    2  A    between atoms: C_6  and  C_7
REMARK    3  A    between atoms: N_9  and  C_10
REMARK    4  A    between atoms: C_18  and  C_19
REMARK    5  A    between atoms: C_24  and  C_25
REMARK    6  A    between atoms: C_24  and  O_26
REMARK                            x       y       z     vdW  Elec       q    Type
REMARK                         _______ _______ _______ _____ _____    ______ ____
ROOT
ATOM      1  C   UNL     1      -0.541  10.694  19.812  0.00  0.00    +0.000 A 
ATOM      2  N   UNL     1      -1.790  10.494  19.352  0.00  0.00    +0.000 NA
ATOM      3  N   UNL     1      -2.373  11.712  19.347  0.00  0.00    +0.000 N 
ATOM      4  C   UNL     1      -1.591  12.641  19.979  0.00  0.00    +0.000 A 
ATOM      5  C   UNL     1      -0.353  12.064  20.181  0.00  0.00    +0.000 A 
ENDROOT
BRANCH   5   6
ATOM      6  C   UNL     1       0.820  12.715  20.743  0.00  0.00    +0.000 C 
ATOM      7  O   UNL     1       0.884  12.928  21.951  0.00  0.00    +0.000 OA
ATOM      8  N   UNL     1       1.860  13.075  19.880  0.00  0.00    +0.000 N 
ATOM      9  C   UNL     1       1.954  12.812  18.444  0.00  0.00    +0.000 C 
ATOM     10  C   UNL     1       2.081  14.143  17.699  0.00  0.00    +0.000 C 
ATOM     11  C   UNL     1       3.320  14.910  18.190  0.00  0.00    +0.000 C 
ATOM     12  C   UNL     1       3.436  16.273  17.509  0.00  0.00    +0.000 C 
ATOM     13  C   UNL     1       3.279  15.072  19.720  0.00  0.00    +0.000 C 
ATOM     14  C   UNL     1       3.041  13.739  20.429  0.00  0.00    +0.000 C 
BRANCH  11  15
ATOM     15  O   UNL     1       4.489  14.157  17.849  0.00  0.00    +0.000 OA
ATOM     16  H   UNL     1       5.272  14.698  18.053  0.00  0.00    +0.000 HD
ENDBRANCH  11  15
ENDBRANCH   5   6
BRANCH   1  22
ATOM     17  C   UNL     1       2.977   7.935  17.554  0.00  0.00    +0.000 C 
ATOM     18  C   UNL     1       2.135   8.214  18.764  0.00  0.00    +0.000 A 
ATOM     19  C   UNL     1       2.252   7.446  19.925  0.00  0.00    +0.000 A 
ATOM     20  C   UNL     1       1.464   7.734  21.039  0.00  0.00    +0.000 A 
ATOM     21  C   UNL     1       0.555   8.797  21.001  0.00  0.00    +0.000 A 
ATOM     22  C   UNL     1       0.424   9.586  19.849  0.00  0.00    +0.000 A 
ATOM     23  C   UNL     1       1.215   9.274  18.734  0.00  0.00    +0.000 A 
ENDBRANCH   1  22
BRANCH   3  24
ATOM     24  C   UNL     1      -3.628  11.942  18.715  0.00  0.00    +0.000 A 
ATOM     25  C   UNL     1      -4.677  12.528  19.439  0.00  0.00    +0.000 A 
ATOM     26  C   UNL     1      -5.915  12.742  18.825  0.00  0.00    +0.000 A 
ATOM     27  C   UNL     1      -6.106  12.355  17.503  0.00  0.00    +0.000 A 
ATOM     28  F   UNL     1      -7.295  12.556  16.921  0.00  0.00    +0.000 F 
ATOM     29  C   UNL     1      -5.083  11.757  16.779  0.00  0.00    +0.000 A 
ATOM     30  C   UNL     1      -3.841  11.551  17.381  0.00  0.00    +0.000 A 
ENDBRANCH   3  24
TORSDOF 4
ENDMDL
MODEL 5
REMARK VINA RESULT:      -7.2      5.399     11.043
REMARK  Name = 
REMARK  6 active torsions:
REMARK  status: ('A' for Active; 'I' for Inactive)
REMARK    1  A    between atoms: C_1  and  C_2
REMARK    2  A    between atoms: C_6  and  C_7
REMARK    3  A    between atoms: N_9  and  C_10
REMARK    4  A    between atoms: C_18  and  C_19
REMARK    5  A    between atoms: C_24  and  C_25
REMARK    6  A    between atoms: C_24  and  O_26
REMARK                            x       y       z     vdW  Elec       q    Type
REMARK                         _______ _______ _______ _____ _____    ______ ____
ROOT
ATOM      1  C   UNL     1      -0.958  11.994  20.766  0.00  0.00    +0.000 A 
ATOM      2  N   UNL     1      -0.756  10.810  20.158  0.00  0.00    +0.000 NA
ATOM      3  N   UNL     1       0.574  10.738  19.937  0.00  0.00    +0.000 N 
ATOM      4  C   UNL     1       1.189  11.931  20.210  0.00  0.00    +0.000 A 
ATOM      5  C   UNL     1       0.269  12.725  20.863  0.00  0.00    +0.000 A 
ENDROOT
BRANCH   5   6
ATOM      6  C   UNL     1       0.512  14.047  21.418  0.00  0.00    +0.000 C 
ATOM      7  O   UNL     1       0.555  14.205  22.636  0.00  0.00    +0.000 OA
ATOM      8  N   UNL     1       0.703  15.116  20.535  0.00  0.00    +0.000 N 
ATOM      9  C   UNL     1       0.758  15.062  19.074  0.00  0.00    +0.000 C 
ATOM     10  C   UNL     1      -0.343  15.956  18.499  0.00  0.00    +0.000 C 
ATOM     11  C   UNL     1      -0.165  17.402  18.993  0.00  0.00    +0.000 C 
ATOM     12  C   UNL     1      -1.289  18.304  18.485  0.00  0.00    +0.000 C 
ATOM     13  C   UNL     1      -0.095  17.438  20.530  0.00  0.00    +0.000 C 
ATOM     14  C   UNL     1       0.937  16.453  21.077  0.00  0.00    +0.000 C 
BRANCH  11  15
ATOM     15  O   UNL     1       1.067  17.914  18.474  0.00  0.00    +0.000 OA
ATOM     16  H   UNL     1       0.859  18.566  17.782  0.00  0.00    +0.000 HD
ENDBRANCH  11  15
ENDBRANCH   5   6
BRANCH   1  22
ATOM     17  C   UNL     1      -4.184  12.547  24.557  0.00  0.00    +0.000 C 
ATOM     18  C   UNL     1      -3.894  12.626  23.088  0.00  0.00    +0.000 A 
ATOM     19  C   UNL     1      -4.865  13.045  22.176  0.00  0.00    +0.000 A 
ATOM     20  C   UNL     1      -4.565  13.119  20.816  0.00  0.00    +0.000 A 
ATOM     21  C   UNL     1      -3.287  12.778  20.358  0.00  0.00    +0.000 A 
ATOM     22  C   UNL     1      -2.294  12.361  21.255  0.00  0.00    +0.000 A 
ATOM     23  C   UNL     1      -2.617  12.280  22.617  0.00  0.00    +0.000 A 
ENDBRANCH   1  22
BRANCH   3  24
ATOM     24  C   UNL     1       1.201   9.533  19.510  0.00  0.00    +0.000 A 
ATOM     25  C   UNL     1       1.409   8.493  20.429  0.00  0.00    +0.000 A 
ATOM     26  C   UNL     1       2.038   7.314  20.017  0.00  0.00    +0.000 A 
ATOM     27  C   UNL     1       2.470   7.185  18.702  0.00  0.00    +0.000 A 
ATOM     28  F   UNL     1       3.077   6.056  18.313  0.00  0.00    +0.000 F 
ATOM     29  C   UNL     1       2.288   8.212  17.786  0.00  0.00    +0.000 A 
ATOM     30  C   UNL     1       1.650   9.388  18.186  0.00  0.00    +0.000 A 
ENDBRANCH   3  24
TORSDOF 4
ENDMDL
MODEL 6
REMARK VINA RESULT:      -7.1      5.238      9.809
REMARK  Name = 
REMARK  6 active torsions:
REMARK  status: ('A' for Active; 'I' for Inactive)
REMARK    1  A    between atoms: C_1  and  C_2
REMARK    2  A    between atoms: C_6  and  C_7
REMARK    3  A    between atoms: N_9  and  C_10
REMARK    4  A    between atoms: C_18  and  C_19
REMARK    5  A    between atoms: C_24  and  C_25
REMARK    6  A    between atoms: C_24  and  O_26
REMARK                            x       y       z     vdW  Elec       q    Type
REMARK                         _______ _______ _______ _____ _____    ______ ____
ROOT
ATOM      1  C   UNL     1       0.023  12.500  20.195  0.00  0.00    +0.000 A 
ATOM      2  N   UNL     1       1.060  11.668  19.985  0.00  0.00    +0.000 NA
ATOM      3  N   UNL     1       0.520  10.435  19.879  0.00  0.00    +0.000 N 
ATOM      4  C   UNL     1      -0.808  10.443  20.214  0.00  0.00    +0.000 A 
ATOM      5  C   UNL     1      -1.200  11.763  20.300  0.00  0.00    +0.000 A 
ENDROOT
BRANCH   5   6
ATOM      6  C   UNL     1      -2.549  12.246  20.548  0.00  0.00    +0.000 C 
ATOM      7  O   UNL     1      -3.333  12.387  19.613  0.00  0.00    +0.000 OA
ATOM      8  N   UNL     1      -2.922  12.532  21.866  0.00  0.00    +0.000 N 
ATOM      9  C   UNL     1      -2.127  12.337  23.078  0.00  0.00    +0.000 C 
ATOM     10  C   UNL     1      -1.955  13.682  23.786  0.00  0.00    +0.000 C 
ATOM     11  C   UNL     1      -3.330  14.278  24.133  0.00  0.00    +0.000 C 
ATOM     12  C   UNL     1      -3.191  15.653  24.784  0.00  0.00    +0.000 C 
ATOM     13  C   UNL     1      -4.212  14.363  22.874  0.00  0.00    +0.000 C 
ATOM     14  C   UNL     1      -4.272  13.029  22.130  0.00  0.00    +0.000 C 
BRANCH  11  15
ATOM     15  O   UNL     1      -3.976  13.417  25.078  0.00  0.00    +0.000 OA
ATOM     16  H   UNL     1      -4.536  12.790  24.587  0.00  0.00    +0.000 HD
ENDBRANCH  11  15
ENDBRANCH   5   6
BRANCH   1  22
ATOM     17  C   UNL     1      -0.493  17.038  18.139  0.00  0.00    +0.000 C 
ATOM     18  C   UNL     1       0.007  16.180  19.262  0.00  0.00    +0.000 A 
ATOM     19  C   UNL     1       0.666  16.733  20.363  0.00  0.00    +0.000 A 
ATOM     20  C   UNL     1       1.112  15.912  21.399  0.00  0.00    +0.000 A 
ATOM     21  C   UNL     1       0.898  14.531  21.344  0.00  0.00    +0.000 A 
ATOM     22  C   UNL     1       0.234  13.953  20.252  0.00  0.00    +0.000 A 
ATOM     23  C   UNL     1      -0.196  14.791  19.213  0.00  0.00    +0.000 A 
ENDBRANCH   1  22
BRANCH   3  24
ATOM     24  C   UNL     1       1.281   9.318  19.433  0.00  0.00    +0.000 A 
ATOM     25  C   UNL     1       1.758   9.281  18.114  0.00  0.00    +0.000 A 
ATOM     26  C   UNL     1       2.493   8.179  17.668  0.00  0.00    +0.000 A 
ATOM     27  C   UNL     1       2.733   7.114  18.530  0.00  0.00    +0.000 A 
ATOM     28  F   UNL     1       3.432   6.057  18.097  0.00  0.00    +0.000 F 
ATOM     29  C   UNL     1       2.252   7.127  19.832  0.00  0.00    +0.000 A 
ATOM     30  C   UNL     1       1.528   8.230  20.289  0.00  0.00    +0.000 A 
ENDBRANCH   3  24
TORSDOF 4
ENDMDL
MODEL 7
REMARK VINA RESULT:      -7.1      1.671      2.694
REMARK  Name = 
REMARK  6 active torsions:
REMARK  status: ('A' for Active; 'I' for Inactive)
REMARK    1  A    between atoms: C_1  and  C_2
REMARK    2  A    between atoms: C_6  and  C_7
REMARK    3  A    between atoms: N_9  and  C_10
REMARK    4  A    between atoms: C_18  and  C_19
REMARK    5  A    between atoms: C_24  and  C_25
REMARK    6  A    between atoms: C_24  and  O_26
REMARK                            x       y       z     vdW  Elec       q    Type
REMARK                         _______ _______ _______ _____ _____    ______ ____
ROOT
ATOM      1  C   UNL     1       2.930   7.601  18.275  0.00  0.00    +0.000 A 
ATOM      2  N   UNL     1       2.541   8.788  17.773  0.00  0.00    +0.000 NA
ATOM      3  N   UNL     1       1.549   9.216  18.583  0.00  0.00    +0.000 N 
ATOM      4  C   UNL     1       1.169   8.239  19.463  0.00  0.00    +0.000 A 
ATOM      5  C   UNL     1       2.109   7.232  19.388  0.00  0.00    +0.000 A 
ENDROOT
BRANCH   5   6
ATOM      6  C   UNL     1       2.155   6.032  20.209  0.00  0.00    +0.000 C 
ATOM      7  O   UNL     1       2.385   6.119  21.412  0.00  0.00    +0.000 OA
ATOM      8  N   UNL     1       1.923   4.796  19.595  0.00  0.00    +0.000 N 
ATOM      9  C   UNL     1       1.561   4.551  18.199  0.00  0.00    +0.000 C 
ATOM     10  C   UNL     1       2.622   3.656  17.557  0.00  0.00    +0.000 C 
ATOM     11  C   UNL     1       2.734   2.329  18.327  0.00  0.00    +0.000 C 
ATOM     12  C   UNL     1       3.834   1.441  17.745  0.00  0.00    +0.000 C 
ATOM     13  C   UNL     1       2.989   2.596  19.821  0.00  0.00    +0.000 C 
ATOM     14  C   UNL     1       1.976   3.580  20.405  0.00  0.00    +0.000 C 
BRANCH  11  15
ATOM     15  O   UNL     1       1.496   1.621  18.200  0.00  0.00    +0.000 OA
ATOM     16  H   UNL     1       1.605   0.741  18.601  0.00  0.00    +0.000 HD
ENDBRANCH  11  15
ENDBRANCH   5   6
BRANCH   1  22
ATOM     17  C   UNL     1       7.177   5.017  18.882  0.00  0.00    +0.000 C 
ATOM     18  C   UNL     1       6.164   5.637  17.966  0.00  0.00    +0.000 A 
ATOM     19  C   UNL     1       6.287   5.550  16.578  0.00  0.00    +0.000 A 
ATOM     20  C   UNL     1       5.325   6.127  15.750  0.00  0.00    +0.000 A 
ATOM     21  C   UNL     1       4.227   6.794  16.306  0.00  0.00    +0.000 A 
ATOM     22  C   UNL     1       4.079   6.890  17.697  0.00  0.00    +0.000 A 
ATOM     23  C   UNL     1       5.063   6.315  18.514  0.00  0.00    +0.000 A 
ENDBRANCH   1  22
BRANCH   3  24
ATOM     24  C   UNL     1       1.034  10.541  18.505  0.00  0.00    +0.000 A 
ATOM     25  C   UNL     1       1.917  11.631  18.471  0.00  0.00    +0.000 A 
ATOM     26  C   UNL     1       1.415  12.934  18.409  0.00  0.00    +0.000 A 
ATOM     27  C   UNL     1       0.041  13.145  18.400  0.00  0.00    +0.000 A 
ATOM     28  F   UNL     1      -0.436  14.395  18.347  0.00  0.00    +0.000 F 
ATOM     29  C   UNL     1      -0.846  12.078  18.452  0.00  0.00    +0.000 A 
ATOM     30  C   UNL     1      -0.353  10.773  18.501  0.00  0.00    +0.000 A 
ENDBRANCH   3  24
TORSDOF 4
ENDMDL
MODEL 8
REMARK VINA RESULT:      -7.1      0.666      1.428
REMARK  Name = 
REMARK  6 active torsions:
REMARK  status: ('A' for Active; 'I' for Inactive)
REMARK    1  A    between atoms: C_1  and  C_2
REMARK    2  A    between atoms: C_6  and  C_7
REMARK    3  A    between atoms: N_9  and  C_10
REMARK    4  A    between atoms: C_18  and  C_19
REMARK    5  A    between atoms: C_24  and  C_25
REMARK    6  A    between atoms: C_24  and  O_26
REMARK                            x       y       z     vdW  Elec       q    Type
REMARK                         _______ _______ _______ _____ _____    ______ ____
ROOT
ATOM      1  C   UNL     1       3.533   6.846  17.514  0.00  0.00    +0.000 A 
ATOM      2  N   UNL     1       3.327   8.176  17.550  0.00  0.00    +0.000 NA
ATOM      3  N   UNL     1       2.033   8.333  17.902  0.00  0.00    +0.000 N 
ATOM      4  C   UNL     1       1.367   7.136  17.895  0.00  0.00    +0.000 A 
ATOM      5  C   UNL     1       2.315   6.141  17.776  0.00  0.00    +0.000 A 
ENDROOT
BRANCH   5   6
ATOM      6  C   UNL     1       2.070   4.708  17.810  0.00  0.00    +0.000 C 
ATOM      7  O   UNL     1       1.554   4.149  16.846  0.00  0.00    +0.000 OA
ATOM      8  N   UNL     1       2.444   3.995  18.955  0.00  0.00    +0.000 N 
ATOM      9  C   UNL     1       3.135   4.511  20.137  0.00  0.00    +0.000 C 
ATOM     10  C   UNL     1       2.262   4.275  21.370  0.00  0.00    +0.000 C 
ATOM     11  C   UNL     1       1.965   2.774  21.530  0.00  0.00    +0.000 C 
ATOM     12  C   UNL     1       1.039   2.515  22.719  0.00  0.00    +0.000 C 
ATOM     13  C   UNL     1       1.353   2.207  20.237  0.00  0.00    +0.000 C 
ATOM     14  C   UNL     1       2.194   2.556  19.009  0.00  0.00    +0.000 C 
BRANCH  11  15
ATOM     15  O   UNL     1       3.196   2.089  21.785  0.00  0.00    +0.000 OA
ATOM     16  H   UNL     1       3.409   1.544  21.007  0.00  0.00    +0.000 HD
ENDBRANCH  11  15
ENDBRANCH   5   6
BRANCH   1  22
ATOM     17  C   UNL     1       8.085   5.616  19.201  0.00  0.00    +0.000 C 
ATOM     18  C   UNL     1       7.114   5.713  18.062  0.00  0.00    +0.000 A 
ATOM     19  C   UNL     1       7.459   5.299  16.774  0.00  0.00    +0.000 A 
ATOM     20  C   UNL     1       6.533   5.391  15.735  0.00  0.00    +0.000 A 
ATOM     21  C   UNL     1       5.250   5.893  15.980  0.00  0.00    +0.000 A 
ATOM     22  C   UNL     1       4.878   6.309  17.266  0.00  0.00    +0.000 A 
ATOM     23  C   UNL     1       5.827   6.222  18.296  0.00  0.00    +0.000 A 
ENDBRANCH   1  22
BRANCH   3  24
ATOM     24  C   UNL     1       1.500   9.603  18.262  0.00  0.00    +0.000 A 
ATOM     25  C   UNL     1       2.304  10.749  18.165  0.00  0.00    +0.000 A 
ATOM     26  C   UNL     1       1.789  11.996  18.531  0.00  0.00    +0.000 A 
ATOM     27  C   UNL     1       0.486  12.092  19.006  0.00  0.00    +0.000 A 
ATOM     28  F   UNL     1      -0.002  13.288  19.361  0.00  0.00    +0.000 F 
ATOM     29  C   UNL     1      -0.316  10.965  19.125  0.00  0.00    +0.000 A 
ATOM     30  C   UNL     1       0.186   9.718  18.750  0.00  0.00    +0.000 A 
ENDBRANCH   3  24
TORSDOF 4
ENDMDL
MODEL 9
REMARK VINA RESULT:      -7.1      4.676      9.516
REMARK  Name = 
REMARK  6 active torsions:
REMARK  status: ('A' for Active; 'I' for Inactive)
REMARK    1  A    between atoms: C_1  and  C_2
REMARK    2  A    between atoms: C_6  and  C_7
REMARK    3  A    between atoms: N_9  and  C_10
REMARK    4  A    between atoms: C_18  and  C_19
REMARK    5  A    between atoms: C_24  and  C_25
REMARK    6  A    between atoms: C_24  and  O_26
REMARK                            x       y       z     vdW  Elec       q    Type
REMARK                         _______ _______ _______ _____ _____    ______ ____
ROOT
ATOM      1  C   UNL     1      -0.557  10.217  18.518  0.00  0.00    +0.000 A 
ATOM      2  N   UNL     1       0.255   9.298  17.962  0.00  0.00    +0.000 NA
ATOM      3  N   UNL     1       1.265   9.127  18.842  0.00  0.00    +0.000 N 
ATOM      4  C   UNL     1       1.215  10.059  19.844  0.00  0.00    +0.000 A 
ATOM      5  C   UNL     1      -0.005  10.697  19.749  0.00  0.00    +0.000 A 
ENDROOT
BRANCH   5   6
ATOM      6  C   UNL     1      -0.526  11.703  20.661  0.00  0.00    +0.000 C 
ATOM      7  O   UNL     1      -1.350  11.389  21.517  0.00  0.00    +0.000 OA
ATOM      8  N   UNL     1      -0.059  13.016  20.542  0.00  0.00    +0.000 N 
ATOM      9  C   UNL     1       0.971  13.514  19.631  0.00  0.00    +0.000 C 
ATOM     10  C   UNL     1       0.368  14.602  18.740  0.00  0.00    +0.000 C 
ATOM     11  C   UNL     1      -0.188  15.747  19.603  0.00  0.00    +0.000 C 
ATOM     12  C   UNL     1      -0.855  16.819  18.742  0.00  0.00    +0.000 C 
ATOM     13  C   UNL     1      -1.177  15.200  20.648  0.00  0.00    +0.000 C 
ATOM     14  C   UNL     1      -0.581  14.040  21.445  0.00  0.00    +0.000 C 
BRANCH  11  15
ATOM     15  O   UNL     1       0.901  16.367  20.297  0.00  0.00    +0.000 OA
ATOM     16  H   UNL     1       0.540  17.064  20.871  0.00  0.00    +0.000 HD
ENDBRANCH  11  15
ENDBRANCH   5   6
BRANCH   1  22
ATOM     17  C   UNL     1      -5.088  12.337  18.755  0.00  0.00    +0.000 C 
ATOM     18  C   UNL     1      -4.054  11.588  17.969  0.00  0.00    +0.000 A 
ATOM     19  C   UNL     1      -4.273  11.224  16.638  0.00  0.00    +0.000 A 
ATOM     20  C   UNL     1      -3.289  10.537  15.927  0.00  0.00    +0.000 A 
ATOM     21  C   UNL     1      -2.075  10.212  16.542  0.00  0.00    +0.000 A 
ATOM     22  C   UNL     1      -1.830  10.571  17.874  0.00  0.00    +0.000 A 
ATOM     23  C   UNL     1      -2.835  11.250  18.578  0.00  0.00    +0.000 A 
ENDBRANCH   1  22
BRANCH   3  24
ATOM     24  C   UNL     1       2.208   8.069  18.708  0.00  0.00    +0.000 A 
ATOM     25  C   UNL     1       3.068   8.038  17.600  0.00  0.00    +0.000 A 
ATOM     26  C   UNL     1       3.985   6.992  17.457  0.00  0.00    +0.000 A 
ATOM     27  C   UNL     1       4.027   5.977  18.406  0.00  0.00    +0.000 A 
ATOM     28  F   UNL     1       4.903   4.974  18.263  0.00  0.00    +0.000 F 
ATOM     29  C   UNL     1       3.170   5.984  19.498  0.00  0.00    +0.000 A 
ATOM     30  C   UNL     1       2.260   7.031  19.655  0.00  0.00    +0.000 A 
ENDBRANCH   3  24
TORSDOF 4
ENDMDL
