MODEL 1
REMARK VINA RESULT:      -8.6      0.000      0.000
REMARK  Name = 
REMARK  5 active torsions:
REMARK  status: ('A' for Active; 'I' for Inactive)
REMARK    1  A    between atoms: C_2  and  C_3
REMARK    2  A    between atoms: C_6  and  N_7
REMARK    3  A    between atoms: N_7  and  S_8
REMARK    4  A    between atoms: S_8  and  C_11
REMARK    5  A    between atoms: C_23  and  C_24
REMARK                            x       y       z     vdW  Elec       q    Type
REMARK                         _______ _______ _______ _____ _____    ______ ____
ROOT
ATOM      1  C   UNL     1       1.601   8.397  19.446  0.00  0.00    +0.000 A 
ATOM      2  C   UNL     1       1.611   7.438  20.467  0.00  0.00    +0.000 A 
ATOM      3  C   UNL     1       2.159   6.167  20.248  0.00  0.00    +0.000 A 
ATOM      4  C   UNL     1       2.806   5.889  19.048  0.00  0.00    +0.000 A 
ATOM      5  C   UNL     1       2.916   6.878  18.073  0.00  0.00    +0.000 A 
ATOM      6  C   UNL     1       2.311   8.123  18.268  0.00  0.00    +0.000 A 
ENDROOT
BRANCH   1   8
ATOM      7  O   UNL     1       0.399  10.125  18.433  0.00  0.00    +0.000 OA
ATOM      8  C   UNL     1       0.827   9.684  19.494  0.00  0.00    +0.000 C 
ATOM      9  N   UNL     1       0.518  10.271  20.725  0.00  0.00    +0.000 N 
ATOM     10  C   UNL     1       0.818   9.765  22.050  0.00  0.00    +0.000 C 
ATOM     11  C   UNL     1      -0.390  10.120  22.891  0.00  0.00    +0.000 C 
ATOM     12  C   UNL     1      -0.880  11.425  22.291  0.00  0.00    +0.000 C 
ATOM     13  C   UNL     1      -0.463  11.366  20.805  0.00  0.00    +0.000 C 
BRANCH  13  14
ATOM     14  C   UNL     1       0.085  12.699  20.324  0.00  0.00    +0.000 A 
ATOM     15  C   UNL     1       1.331  13.178  20.759  0.00  0.00    +0.000 A 
ATOM     16  C   UNL     1       1.840  14.386  20.279  0.00  0.00    +0.000 A 
ATOM     17  C   UNL     1       1.111  15.134  19.358  0.00  0.00    +0.000 A 
ATOM     18  C   UNL     1      -0.139  14.685  18.937  0.00  0.00    +0.000 A 
ATOM     19  C   UNL     1      -0.651  13.478  19.419  0.00  0.00    +0.000 A 
ENDBRANCH  13  14
ENDBRANCH   1   8
BRANCH   4  20
ATOM     20  N   UNL     1       3.338   4.599  18.776  0.00  0.00    +0.000 N 
ATOM     21  H   UNL     1       3.012   4.123  17.936  0.00  0.00    +0.000 HD
BRANCH  20  22
ATOM     22  S   UNL     1       4.996   4.340  18.996  0.00  0.00    +0.000 S 
ATOM     23  O   UNL     1       5.488   5.508  19.696  0.00  0.00    +0.000 OA
ATOM     24  O   UNL     1       5.195   3.015  19.545  0.00  0.00    +0.000 OA
BRANCH  22  25
ATOM     25  C   UNL     1       5.664   4.380  17.348  0.00  0.00    +0.000 A 
ATOM     26  C   UNL     1       4.819   4.199  16.248  0.00  0.00    +0.000 A 
ATOM     27  C   UNL     1       5.337   4.325  14.957  0.00  0.00    +0.000 A 
ATOM     28  C   UNL     1       6.686   4.632  14.770  0.00  0.00    +0.000 A 
ATOM     29  C   UNL     1       7.526   4.808  15.870  0.00  0.00    +0.000 A 
ATOM     30  C   UNL     1       7.015   4.687  17.163  0.00  0.00    +0.000 A 
ENDBRANCH  22  25
ENDBRANCH  20  22
ENDBRANCH   4  20
TORSDOF 5
ENDMDL
MODEL 2
REMARK VINA RESULT:      -8.5      2.796      9.024
REMARK  Name = 
REMARK  5 active torsions:
REMARK  status: ('A' for Active; 'I' for Inactive)
REMARK    1  A    between atoms: C_2  and  C_3
REMARK    2  A    between atoms: C_6  and  N_7
REMARK    3  A    between atoms: N_7  and  S_8
REMARK    4  A    between atoms: S_8  and  C_11
REMARK    5  A    between atoms: C_23  and  C_24
REMARK                            x       y       z     vdW  Elec       q    Type
REMARK                         _______ _______ _______ _____ _____    ______ ____
ROOT
ATOM      1  C   UNL     1       2.425   7.055  19.448  0.00  0.00    +0.000 A 
ATOM      2  C   UNL     1       1.753   7.034  20.677  0.00  0.00    +0.000 A 
ATOM      3  C   UNL     1       1.002   8.138  21.102  0.00  0.00    +0.000 A 
ATOM      4  C   UNL     1       0.820   9.221  20.247  0.00  0.00    +0.000 A 
ATOM      5  C   UNL     1       1.377   9.200  18.970  0.00  0.00    +0.000 A 
ATOM      6  C   UNL     1       2.180   8.126  18.575  0.00  0.00    +0.000 A 
ENDROOT
BRANCH   1   8
ATOM      7  O   UNL     1       4.592   6.185  19.421  0.00  0.00    +0.000 OA
ATOM      8  C   UNL     1       3.445   6.041  19.015  0.00  0.00    +0.000 C 
ATOM      9  N   UNL     1       3.049   4.920  18.279  0.00  0.00    +0.000 N 
ATOM     10  C   UNL     1       1.705   4.547  17.883  0.00  0.00    +0.000 C 
ATOM     11  C   UNL     1       1.661   3.039  18.008  0.00  0.00    +0.000 C 
ATOM     12  C   UNL     1       3.075   2.603  17.666  0.00  0.00    +0.000 C 
ATOM     13  C   UNL     1       3.972   3.788  18.087  0.00  0.00    +0.000 C 
BRANCH  13  14
ATOM     14  C   UNL     1       5.053   4.065  17.056  0.00  0.00    +0.000 A 
ATOM     15  C   UNL     1       4.764   4.100  15.683  0.00  0.00    +0.000 A 
ATOM     16  C   UNL     1       5.759   4.394  14.749  0.00  0.00    +0.000 A 
ATOM     17  C   UNL     1       7.059   4.656  15.175  0.00  0.00    +0.000 A 
ATOM     18  C   UNL     1       7.368   4.600  16.532  0.00  0.00    +0.000 A 
ATOM     19  C   UNL     1       6.373   4.302  17.467  0.00  0.00    +0.000 A 
ENDBRANCH  13  14
ENDBRANCH   1   8
BRANCH   4  20
ATOM     20  N   UNL     1       0.099  10.375  20.660  0.00  0.00    +0.000 N 
ATOM     21  H   UNL     1       0.300  10.749  21.587  0.00  0.00    +0.000 HD
BRANCH  20  22
ATOM     22  S   UNL     1      -0.126  11.633  19.551  0.00  0.00    +0.000 S 
ATOM     23  O   UNL     1      -0.430  12.806  20.342  0.00  0.00    +0.000 OA
ATOM     24  O   UNL     1       0.982  11.640  18.619  0.00  0.00    +0.000 OA
BRANCH  22  25
ATOM     25  C   UNL     1      -1.605  11.179  18.674  0.00  0.00    +0.000 A 
ATOM     26  C   UNL     1      -2.807  11.844  18.940  0.00  0.00    +0.000 A 
ATOM     27  C   UNL     1      -3.940  11.544  18.181  0.00  0.00    +0.000 A 
ATOM     28  C   UNL     1      -3.870  10.590  17.163  0.00  0.00    +0.000 A 
ATOM     29  C   UNL     1      -2.671   9.926  16.904  0.00  0.00    +0.000 A 
ATOM     30  C   UNL     1      -1.533  10.223  17.655  0.00  0.00    +0.000 A 
ENDBRANCH  22  25
ENDBRANCH  20  22
ENDBRANCH   4  20
TORSDOF 5
ENDMDL
MODEL 3
REMARK VINA RESULT:      -8.5      1.883      2.792
REMARK  Name = 
REMARK  5 active torsions:
REMARK  status: ('A' for Active; 'I' for Inactive)
REMARK    1  A    between atoms: C_2  and  C_3
REMARK    2  A    between atoms: C_6  and  N_7
REMARK    3  A    between atoms: N_7  and  S_8
REMARK    4  A    between atoms: S_8  and  C_11
REMARK    5  A    between atoms: C_23  and  C_24
REMARK                            x       y       z     vdW  Elec       q    Type
REMARK                         _______ _______ _______ _____ _____    ______ ____
ROOT
ATOM      1  C   UNL     1       1.384   9.203  18.989  0.00  0.00    +0.000 A 
ATOM      2  C   UNL     1       2.144   8.614  17.970  0.00  0.00    +0.000 A 
ATOM      3  C   UNL     1       2.896   7.457  18.216  0.00  0.00    +0.000 A 
ATOM      4  C   UNL     1       2.797   6.816  19.447  0.00  0.00    +0.000 A 
ATOM      5  C   UNL     1       1.945   7.321  20.426  0.00  0.00    +0.000 A 
ATOM      6  C   UNL     1       1.247   8.511  20.201  0.00  0.00    +0.000 A 
ENDROOT
BRANCH   1   8
ATOM      7  O   UNL     1       1.465  11.534  19.120  0.00  0.00    +0.000 OA
ATOM      8  C   UNL     1       0.750  10.563  18.903  0.00  0.00    +0.000 C 
ATOM      9  N   UNL     1      -0.574  10.692  18.472  0.00  0.00    +0.000 N 
ATOM     10  C   UNL     1      -1.469   9.642  18.026  0.00  0.00    +0.000 C 
ATOM     11  C   UNL     1      -2.260  10.254  16.890  0.00  0.00    +0.000 C 
ATOM     12  C   UNL     1      -2.378  11.718  17.275  0.00  0.00    +0.000 C 
ATOM     13  C   UNL     1      -1.118  12.014  18.118  0.00  0.00    +0.000 C 
BRANCH  13  14
ATOM     14  C   UNL     1      -1.445  12.872  19.329  0.00  0.00    +0.000 A 
ATOM     15  C   UNL     1      -0.807  14.103  19.549  0.00  0.00    +0.000 A 
ATOM     16  C   UNL     1      -1.145  14.899  20.644  0.00  0.00    +0.000 A 
ATOM     17  C   UNL     1      -2.125  14.476  21.537  0.00  0.00    +0.000 A 
ATOM     18  C   UNL     1      -2.750  13.245  21.348  0.00  0.00    +0.000 A 
ATOM     19  C   UNL     1      -2.409  12.445  20.254  0.00  0.00    +0.000 A 
ENDBRANCH  13  14
ENDBRANCH   1   8
BRANCH   4  20
ATOM     20  N   UNL     1       3.576   5.665  19.745  0.00  0.00    +0.000 N 
ATOM     21  H   UNL     1       3.667   5.399  20.725  0.00  0.00    +0.000 HD
BRANCH  20  22
ATOM     22  S   UNL     1       3.398   4.290  18.774  0.00  0.00    +0.000 S 
ATOM     23  O   UNL     1       3.518   3.158  19.669  0.00  0.00    +0.000 OA
ATOM     24  O   UNL     1       2.222   4.451  17.944  0.00  0.00    +0.000 OA
BRANCH  22  25
ATOM     25  C   UNL     1       4.838   4.306  17.731  0.00  0.00    +0.000 A 
ATOM     26  C   UNL     1       4.707   4.084  16.356  0.00  0.00    +0.000 A 
ATOM     27  C   UNL     1       5.830   4.190  15.534  0.00  0.00    +0.000 A 
ATOM     28  C   UNL     1       7.072   4.519  16.082  0.00  0.00    +0.000 A 
ATOM     29  C   UNL     1       7.199   4.735  17.454  0.00  0.00    +0.000 A 
ATOM     30  C   UNL     1       6.081   4.634  18.282  0.00  0.00    +0.000 A 
ENDBRANCH  22  25
ENDBRANCH  20  22
ENDBRANCH   4  20
TORSDOF 5
ENDMDL
MODEL 4
REMARK VINA RESULT:      -8.4      2.671      9.638
REMARK  Name = 
REMARK  5 active torsions:
REMARK  status: ('A' for Active; 'I' for Inactive)
REMARK    1  A    between atoms: C_2  and  C_3
REMARK    2  A    between atoms: C_6  and  N_7
REMARK    3  A    between atoms: N_7  and  S_8
REMARK    4  A    between atoms: S_8  and  C_11
REMARK    5  A    between atoms: C_23  and  C_24
REMARK                            x       y       z     vdW  Elec       q    Type
REMARK                         _______ _______ _______ _____ _____    ______ ____
ROOT
ATOM      1  C   UNL     1       2.502   7.388  18.994  0.00  0.00    +0.000 A 
ATOM      2  C   UNL     1       1.846   7.442  20.230  0.00  0.00    +0.000 A 
ATOM      3  C   UNL     1       1.113   8.577  20.602  0.00  0.00    +0.000 A 
ATOM      4  C   UNL     1       0.933   9.614  19.692  0.00  0.00    +0.000 A 
ATOM      5  C   UNL     1       1.473   9.515  18.412  0.00  0.00    +0.000 A 
ATOM      6  C   UNL     1       2.259   8.411  18.067  0.00  0.00    +0.000 A 
ENDROOT
BRANCH   1   8
ATOM      7  O   UNL     1       4.672   6.526  18.929  0.00  0.00    +0.000 OA
ATOM      8  C   UNL     1       3.505   6.338  18.606  0.00  0.00    +0.000 C 
ATOM      9  N   UNL     1       3.078   5.149  18.007  0.00  0.00    +0.000 N 
ATOM     10  C   UNL     1       1.717   4.734  17.727  0.00  0.00    +0.000 C 
ATOM     11  C   UNL     1       1.693   3.246  18.002  0.00  0.00    +0.000 C 
ATOM     12  C   UNL     1       3.089   2.784  17.625  0.00  0.00    +0.000 C 
ATOM     13  C   UNL     1       3.998   4.007  17.875  0.00  0.00    +0.000 C 
BRANCH  13  14
ATOM     14  C   UNL     1       5.018   4.184  16.762  0.00  0.00    +0.000 A 
ATOM     15  C   UNL     1       4.636   4.174  15.411  0.00  0.00    +0.000 A 
ATOM     16  C   UNL     1       5.577   4.377  14.400  0.00  0.00    +0.000 A 
ATOM     17  C   UNL     1       6.914   4.591  14.724  0.00  0.00    +0.000 A 
ATOM     18  C   UNL     1       7.313   4.577  16.059  0.00  0.00    +0.000 A 
ATOM     19  C   UNL     1       6.373   4.371  17.071  0.00  0.00    +0.000 A 
ENDBRANCH  13  14
ENDBRANCH   1   8
BRANCH   4  20
ATOM     20  N   UNL     1       0.230  10.797  20.049  0.00  0.00    +0.000 N 
ATOM     21  H   UNL     1       0.782  11.601  20.346  0.00  0.00    +0.000 HD
BRANCH  20  22
ATOM     22  S   UNL     1      -1.065  11.296  19.081  0.00  0.00    +0.000 S 
ATOM     23  O   UNL     1      -0.543  12.348  18.235  0.00  0.00    +0.000 OA
ATOM     24  O   UNL     1      -1.694  10.128  18.501  0.00  0.00    +0.000 OA
BRANCH  22  25
ATOM     25  C   UNL     1      -2.201  12.043  20.227  0.00  0.00    +0.000 A 
ATOM     26  C   UNL     1      -3.495  12.375  19.813  0.00  0.00    +0.000 A 
ATOM     27  C   UNL     1      -4.407  12.876  20.744  0.00  0.00    +0.000 A 
ATOM     28  C   UNL     1      -4.029  13.039  22.078  0.00  0.00    +0.000 A 
ATOM     29  C   UNL     1      -2.736  12.711  22.487  0.00  0.00    +0.000 A 
ATOM     30  C   UNL     1      -1.820  12.206  21.563  0.00  0.00    +0.000 A 
ENDBRANCH  22  25
ENDBRANCH  20  22
ENDBRANCH   4  20
TORSDOF 5
ENDMDL
MODEL 5
REMARK VINA RESULT:      -8.4      2.462      9.604
REMARK  Name = 
REMARK  5 active torsions:
REMARK  status: ('A' for Active; 'I' for Inactive)
REMARK    1  A    between atoms: C_2  and  C_3
REMARK    2  A    between atoms: C_6  and  N_7
REMARK    3  A    between atoms: N_7  and  S_8
REMARK    4  A    between atoms: S_8  and  C_11
REMARK    5  A    between atoms: C_23  and  C_24
REMARK                            x       y       z     vdW  Elec       q    Type
REMARK                         _______ _______ _______ _____ _____    ______ ____
ROOT
ATOM      1  C   UNL     1       2.297   7.328  19.207  0.00  0.00    +0.000 A 
ATOM      2  C   UNL     1       1.614   7.421  20.427  0.00  0.00    +0.000 A 
ATOM      3  C   UNL     1       0.828   8.542  20.724  0.00  0.00    +0.000 A 
ATOM      4  C   UNL     1       0.624   9.520  19.755  0.00  0.00    +0.000 A 
ATOM      5  C   UNL     1       1.193   9.376  18.492  0.00  0.00    +0.000 A 
ATOM      6  C   UNL     1       2.030   8.290  18.221  0.00  0.00    +0.000 A 
ENDROOT
BRANCH   1   8
ATOM      7  O   UNL     1       4.480   6.507  19.320  0.00  0.00    +0.000 OA
ATOM      8  C   UNL     1       3.350   6.303  18.894  0.00  0.00    +0.000 C 
ATOM      9  N   UNL     1       2.999   5.115  18.246  0.00  0.00    +0.000 N 
ATOM     10  C   UNL     1       1.676   4.680  17.843  0.00  0.00    +0.000 C 
ATOM     11  C   UNL     1       1.657   3.187  18.096  0.00  0.00    +0.000 C 
ATOM     12  C   UNL     1       3.088   2.756  17.836  0.00  0.00    +0.000 C 
ATOM     13  C   UNL     1       3.949   3.992  18.180  0.00  0.00    +0.000 C 
BRANCH  13  14
ATOM     14  C   UNL     1       5.057   4.202  17.161  0.00  0.00    +0.000 A 
ATOM     15  C   UNL     1       4.793   4.211  15.783  0.00  0.00    +0.000 A 
ATOM     16  C   UNL     1       5.814   4.444  14.860  0.00  0.00    +0.000 A 
ATOM     17  C   UNL     1       7.114   4.673  15.302  0.00  0.00    +0.000 A 
ATOM     18  C   UNL     1       7.398   4.642  16.665  0.00  0.00    +0.000 A 
ATOM     19  C   UNL     1       6.378   4.404  17.590  0.00  0.00    +0.000 A 
ENDBRANCH  13  14
ENDBRANCH   1   8
BRANCH   4  20
ATOM     20  N   UNL     1      -0.134  10.690  20.035  0.00  0.00    +0.000 N 
ATOM     21  H   UNL     1      -1.045  10.566  20.476  0.00  0.00    +0.000 HD
BRANCH  20  22
ATOM     22  S   UNL     1       0.659  12.037  20.684  0.00  0.00    +0.000 S 
ATOM     23  O   UNL     1       1.820  11.516  21.374  0.00  0.00    +0.000 OA
ATOM     24  O   UNL     1       0.804  13.039  19.650  0.00  0.00    +0.000 OA
BRANCH  22  25
ATOM     25  C   UNL     1      -0.467  12.650  21.917  0.00  0.00    +0.000 A 
ATOM     26  C   UNL     1      -0.347  13.965  22.380  0.00  0.00    +0.000 A 
ATOM     27  C   UNL     1      -1.292  14.465  23.278  0.00  0.00    +0.000 A 
ATOM     28  C   UNL     1      -2.348  13.658  23.707  0.00  0.00    +0.000 A 
ATOM     29  C   UNL     1      -2.461  12.346  23.247  0.00  0.00    +0.000 A 
ATOM     30  C   UNL     1      -1.523  11.840  22.346  0.00  0.00    +0.000 A 
ENDBRANCH  22  25
ENDBRANCH  20  22
ENDBRANCH   4  20
TORSDOF 5
ENDMDL
MODEL 6
REMARK VINA RESULT:      -8.4      2.650      9.641
REMARK  Name = 
REMARK  5 active torsions:
REMARK  status: ('A' for Active; 'I' for Inactive)
REMARK    1  A    between atoms: C_2  and  C_3
REMARK    2  A    between atoms: C_6  and  N_7
REMARK    3  A    between atoms: N_7  and  S_8
REMARK    4  A    between atoms: S_8  and  C_11
REMARK    5  A    between atoms: C_23  and  C_24
REMARK                            x       y       z     vdW  Elec       q    Type
REMARK                         _______ _______ _______ _____ _____    ______ ____
ROOT
ATOM      1  C   UNL     1       2.440   7.320  19.023  0.00  0.00    +0.000 A 
ATOM      2  C   UNL     1       1.817   7.435  20.272  0.00  0.00    +0.000 A 
ATOM      3  C   UNL     1       1.040   8.559  20.584  0.00  0.00    +0.000 A 
ATOM      4  C   UNL     1       0.784   9.516  19.606  0.00  0.00    +0.000 A 
ATOM      5  C   UNL     1       1.292   9.347  18.320  0.00  0.00    +0.000 A 
ATOM      6  C   UNL     1       2.121   8.259  18.032  0.00  0.00    +0.000 A 
ENDROOT
BRANCH   1   8
ATOM      7  O   UNL     1       4.632   6.515  19.038  0.00  0.00    +0.000 OA
ATOM      8  C   UNL     1       3.482   6.292  18.681  0.00  0.00    +0.000 C 
ATOM      9  N   UNL     1       3.105   5.085  18.085  0.00  0.00    +0.000 N 
ATOM     10  C   UNL     1       1.765   4.631  17.768  0.00  0.00    +0.000 C 
ATOM     11  C   UNL     1       1.771   3.146  18.062  0.00  0.00    +0.000 C 
ATOM     12  C   UNL     1       3.190   2.716  17.736  0.00  0.00    +0.000 C 
ATOM     13  C   UNL     1       4.058   3.966  17.998  0.00  0.00    +0.000 C 
BRANCH  13  14
ATOM     14  C   UNL     1       5.107   4.155  16.914  0.00  0.00    +0.000 A 
ATOM     15  C   UNL     1       4.774   4.091  15.552  0.00  0.00    +0.000 A 
ATOM     16  C   UNL     1       5.740   4.306  14.568  0.00  0.00    +0.000 A 
ATOM     17  C   UNL     1       7.054   4.587  14.931  0.00  0.00    +0.000 A 
ATOM     18  C   UNL     1       7.407   4.628  16.278  0.00  0.00    +0.000 A 
ATOM     19  C   UNL     1       6.442   4.410  17.264  0.00  0.00    +0.000 A 
ENDBRANCH  13  14
ENDBRANCH   1   8
BRANCH   4  20
ATOM     20  N   UNL     1       0.034  10.688  19.898  0.00  0.00    +0.000 N 
ATOM     21  H   UNL     1      -0.943  10.706  19.607  0.00  0.00    +0.000 HD
BRANCH  20  22
ATOM     22  S   UNL     1       0.211  11.408  21.419  0.00  0.00    +0.000 S 
ATOM     23  O   UNL     1       0.595  10.340  22.318  0.00  0.00    +0.000 OA
ATOM     24  O   UNL     1       1.034  12.591  21.285  0.00  0.00    +0.000 OA
BRANCH  22  25
ATOM     25  C   UNL     1      -1.439  11.908  21.856  0.00  0.00    +0.000 A 
ATOM     26  C   UNL     1      -1.886  11.768  23.174  0.00  0.00    +0.000 A 
ATOM     27  C   UNL     1      -3.148  12.249  23.526  0.00  0.00    +0.000 A 
ATOM     28  C   UNL     1      -3.955  12.869  22.569  0.00  0.00    +0.000 A 
ATOM     29  C   UNL     1      -3.507  13.003  21.255  0.00  0.00    +0.000 A 
ATOM     30  C   UNL     1      -2.245  12.528  20.896  0.00  0.00    +0.000 A 
ENDBRANCH  22  25
ENDBRANCH  20  22
ENDBRANCH   4  20
TORSDOF 5
ENDMDL
MODEL 7
REMARK VINA RESULT:      -8.4      2.622      9.671
REMARK  Name = 
REMARK  5 active torsions:
REMARK  status: ('A' for Active; 'I' for Inactive)
REMARK    1  A    between atoms: C_2  and  C_3
REMARK    2  A    between atoms: C_6  and  N_7
REMARK    3  A    between atoms: N_7  and  S_8
REMARK    4  A    between atoms: S_8  and  C_11
REMARK    5  A    between atoms: C_23  and  C_24
REMARK                            x       y       z     vdW  Elec       q    Type
REMARK                         _______ _______ _______ _____ _____    ______ ____
ROOT
ATOM      1  C   UNL     1       2.577   7.272  19.484  0.00  0.00    +0.000 A 
ATOM      2  C   UNL     1       2.199   8.394  18.736  0.00  0.00    +0.000 A 
ATOM      3  C   UNL     1       1.151   9.220  19.164  0.00  0.00    +0.000 A 
ATOM      4  C   UNL     1       0.554   8.996  20.401  0.00  0.00    +0.000 A 
ATOM      5  C   UNL     1       1.008   7.959  21.213  0.00  0.00    +0.000 A 
ATOM      6  C   UNL     1       2.010   7.098  20.755  0.00  0.00    +0.000 A 
ENDROOT
BRANCH   1   8
ATOM      7  O   UNL     1       4.667   6.234  19.387  0.00  0.00    +0.000 OA
ATOM      8  C   UNL     1       3.506   6.196  18.997  0.00  0.00    +0.000 C 
ATOM      9  N   UNL     1       3.011   5.137  18.230  0.00  0.00    +0.000 N 
ATOM     10  C   UNL     1       1.636   4.886  17.845  0.00  0.00    +0.000 C 
ATOM     11  C   UNL     1       1.473   3.383  17.918  0.00  0.00    +0.000 C 
ATOM     12  C   UNL     1       2.843   2.850  17.536  0.00  0.00    +0.000 C 
ATOM     13  C   UNL     1       3.838   3.944  17.982  0.00  0.00    +0.000 C 
BRANCH  13  14
ATOM     14  C   UNL     1       4.922   4.171  16.942  0.00  0.00    +0.000 A 
ATOM     15  C   UNL     1       6.268   4.328  17.309  0.00  0.00    +0.000 A 
ATOM     16  C   UNL     1       7.259   4.496  16.340  0.00  0.00    +0.000 A 
ATOM     17  C   UNL     1       6.919   4.511  14.990  0.00  0.00    +0.000 A 
ATOM     18  C   UNL     1       5.585   4.382  14.611  0.00  0.00    +0.000 A 
ATOM     19  C   UNL     1       4.592   4.218  15.579  0.00  0.00    +0.000 A 
ENDBRANCH  13  14
ENDBRANCH   1   8
BRANCH   4  20
ATOM     20  N   UNL     1      -0.538   9.787  20.849  0.00  0.00    +0.000 N 
ATOM     21  H   UNL     1      -1.409   9.305  21.070  0.00  0.00    +0.000 HD
BRANCH  20  22
ATOM     22  S   UNL     1      -0.244  11.019  21.971  0.00  0.00    +0.000 S 
ATOM     23  O   UNL     1      -0.126  10.362  23.255  0.00  0.00    +0.000 OA
ATOM     24  O   UNL     1       0.824  11.861  21.474  0.00  0.00    +0.000 OA
BRANCH  22  25
ATOM     25  C   UNL     1      -1.752  11.962  21.987  0.00  0.00    +0.000 A 
ATOM     26  C   UNL     1      -2.527  12.020  23.150  0.00  0.00    +0.000 A 
ATOM     27  C   UNL     1      -3.658  12.837  23.180  0.00  0.00    +0.000 A 
ATOM     28  C   UNL     1      -4.009  13.591  22.059  0.00  0.00    +0.000 A 
ATOM     29  C   UNL     1      -3.237  13.527  20.899  0.00  0.00    +0.000 A 
ATOM     30  C   UNL     1      -2.102  12.716  20.862  0.00  0.00    +0.000 A 
ENDBRANCH  22  25
ENDBRANCH  20  22
ENDBRANCH   4  20
TORSDOF 5
ENDMDL
MODEL 8
REMARK VINA RESULT:      -8.4      1.314      2.560
REMARK  Name = 
REMARK  5 active torsions:
REMARK  status: ('A' for Active; 'I' for Inactive)
REMARK    1  A    between atoms: C_2  and  C_3
REMARK    2  A    between atoms: C_6  and  N_7
REMARK    3  A    between atoms: N_7  and  S_8
REMARK    4  A    between atoms: S_8  and  C_11
REMARK    5  A    between atoms: C_23  and  C_24
REMARK                            x       y       z     vdW  Elec       q    Type
REMARK                         _______ _______ _______ _____ _____    ______ ____
ROOT
ATOM      1  C   UNL     1       1.507   8.109  20.124  0.00  0.00    +0.000 A 
ATOM      2  C   UNL     1       2.095   8.053  18.854  0.00  0.00    +0.000 A 
ATOM      3  C   UNL     1       2.697   6.873  18.396  0.00  0.00    +0.000 A 
ATOM      4  C   UNL     1       2.609   5.711  19.157  0.00  0.00    +0.000 A 
ATOM      5  C   UNL     1       1.915   5.722  20.364  0.00  0.00    +0.000 A 
ATOM      6  C   UNL     1       1.372   6.915  20.849  0.00  0.00    +0.000 A 
ENDROOT
BRANCH   1   8
ATOM      7  O   UNL     1       0.905   9.337  22.018  0.00  0.00    +0.000 OA
ATOM      8  C   UNL     1       1.062   9.374  20.803  0.00  0.00    +0.000 C 
ATOM      9  N   UNL     1       0.956  10.561  20.072  0.00  0.00    +0.000 N 
ATOM     10  C   UNL     1       1.274  10.774  18.673  0.00  0.00    +0.000 C 
ATOM     11  C   UNL     1       1.892  12.155  18.615  0.00  0.00    +0.000 C 
ATOM     12  C   UNL     1       1.179  12.920  19.715  0.00  0.00    +0.000 C 
ATOM     13  C   UNL     1       0.794  11.851  20.762  0.00  0.00    +0.000 C 
BRANCH  13  14
ATOM     14  C   UNL     1      -0.611  12.073  21.298  0.00  0.00    +0.000 A 
ATOM     15  C   UNL     1      -0.897  11.971  22.668  0.00  0.00    +0.000 A 
ATOM     16  C   UNL     1      -2.184  12.216  23.150  0.00  0.00    +0.000 A 
ATOM     17  C   UNL     1      -3.204  12.567  22.270  0.00  0.00    +0.000 A 
ATOM     18  C   UNL     1      -2.942  12.647  20.904  0.00  0.00    +0.000 A 
ATOM     19  C   UNL     1      -1.655  12.398  20.420  0.00  0.00    +0.000 A 
ENDBRANCH  13  14
ENDBRANCH   1   8
BRANCH   4  20
ATOM     20  N   UNL     1       3.242   4.507  18.742  0.00  0.00    +0.000 N 
ATOM     21  H   UNL     1       2.991   4.134  17.827  0.00  0.00    +0.000 HD
BRANCH  20  22
ATOM     22  S   UNL     1       4.901   4.324  19.020  0.00  0.00    +0.000 S 
ATOM     23  O   UNL     1       5.319   5.524  19.714  0.00  0.00    +0.000 OA
ATOM     24  O   UNL     1       5.139   3.018  19.597  0.00  0.00    +0.000 OA
BRANCH  22  25
ATOM     25  C   UNL     1       5.620   4.367  17.394  0.00  0.00    +0.000 A 
ATOM     26  C   UNL     1       4.813   4.176  16.267  0.00  0.00    +0.000 A 
ATOM     27  C   UNL     1       5.370   4.303  14.994  0.00  0.00    +0.000 A 
ATOM     28  C   UNL     1       6.722   4.623  14.848  0.00  0.00    +0.000 A 
ATOM     29  C   UNL     1       7.525   4.808  15.973  0.00  0.00    +0.000 A 
ATOM     30  C   UNL     1       6.974   4.686  17.250  0.00  0.00    +0.000 A 
ENDBRANCH  22  25
ENDBRANCH  20  22
ENDBRANCH   4  20
TORSDOF 5
ENDMDL
MODEL 9
REMARK VINA RESULT:      -8.3      2.656      9.713
REMARK  Name = 
REMARK  5 active torsions:
REMARK  status: ('A' for Active; 'I' for Inactive)
REMARK    1  A    between atoms: C_2  and  C_3
REMARK    2  A    between atoms: C_6  and  N_7
REMARK    3  A    between atoms: N_7  and  S_8
REMARK    4  A    between atoms: S_8  and  C_11
REMARK    5  A    between atoms: C_23  and  C_24
REMARK                            x       y       z     vdW  Elec       q    Type
REMARK                         _______ _______ _______ _____ _____    ______ ____
ROOT
ATOM      1  C   UNL     1       2.699   7.554  18.775  0.00  0.00    +0.000 A 
ATOM      2  C   UNL     1       2.263   8.576  17.922  0.00  0.00    +0.000 A 
ATOM      3  C   UNL     1       1.200   9.411  18.291  0.00  0.00    +0.000 A 
ATOM      4  C   UNL     1       0.647   9.306  19.564  0.00  0.00    +0.000 A 
ATOM      5  C   UNL     1       1.159   8.379  20.469  0.00  0.00    +0.000 A 
ATOM      6  C   UNL     1       2.175   7.504  20.075  0.00  0.00    +0.000 A 
ENDROOT
BRANCH   1   8
ATOM      7  O   UNL     1       4.837   6.624  18.635  0.00  0.00    +0.000 OA
ATOM      8  C   UNL     1       3.650   6.460  18.379  0.00  0.00    +0.000 C 
ATOM      9  N   UNL     1       3.158   5.262  17.851  0.00  0.00    +0.000 N 
ATOM     10  C   UNL     1       1.773   4.880  17.657  0.00  0.00    +0.000 C 
ATOM     11  C   UNL     1       1.720   3.404  17.993  0.00  0.00    +0.000 C 
ATOM     12  C   UNL     1       3.080   2.885  17.565  0.00  0.00    +0.000 C 
ATOM     13  C   UNL     1       4.036   4.088  17.719  0.00  0.00    +0.000 C 
BRANCH  13  14
ATOM     14  C   UNL     1       5.001   4.189  16.549  0.00  0.00    +0.000 A 
ATOM     15  C   UNL     1       4.553   4.114  15.221  0.00  0.00    +0.000 A 
ATOM     16  C   UNL     1       5.445   4.248  14.156  0.00  0.00    +0.000 A 
ATOM     17  C   UNL     1       6.799   4.458  14.403  0.00  0.00    +0.000 A 
ATOM     18  C   UNL     1       7.264   4.509  15.715  0.00  0.00    +0.000 A 
ATOM     19  C   UNL     1       6.373   4.372  16.782  0.00  0.00    +0.000 A 
ENDBRANCH  13  14
ENDBRANCH   1   8
BRANCH   4  20
ATOM     20  N   UNL     1      -0.458  10.109  19.958  0.00  0.00    +0.000 N 
ATOM     21  H   UNL     1      -1.167   9.676  20.550  0.00  0.00    +0.000 HD
BRANCH  20  22
ATOM     22  S   UNL     1      -0.171  11.703  20.449  0.00  0.00    +0.000 S 
ATOM     23  O   UNL     1       0.896  11.628  21.424  0.00  0.00    +0.000 OA
ATOM     24  O   UNL     1      -0.040  12.539  19.275  0.00  0.00    +0.000 OA
BRANCH  22  25
ATOM     25  C   UNL     1      -1.656  12.164  21.313  0.00  0.00    +0.000 A 
ATOM     26  C   UNL     1      -2.748  12.673  20.603  0.00  0.00    +0.000 A 
ATOM     27  C   UNL     1      -3.940  12.945  21.278  0.00  0.00    +0.000 A 
ATOM     28  C   UNL     1      -4.038  12.707  22.650  0.00  0.00    +0.000 A 
ATOM     29  C   UNL     1      -2.946  12.204  23.356  0.00  0.00    +0.000 A 
ATOM     30  C   UNL     1      -1.752  11.926  22.688  0.00  0.00    +0.000 A 
ENDBRANCH  22  25
ENDBRANCH  20  22
ENDBRANCH   4  20
TORSDOF 5
ENDMDL
