MODEL 1
REMARK VINA RESULT:      -9.3      0.000      0.000
REMARK  Name = 
REMARK  5 active torsions:
REMARK  status: ('A' for Active; 'I' for Inactive)
REMARK    1  A    between atoms: N_3  and  C_4
REMARK    2  A    between atoms: C_4  and  C_5
REMARK    3  A    between atoms: C_7  and  C_8
REMARK    4  A    between atoms: N_16  and  C_17
REMARK    5  A    between atoms: C_17  and  C_18
REMARK                            x       y       z     vdW  Elec       q    Type
REMARK                         _______ _______ _______ _____ _____    ______ ____
ROOT
ATOM      1  O   UNL     1       7.876   7.677  17.015  0.00  0.00    +0.000 OA
ATOM      2  C   UNL     1       8.197   7.749  18.201  0.00  0.00    +0.000 C 
ATOM      3  N   UNL     1       8.177   6.669  19.042  0.00  0.00    +0.000 N 
ATOM      4  N   UNL     1       8.566   8.914  18.778  0.00  0.00    +0.000 N 
ATOM      5  H   UNL     1       8.883   6.615  19.769  0.00  0.00    +0.000 HD
ATOM      6  H   UNL     1       8.651   8.886  19.776  0.00  0.00    +0.000 HD
ENDROOT
BRANCH   3   7
ATOM      7  C   UNL     1       7.768   5.390  18.501  0.00  0.00    +0.000 C 
BRANCH   7   8
ATOM      8  C   UNL     1       6.288   5.288  18.495  0.00  0.00    +0.000 A 
ATOM      9  N   UNL     1       5.505   4.504  19.210  0.00  0.00    +0.000 NA
ATOM     10  C   UNL     1       4.250   4.731  18.680  0.00  0.00    +0.000 A 
ATOM     11  N   UNL     1       4.234   5.650  17.703  0.00  0.00    +0.000 NA
ATOM     12  N   UNL     1       5.518   6.014  17.638  0.00  0.00    +0.000 N 
ATOM     13  H   UNL     1       5.794   6.737  16.983  0.00  0.00    +0.000 HD
BRANCH  10  14
ATOM     14  C   UNL     1       3.050   4.056  19.154  0.00  0.00    +0.000 A 
ATOM     15  C   UNL     1       2.587   4.266  20.458  0.00  0.00    +0.000 A 
ATOM     16  C   UNL     1       1.390   3.685  20.882  0.00  0.00    +0.000 A 
ATOM     17  C   UNL     1       0.659   2.875  20.013  0.00  0.00    +0.000 A 
ATOM     18  C   UNL     1       1.126   2.636  18.722  0.00  0.00    +0.000 A 
ATOM     19  C   UNL     1       2.316   3.226  18.294  0.00  0.00    +0.000 A 
ENDBRANCH  10  14
ENDBRANCH   7   8
ENDBRANCH   3   7
BRANCH   4  20
ATOM     20  C   UNL     1       8.644  10.212  18.117  0.00  0.00    +0.000 C 
BRANCH  20  21
ATOM     21  C   UNL     1       9.804  11.051  18.587  0.00  0.00    +0.000 A 
ATOM     22  C   UNL     1      10.578  11.779  17.670  0.00  0.00    +0.000 A 
ATOM     23  C   UNL     1      11.611  12.599  18.122  0.00  0.00    +0.000 A 
ATOM     24  F   UNL     1      12.333  13.294  17.236  0.00  0.00    +0.000 F 
ATOM     25  C   UNL     1      11.899  12.714  19.479  0.00  0.00    +0.000 A 
ATOM     26  C   UNL     1      11.141  11.996  20.399  0.00  0.00    +0.000 A 
ATOM     27  C   UNL     1      10.105  11.175  19.948  0.00  0.00    +0.000 A 
ATOM     28  F   UNL     1       9.387  10.499  20.856  0.00  0.00    +0.000 F 
ENDBRANCH  20  21
ENDBRANCH   4  20
TORSDOF 5
ENDMDL
MODEL 2
REMARK VINA RESULT:      -9.2      1.352      1.710
REMARK  Name = 
REMARK  5 active torsions:
REMARK  status: ('A' for Active; 'I' for Inactive)
REMARK    1  A    between atoms: N_3  and  C_4
REMARK    2  A    between atoms: C_4  and  C_5
REMARK    3  A    between atoms: C_7  and  C_8
REMARK    4  A    between atoms: N_16  and  C_17
REMARK    5  A    between atoms: C_17  and  C_18
REMARK                            x       y       z     vdW  Elec       q    Type
REMARK                         _______ _______ _______ _____ _____    ______ ____
ROOT
ATOM      1  O   UNL     1       8.334   7.160  18.876  0.00  0.00    +0.000 OA
ATOM      2  C   UNL     1       8.017   8.000  18.035  0.00  0.00    +0.000 C 
ATOM      3  N   UNL     1       7.252   7.702  16.940  0.00  0.00    +0.000 N 
ATOM      4  N   UNL     1       8.428   9.285  18.110  0.00  0.00    +0.000 N 
ATOM      5  H   UNL     1       6.608   8.408  16.600  0.00  0.00    +0.000 HD
ATOM      6  H   UNL     1       8.244   9.839  17.295  0.00  0.00    +0.000 HD
ENDROOT
BRANCH   3   7
ATOM      7  C   UNL     1       6.793   6.339  16.778  0.00  0.00    +0.000 C 
BRANCH   7   8
ATOM      8  C   UNL     1       5.427   6.190  17.337  0.00  0.00    +0.000 A 
ATOM      9  N   UNL     1       4.872   5.139  17.910  0.00  0.00    +0.000 NA
ATOM     10  C   UNL     1       3.559   5.527  18.091  0.00  0.00    +0.000 A 
ATOM     11  N   UNL     1       3.305   6.783  17.691  0.00  0.00    +0.000 NA
ATOM     12  N   UNL     1       4.504   7.189  17.264  0.00  0.00    +0.000 N 
ATOM     13  H   UNL     1       4.611   8.138  16.923  0.00  0.00    +0.000 HD
BRANCH  10  14
ATOM     14  C   UNL     1       2.547   4.664  18.684  0.00  0.00    +0.000 A 
ATOM     15  C   UNL     1       2.050   3.564  17.974  0.00  0.00    +0.000 A 
ATOM     16  C   UNL     1       1.144   2.689  18.577  0.00  0.00    +0.000 A 
ATOM     17  C   UNL     1       0.713   2.918  19.884  0.00  0.00    +0.000 A 
ATOM     18  C   UNL     1       1.180   4.026  20.589  0.00  0.00    +0.000 A 
ATOM     19  C   UNL     1       2.094   4.894  19.991  0.00  0.00    +0.000 A 
ENDBRANCH  10  14
ENDBRANCH   7   8
ENDBRANCH   3   7
BRANCH   4  20
ATOM     20  C   UNL     1       9.272   9.857  19.153  0.00  0.00    +0.000 C 
BRANCH  20  21
ATOM     21  C   UNL     1       9.715  11.267  18.857  0.00  0.00    +0.000 A 
ATOM     22  C   UNL     1      10.391  11.569  17.665  0.00  0.00    +0.000 A 
ATOM     23  C   UNL     1      10.743  12.886  17.375  0.00  0.00    +0.000 A 
ATOM     24  F   UNL     1      11.378  13.159  16.229  0.00  0.00    +0.000 F 
ATOM     25  C   UNL     1      10.438  13.923  18.251  0.00  0.00    +0.000 A 
ATOM     26  C   UNL     1       9.770  13.638  19.438  0.00  0.00    +0.000 A 
ATOM     27  C   UNL     1       9.415  12.319  19.730  0.00  0.00    +0.000 A 
ATOM     28  F   UNL     1       8.768  12.073  20.877  0.00  0.00    +0.000 F 
ENDBRANCH  20  21
ENDBRANCH   4  20
TORSDOF 5
ENDMDL
MODEL 3
REMARK VINA RESULT:      -9.2      0.814      1.771
REMARK  Name = 
REMARK  5 active torsions:
REMARK  status: ('A' for Active; 'I' for Inactive)
REMARK    1  A    between atoms: N_3  and  C_4
REMARK    2  A    between atoms: C_4  and  C_5
REMARK    3  A    between atoms: C_7  and  C_8
REMARK    4  A    between atoms: N_16  and  C_17
REMARK    5  A    between atoms: C_17  and  C_18
REMARK                            x       y       z     vdW  Elec       q    Type
REMARK                         _______ _______ _______ _____ _____    ______ ____
ROOT
ATOM      1  O   UNL     1       7.787   7.603  16.975  0.00  0.00    +0.000 OA
ATOM      2  C   UNL     1       8.147   7.589  18.152  0.00  0.00    +0.000 C 
ATOM      3  N   UNL     1       8.120   6.459  18.923  0.00  0.00    +0.000 N 
ATOM      4  N   UNL     1       8.568   8.704  18.789  0.00  0.00    +0.000 N 
ATOM      5  H   UNL     1       8.847   6.338  19.621  0.00  0.00    +0.000 HD
ATOM      6  H   UNL     1       8.683   8.609  19.781  0.00  0.00    +0.000 HD
ENDROOT
BRANCH   3   7
ATOM      7  C   UNL     1       7.657   5.229  18.316  0.00  0.00    +0.000 C 
BRANCH   7   8
ATOM      8  C   UNL     1       6.176   5.162  18.363  0.00  0.00    +0.000 A 
ATOM      9  N   UNL     1       5.401   4.382  19.091  0.00  0.00    +0.000 NA
ATOM     10  C   UNL     1       4.133   4.651  18.614  0.00  0.00    +0.000 A 
ATOM     11  N   UNL     1       4.104   5.592  17.657  0.00  0.00    +0.000 NA
ATOM     12  N   UNL     1       5.393   5.926  17.551  0.00  0.00    +0.000 N 
ATOM     13  H   UNL     1       5.662   6.656  16.902  0.00  0.00    +0.000 HD
BRANCH  10  14
ATOM     14  C   UNL     1       2.935   3.995  19.117  0.00  0.00    +0.000 A 
ATOM     15  C   UNL     1       2.451   4.289  20.397  0.00  0.00    +0.000 A 
ATOM     16  C   UNL     1       1.255   3.724  20.846  0.00  0.00    +0.000 A 
ATOM     17  C   UNL     1       0.547   2.844  20.026  0.00  0.00    +0.000 A 
ATOM     18  C   UNL     1       1.035   2.522  18.761  0.00  0.00    +0.000 A 
ATOM     19  C   UNL     1       2.224   3.096  18.308  0.00  0.00    +0.000 A 
ENDBRANCH  10  14
ENDBRANCH   7   8
ENDBRANCH   3   7
BRANCH   4  20
ATOM     20  C   UNL     1       8.664  10.039  18.210  0.00  0.00    +0.000 C 
BRANCH  20  21
ATOM     21  C   UNL     1       9.526  10.978  19.015  0.00  0.00    +0.000 A 
ATOM     22  C   UNL     1       9.215  11.266  20.353  0.00  0.00    +0.000 A 
ATOM     23  C   UNL     1      10.052  12.088  21.104  0.00  0.00    +0.000 A 
ATOM     24  F   UNL     1       9.747  12.345  22.382  0.00  0.00    +0.000 F 
ATOM     25  C   UNL     1      11.205  12.640  20.553  0.00  0.00    +0.000 A 
ATOM     26  C   UNL     1      11.524  12.365  19.227  0.00  0.00    +0.000 A 
ATOM     27  C   UNL     1      10.687  11.540  18.472  0.00  0.00    +0.000 A 
ATOM     28  F   UNL     1      11.021  11.287  17.199  0.00  0.00    +0.000 F 
ENDBRANCH  20  21
ENDBRANCH   4  20
TORSDOF 5
ENDMDL
MODEL 4
REMARK VINA RESULT:      -9.1      1.371      1.788
REMARK  Name = 
REMARK  5 active torsions:
REMARK  status: ('A' for Active; 'I' for Inactive)
REMARK    1  A    between atoms: N_3  and  C_4
REMARK    2  A    between atoms: C_4  and  C_5
REMARK    3  A    between atoms: C_7  and  C_8
REMARK    4  A    between atoms: N_16  and  C_17
REMARK    5  A    between atoms: C_17  and  C_18
REMARK                            x       y       z     vdW  Elec       q    Type
REMARK                         _______ _______ _______ _____ _____    ______ ____
ROOT
ATOM      1  O   UNL     1       7.674   7.513  16.904  0.00  0.00    +0.000 OA
ATOM      2  C   UNL     1       8.076   7.706  18.050  0.00  0.00    +0.000 C 
ATOM      3  N   UNL     1       8.227   6.699  18.964  0.00  0.00    +0.000 N 
ATOM      4  N   UNL     1       8.371   8.942  18.511  0.00  0.00    +0.000 N 
ATOM      5  H   UNL     1       8.989   6.767  19.631  0.00  0.00    +0.000 HD
ATOM      6  H   UNL     1       8.535   9.000  19.498  0.00  0.00    +0.000 HD
ENDROOT
BRANCH   3   7
ATOM      7  C   UNL     1       7.906   5.349  18.551  0.00  0.00    +0.000 C 
BRANCH   7   8
ATOM      8  C   UNL     1       6.440   5.131  18.611  0.00  0.00    +0.000 A 
ATOM      9  N   UNL     1       5.705   4.687  19.611  0.00  0.00    +0.000 NA
ATOM     10  C   UNL     1       4.449   4.548  19.052  0.00  0.00    +0.000 A 
ATOM     11  N   UNL     1       4.385   4.930  17.767  0.00  0.00    +0.000 NA
ATOM     12  N   UNL     1       5.636   5.332  17.529  0.00  0.00    +0.000 N 
ATOM     13  H   UNL     1       5.869   5.707  16.617  0.00  0.00    +0.000 HD
BRANCH  10  14
ATOM     14  C   UNL     1       3.296   4.058  19.793  0.00  0.00    +0.000 A 
ATOM     15  C   UNL     1       2.046   4.671  19.646  0.00  0.00    +0.000 A 
ATOM     16  C   UNL     1       0.924   4.146  20.290  0.00  0.00    +0.000 A 
ATOM     17  C   UNL     1       1.048   3.019  21.103  0.00  0.00    +0.000 A 
ATOM     18  C   UNL     1       2.292   2.418  21.279  0.00  0.00    +0.000 A 
ATOM     19  C   UNL     1       3.412   2.935  20.626  0.00  0.00    +0.000 A 
ENDBRANCH  10  14
ENDBRANCH   7   8
ENDBRANCH   3   7
BRANCH   4  20
ATOM     20  C   UNL     1       8.270  10.186  17.757  0.00  0.00    +0.000 C 
BRANCH  20  21
ATOM     21  C   UNL     1       9.186  11.269  18.266  0.00  0.00    +0.000 A 
ATOM     22  C   UNL     1      10.225  10.967  19.160  0.00  0.00    +0.000 A 
ATOM     23  C   UNL     1      11.102  11.966  19.577  0.00  0.00    +0.000 A 
ATOM     24  F   UNL     1      12.094  11.659  20.422  0.00  0.00    +0.000 F 
ATOM     25  C   UNL     1      10.971  13.276  19.124  0.00  0.00    +0.000 A 
ATOM     26  C   UNL     1       9.944  13.590  18.239  0.00  0.00    +0.000 A 
ATOM     27  C   UNL     1       9.065  12.590  17.819  0.00  0.00    +0.000 A 
ATOM     28  F   UNL     1       8.088  12.919  16.962  0.00  0.00    +0.000 F 
ENDBRANCH  20  21
ENDBRANCH   4  20
TORSDOF 5
ENDMDL
MODEL 5
REMARK VINA RESULT:      -8.9      0.864      2.124
REMARK  Name = 
REMARK  5 active torsions:
REMARK  status: ('A' for Active; 'I' for Inactive)
REMARK    1  A    between atoms: N_3  and  C_4
REMARK    2  A    between atoms: C_4  and  C_5
REMARK    3  A    between atoms: C_7  and  C_8
REMARK    4  A    between atoms: N_16  and  C_17
REMARK    5  A    between atoms: C_17  and  C_18
REMARK                            x       y       z     vdW  Elec       q    Type
REMARK                         _______ _______ _______ _____ _____    ______ ____
ROOT
ATOM      1  O   UNL     1       7.975   7.730  16.986  0.00  0.00    +0.000 OA
ATOM      2  C   UNL     1       8.276   7.770  18.179  0.00  0.00    +0.000 C 
ATOM      3  N   UNL     1       8.159   6.690  19.011  0.00  0.00    +0.000 N 
ATOM      4  N   UNL     1       8.719   8.902  18.772  0.00  0.00    +0.000 N 
ATOM      5  H   UNL     1       8.845   6.579  19.751  0.00  0.00    +0.000 HD
ATOM      6  H   UNL     1       8.781   8.861  19.772  0.00  0.00    +0.000 HD
ENDROOT
BRANCH   3   7
ATOM      7  C   UNL     1       7.669   5.448  18.452  0.00  0.00    +0.000 C 
BRANCH   7   8
ATOM      8  C   UNL     1       6.186   5.431  18.471  0.00  0.00    +0.000 A 
ATOM      9  N   UNL     1       5.371   4.641  19.144  0.00  0.00    +0.000 NA
ATOM     10  C   UNL     1       4.122   4.978  18.659  0.00  0.00    +0.000 A 
ATOM     11  N   UNL     1       4.142   5.968  17.753  0.00  0.00    +0.000 NA
ATOM     12  N   UNL     1       5.444   6.262  17.687  0.00  0.00    +0.000 N 
ATOM     13  H   UNL     1       5.749   7.015  17.081  0.00  0.00    +0.000 HD
BRANCH  10  14
ATOM     14  C   UNL     1       2.894   4.339  19.108  0.00  0.00    +0.000 A 
ATOM     15  C   UNL     1       2.152   3.537  18.233  0.00  0.00    +0.000 A 
ATOM     16  C   UNL     1       1.021   2.855  18.689  0.00  0.00    +0.000 A 
ATOM     17  C   UNL     1       0.613   2.988  20.017  0.00  0.00    +0.000 A 
ATOM     18  C   UNL     1       1.328   3.807  20.889  0.00  0.00    +0.000 A 
ATOM     19  C   UNL     1       2.464   4.479  20.436  0.00  0.00    +0.000 A 
ENDBRANCH  10  14
ENDBRANCH   7   8
ENDBRANCH   3   7
BRANCH   4  20
ATOM     20  C   UNL     1       8.905  10.194  18.124  0.00  0.00    +0.000 C 
BRANCH  20  21
ATOM     21  C   UNL     1       9.464  11.249  19.045  0.00  0.00    +0.000 A 
ATOM     22  C   UNL     1       9.206  11.204  20.423  0.00  0.00    +0.000 A 
ATOM     23  C   UNL     1       9.776  12.151  21.272  0.00  0.00    +0.000 A 
ATOM     24  F   UNL     1       9.529  12.089  22.586  0.00  0.00    +0.000 F 
ATOM     25  C   UNL     1      10.606  13.154  20.780  0.00  0.00    +0.000 A 
ATOM     26  C   UNL     1      10.869  13.212  19.415  0.00  0.00    +0.000 A 
ATOM     27  C   UNL     1      10.299  12.263  18.562  0.00  0.00    +0.000 A 
ATOM     28  F   UNL     1      10.573  12.338  17.253  0.00  0.00    +0.000 F 
ENDBRANCH  20  21
ENDBRANCH   4  20
TORSDOF 5
ENDMDL
MODEL 6
REMARK VINA RESULT:      -8.9      1.658      1.814
REMARK  Name = 
REMARK  5 active torsions:
REMARK  status: ('A' for Active; 'I' for Inactive)
REMARK    1  A    between atoms: N_3  and  C_4
REMARK    2  A    between atoms: C_4  and  C_5
REMARK    3  A    between atoms: C_7  and  C_8
REMARK    4  A    between atoms: N_16  and  C_17
REMARK    5  A    between atoms: C_17  and  C_18
REMARK                            x       y       z     vdW  Elec       q    Type
REMARK                         _______ _______ _______ _____ _____    ______ ____
ROOT
ATOM      1  O   UNL     1       8.478   7.324  18.932  0.00  0.00    +0.000 OA
ATOM      2  C   UNL     1       8.098   8.104  18.060  0.00  0.00    +0.000 C 
ATOM      3  N   UNL     1       7.329   7.714  16.997  0.00  0.00    +0.000 N 
ATOM      4  N   UNL     1       8.442   9.412  18.065  0.00  0.00    +0.000 N 
ATOM      5  H   UNL     1       6.641   8.368  16.639  0.00  0.00    +0.000 HD
ATOM      6  H   UNL     1       8.211   9.915  17.229  0.00  0.00    +0.000 HD
ENDROOT
BRANCH   3   7
ATOM      7  C   UNL     1       6.941   6.322  16.910  0.00  0.00    +0.000 C 
BRANCH   7   8
ATOM      8  C   UNL     1       5.565   6.142  17.432  0.00  0.00    +0.000 A 
ATOM      9  N   UNL     1       5.068   5.149  18.143  0.00  0.00    +0.000 NA
ATOM     10  C   UNL     1       3.719   5.441  18.208  0.00  0.00    +0.000 A 
ATOM     11  N   UNL     1       3.386   6.591  17.602  0.00  0.00    +0.000 NA
ATOM     12  N   UNL     1       4.568   7.031  17.162  0.00  0.00    +0.000 N 
ATOM     13  H   UNL     1       4.615   7.920  16.678  0.00  0.00    +0.000 HD
BRANCH  10  14
ATOM     14  C   UNL     1       2.752   4.595  18.892  0.00  0.00    +0.000 A 
ATOM     15  C   UNL     1       2.537   4.734  20.268  0.00  0.00    +0.000 A 
ATOM     16  C   UNL     1       1.548   3.982  20.906  0.00  0.00    +0.000 A 
ATOM     17  C   UNL     1       0.783   3.071  20.177  0.00  0.00    +0.000 A 
ATOM     18  C   UNL     1       1.008   2.904  18.812  0.00  0.00    +0.000 A 
ATOM     19  C   UNL     1       1.988   3.664  18.172  0.00  0.00    +0.000 A 
ENDBRANCH  10  14
ENDBRANCH   7   8
ENDBRANCH   3   7
BRANCH   4  20
ATOM     20  C   UNL     1       9.273  10.077  19.061  0.00  0.00    +0.000 C 
BRANCH  20  21
ATOM     21  C   UNL     1       9.683  11.471  18.662  0.00  0.00    +0.000 A 
ATOM     22  C   UNL     1       8.722  12.415  18.271  0.00  0.00    +0.000 A 
ATOM     23  C   UNL     1       9.106  13.719  17.962  0.00  0.00    +0.000 A 
ATOM     24  F   UNL     1       8.176  14.610  17.600  0.00  0.00    +0.000 F 
ATOM     25  C   UNL     1      10.439  14.112  18.030  0.00  0.00    +0.000 A 
ATOM     26  C   UNL     1      11.404  13.186  18.415  0.00  0.00    +0.000 A 
ATOM     27  C   UNL     1      11.020  11.880  18.726  0.00  0.00    +0.000 A 
ATOM     28  F   UNL     1      11.969  11.009  19.099  0.00  0.00    +0.000 F 
ENDBRANCH  20  21
ENDBRANCH   4  20
TORSDOF 5
ENDMDL
MODEL 7
REMARK VINA RESULT:      -8.6      1.753      2.042
REMARK  Name = 
REMARK  5 active torsions:
REMARK  status: ('A' for Active; 'I' for Inactive)
REMARK    1  A    between atoms: N_3  and  C_4
REMARK    2  A    between atoms: C_4  and  C_5
REMARK    3  A    between atoms: C_7  and  C_8
REMARK    4  A    between atoms: N_16  and  C_17
REMARK    5  A    between atoms: C_17  and  C_18
REMARK                            x       y       z     vdW  Elec       q    Type
REMARK                         _______ _______ _______ _____ _____    ______ ____
ROOT
ATOM      1  O   UNL     1       8.223   6.913  18.838  0.00  0.00    +0.000 OA
ATOM      2  C   UNL     1       7.945   7.634  17.881  0.00  0.00    +0.000 C 
ATOM      3  N   UNL     1       7.263   7.181  16.783  0.00  0.00    +0.000 N 
ATOM      4  N   UNL     1       8.321   8.930  17.823  0.00  0.00    +0.000 N 
ATOM      5  H   UNL     1       6.628   7.820  16.317  0.00  0.00    +0.000 HD
ATOM      6  H   UNL     1       8.181   9.375  16.935  0.00  0.00    +0.000 HD
ENDROOT
BRANCH   3   7
ATOM      7  C   UNL     1       6.847   5.794  16.762  0.00  0.00    +0.000 C 
BRANCH   7   8
ATOM      8  C   UNL     1       5.543   5.642  17.451  0.00  0.00    +0.000 A 
ATOM      9  N   UNL     1       5.213   4.831  18.438  0.00  0.00    +0.000 NA
ATOM     10  C   UNL     1       3.850   5.016  18.566  0.00  0.00    +0.000 A 
ATOM     11  N   UNL     1       3.348   5.936  17.727  0.00  0.00    +0.000 NA
ATOM     12  N   UNL     1       4.439   6.343  17.071  0.00  0.00    +0.000 N 
ATOM     13  H   UNL     1       4.352   7.075  16.376  0.00  0.00    +0.000 HD
BRANCH  10  14
ATOM     14  C   UNL     1       3.036   4.301  19.537  0.00  0.00    +0.000 A 
ATOM     15  C   UNL     1       1.664   4.560  19.640  0.00  0.00    +0.000 A 
ATOM     16  C   UNL     1       0.869   3.812  20.511  0.00  0.00    +0.000 A 
ATOM     17  C   UNL     1       1.443   2.815  21.300  0.00  0.00    +0.000 A 
ATOM     18  C   UNL     1       2.812   2.568  21.227  0.00  0.00    +0.000 A 
ATOM     19  C   UNL     1       3.605   3.307  20.347  0.00  0.00    +0.000 A 
ENDBRANCH  10  14
ENDBRANCH   7   8
ENDBRANCH   3   7
BRANCH   4  20
ATOM     20  C   UNL     1       9.078   9.651  18.840  0.00  0.00    +0.000 C 
BRANCH  20  21
ATOM     21  C   UNL     1       9.297  11.104  18.504  0.00  0.00    +0.000 A 
ATOM     22  C   UNL     1       8.260  11.876  17.958  0.00  0.00    +0.000 A 
ATOM     23  C   UNL     1       8.457  13.233  17.707  0.00  0.00    +0.000 A 
ATOM     24  F   UNL     1       7.455  13.959  17.197  0.00  0.00    +0.000 F 
ATOM     25  C   UNL     1       9.673  13.849  17.986  0.00  0.00    +0.000 A 
ATOM     26  C   UNL     1      10.711  13.095  18.525  0.00  0.00    +0.000 A 
ATOM     27  C   UNL     1      10.516  11.735  18.779  0.00  0.00    +0.000 A 
ATOM     28  F   UNL     1      11.529  11.033  19.303  0.00  0.00    +0.000 F 
ENDBRANCH  20  21
ENDBRANCH   4  20
TORSDOF 5
ENDMDL
MODEL 8
REMARK VINA RESULT:      -8.6      1.611      1.981
REMARK  Name = 
REMARK  5 active torsions:
REMARK  status: ('A' for Active; 'I' for Inactive)
REMARK    1  A    between atoms: N_3  and  C_4
REMARK    2  A    between atoms: C_4  and  C_5
REMARK    3  A    between atoms: C_7  and  C_8
REMARK    4  A    between atoms: N_16  and  C_17
REMARK    5  A    between atoms: C_17  and  C_18
REMARK                            x       y       z     vdW  Elec       q    Type
REMARK                         _______ _______ _______ _____ _____    ______ ____
ROOT
ATOM      1  O   UNL     1       6.081   7.850  16.931  0.00  0.00    +0.000 OA
ATOM      2  C   UNL     1       7.267   7.631  17.172  0.00  0.00    +0.000 C 
ATOM      3  N   UNL     1       7.869   6.431  16.908  0.00  0.00    +0.000 N 
ATOM      4  N   UNL     1       8.067   8.555  17.750  0.00  0.00    +0.000 N 
ATOM      5  H   UNL     1       8.842   6.436  16.620  0.00  0.00    +0.000 HD
ATOM      6  H   UNL     1       8.965   8.217  18.042  0.00  0.00    +0.000 HD
ENDROOT
BRANCH   3   7
ATOM      7  C   UNL     1       7.069   5.383  16.310  0.00  0.00    +0.000 C 
BRANCH   7   8
ATOM      8  C   UNL     1       6.207   4.750  17.338  0.00  0.00    +0.000 A 
ATOM      9  N   UNL     1       4.901   4.563  17.329  0.00  0.00    +0.000 NA
ATOM     10  C   UNL     1       4.637   4.073  18.593  0.00  0.00    +0.000 A 
ATOM     11  N   UNL     1       5.732   3.916  19.352  0.00  0.00    +0.000 NA
ATOM     12  N   UNL     1       6.706   4.306  18.525  0.00  0.00    +0.000 N 
ATOM     13  H   UNL     1       7.668   4.262  18.841  0.00  0.00    +0.000 HD
BRANCH  10  14
ATOM     14  C   UNL     1       3.298   3.735  19.053  0.00  0.00    +0.000 A 
ATOM     15  C   UNL     1       2.812   4.248  20.261  0.00  0.00    +0.000 A 
ATOM     16  C   UNL     1       1.497   3.992  20.658  0.00  0.00    +0.000 A 
ATOM     17  C   UNL     1       0.668   3.203  19.860  0.00  0.00    +0.000 A 
ATOM     18  C   UNL     1       1.150   2.663  18.670  0.00  0.00    +0.000 A 
ATOM     19  C   UNL     1       2.460   2.929  18.268  0.00  0.00    +0.000 A 
ENDBRANCH  10  14
ENDBRANCH   7   8
ENDBRANCH   3   7
BRANCH   4  20
ATOM     20  C   UNL     1       7.672   9.898  18.158  0.00  0.00    +0.000 C 
BRANCH  20  21
ATOM     21  C   UNL     1       8.819  10.875  18.185  0.00  0.00    +0.000 A 
ATOM     22  C   UNL     1      10.032  10.538  18.804  0.00  0.00    +0.000 A 
ATOM     23  C   UNL     1      11.105  11.427  18.771  0.00  0.00    +0.000 A 
ATOM     24  F   UNL     1      12.259  11.086  19.357  0.00  0.00    +0.000 F 
ATOM     25  C   UNL     1      11.001  12.659  18.132  0.00  0.00    +0.000 A 
ATOM     26  C   UNL     1       9.803  13.007  17.516  0.00  0.00    +0.000 A 
ATOM     27  C   UNL     1       8.727  12.118  17.547  0.00  0.00    +0.000 A 
ATOM     28  F   UNL     1       7.587  12.476  16.941  0.00  0.00    +0.000 F 
ENDBRANCH  20  21
ENDBRANCH   4  20
TORSDOF 5
ENDMDL
MODEL 9
REMARK VINA RESULT:      -8.5      1.115      2.227
REMARK  Name = 
REMARK  5 active torsions:
REMARK  status: ('A' for Active; 'I' for Inactive)
REMARK    1  A    between atoms: N_3  and  C_4
REMARK    2  A    between atoms: C_4  and  C_5
REMARK    3  A    between atoms: C_7  and  C_8
REMARK    4  A    between atoms: N_16  and  C_17
REMARK    5  A    between atoms: C_17  and  C_18
REMARK                            x       y       z     vdW  Elec       q    Type
REMARK                         _______ _______ _______ _____ _____    ______ ____
ROOT
ATOM      1  O   UNL     1       6.759   8.108  16.777  0.00  0.00    +0.000 OA
ATOM      2  C   UNL     1       7.677   7.780  17.528  0.00  0.00    +0.000 C 
ATOM      3  N   UNL     1       8.007   6.474  17.771  0.00  0.00    +0.000 N 
ATOM      4  N   UNL     1       8.415   8.689  18.203  0.00  0.00    +0.000 N 
ATOM      5  H   UNL     1       8.985   6.248  17.921  0.00  0.00    +0.000 HD
ATOM      6  H   UNL     1       9.025   8.308  18.902  0.00  0.00    +0.000 HD
ENDROOT
BRANCH   3   7
ATOM      7  C   UNL     1       7.244   5.441  17.103  0.00  0.00    +0.000 C 
BRANCH   7   8
ATOM      8  C   UNL     1       6.232   4.875  18.027  0.00  0.00    +0.000 A 
ATOM      9  N   UNL     1       4.974   4.559  17.790  0.00  0.00    +0.000 NA
ATOM     10  C   UNL     1       4.484   4.227  19.039  0.00  0.00    +0.000 A 
ATOM     11  N   UNL     1       5.403   4.289  20.014  0.00  0.00    +0.000 NA
ATOM     12  N   UNL     1       6.500   4.656  19.344  0.00  0.00    +0.000 N 
ATOM     13  H   UNL     1       7.375   4.753  19.846  0.00  0.00    +0.000 HD
BRANCH  10  14
ATOM     14  C   UNL     1       3.105   3.823  19.273  0.00  0.00    +0.000 A 
ATOM     15  C   UNL     1       2.417   3.066  18.317  0.00  0.00    +0.000 A 
ATOM     16  C   UNL     1       1.124   2.607  18.580  0.00  0.00    +0.000 A 
ATOM     17  C   UNL     1       0.504   2.919  19.791  0.00  0.00    +0.000 A 
ATOM     18  C   UNL     1       1.170   3.695  20.737  0.00  0.00    +0.000 A 
ATOM     19  C   UNL     1       2.465   4.145  20.479  0.00  0.00    +0.000 A 
ENDBRANCH  10  14
ENDBRANCH   7   8
ENDBRANCH   3   7
BRANCH   4  20
ATOM     20  C   UNL     1       8.253  10.138  18.148  0.00  0.00    +0.000 C 
BRANCH  20  21
ATOM     21  C   UNL     1       9.297  10.886  18.936  0.00  0.00    +0.000 A 
ATOM     22  C   UNL     1       9.070  11.235  20.275  0.00  0.00    +0.000 A 
ATOM     23  C   UNL     1      10.067  11.874  21.011  0.00  0.00    +0.000 A 
ATOM     24  F   UNL     1       9.837  12.191  22.291  0.00  0.00    +0.000 F 
ATOM     25  C   UNL     1      11.299  12.179  20.442  0.00  0.00    +0.000 A 
ATOM     26  C   UNL     1      11.538  11.841  19.113  0.00  0.00    +0.000 A 
ATOM     27  C   UNL     1      10.541  11.200  18.375  0.00  0.00    +0.000 A 
ATOM     28  F   UNL     1      10.800  10.880  17.099  0.00  0.00    +0.000 F 
ENDBRANCH  20  21
ENDBRANCH   4  20
TORSDOF 5
ENDMDL
