MODEL 1
REMARK VINA RESULT:      -9.8      0.000      0.000
REMARK  Name = 
REMARK  3 active torsions:
REMARK  status: ('A' for Active; 'I' for Inactive)
REMARK    1  A    between atoms: C_2  and  C_3
REMARK    2  A    between atoms: N_15  and  S_16
REMARK    3  A    between atoms: S_16  and  C_19
REMARK                            x       y       z     vdW  Elec       q    Type
REMARK                         _______ _______ _______ _____ _____    ______ ____
ROOT
ATOM      1  O   UNL     1       7.048   5.314  18.167  0.00  0.00    +0.000 OA
ATOM      2  C   UNL     1       6.236   4.678  17.492  0.00  0.00    +0.000 C 
ATOM      3  N   UNL     1       5.129   4.070  18.102  0.00  0.00    +0.000 N 
ATOM      4  C   UNL     1       4.773   4.460  19.475  0.00  0.00    +0.000 C 
ATOM      5  C   UNL     1       4.246   3.281  20.313  0.00  0.00    +0.000 C 
ATOM      6  N   UNL     1       3.182   2.495  19.606  0.00  0.00    +0.000 NA
ATOM      7  C   UNL     1       3.714   2.030  18.286  0.00  0.00    +0.000 C 
ATOM      8  C   UNL     1       4.156   3.208  17.412  0.00  0.00    +0.000 C 
ENDROOT
BRANCH   2   9
ATOM      9  C   UNL     1       6.443   4.482  16.067  0.00  0.00    +0.000 A 
ATOM     10  C   UNL     1       5.856   3.592  15.185  0.00  0.00    +0.000 A 
ATOM     11  C   UNL     1       6.359   3.897  13.892  0.00  0.00    +0.000 A 
ATOM     12  C   UNL     1       6.130   3.438  12.585  0.00  0.00    +0.000 A 
ATOM     13  C   UNL     1       6.825   4.048  11.528  0.00  0.00    +0.000 A 
ATOM     14  C   UNL     1       7.729   5.089  11.762  0.00  0.00    +0.000 A 
ATOM     15  C   UNL     1       7.981   5.548  13.057  0.00  0.00    +0.000 A 
ATOM     16  C   UNL     1       7.276   4.920  14.080  0.00  0.00    +0.000 A 
ATOM     17  O   UNL     1       7.370   5.234  15.396  0.00  0.00    +0.000 OA
ENDBRANCH   2   9
BRANCH   6  18
ATOM     18  S   UNL     1       1.621   3.176  19.485  0.00  0.00    +0.000 S 
ATOM     19  O   UNL     1       1.021   2.726  18.246  0.00  0.00    +0.000 OA
ATOM     20  O   UNL     1       0.949   2.948  20.747  0.00  0.00    +0.000 OA
BRANCH  18  21
ATOM     21  C   UNL     1       1.887   4.924  19.360  0.00  0.00    +0.000 A 
ATOM     22  C   UNL     1       2.175   5.489  18.117  0.00  0.00    +0.000 A 
ATOM     23  C   UNL     1       2.150   6.876  17.969  0.00  0.00    +0.000 A 
ATOM     24  C   UNL     1       1.818   7.707  19.051  0.00  0.00    +0.000 A 
ATOM     25  C   UNL     1       1.715   9.098  18.894  0.00  0.00    +0.000 A 
ATOM     26  C   UNL     1       1.336   9.909  19.965  0.00  0.00    +0.000 A 
ATOM     27  C   UNL     1       1.065   9.342  21.206  0.00  0.00    +0.000 A 
ATOM     28  C   UNL     1       1.173   7.961  21.383  0.00  0.00    +0.000 A 
ATOM     29  C   UNL     1       1.539   7.129  20.314  0.00  0.00    +0.000 A 
ATOM     30  C   UNL     1       1.590   5.734  20.461  0.00  0.00    +0.000 A 
ENDBRANCH  18  21
ENDBRANCH   6  18
TORSDOF 3
ENDMDL
MODEL 2
REMARK VINA RESULT:      -9.6      0.643      1.148
REMARK  Name = 
REMARK  3 active torsions:
REMARK  status: ('A' for Active; 'I' for Inactive)
REMARK    1  A    between atoms: C_2  and  C_3
REMARK    2  A    between atoms: N_15  and  S_16
REMARK    3  A    between atoms: S_16  and  C_19
REMARK                            x       y       z     vdW  Elec       q    Type
REMARK                         _______ _______ _______ _____ _____    ______ ____
ROOT
ATOM      1  O   UNL     1       7.009   4.951  18.597  0.00  0.00    +0.000 OA
ATOM      2  C   UNL     1       6.181   4.478  17.816  0.00  0.00    +0.000 C 
ATOM      3  N   UNL     1       5.045   3.815  18.304  0.00  0.00    +0.000 N 
ATOM      4  C   UNL     1       4.689   3.968  19.722  0.00  0.00    +0.000 C 
ATOM      5  C   UNL     1       4.109   2.679  20.334  0.00  0.00    +0.000 C 
ATOM      6  N   UNL     1       3.023   2.075  19.494  0.00  0.00    +0.000 NA
ATOM      7  C   UNL     1       3.551   1.833  18.115  0.00  0.00    +0.000 C 
ATOM      8  C   UNL     1       4.047   3.129  17.467  0.00  0.00    +0.000 C 
ENDROOT
BRANCH   2   9
ATOM      9  C   UNL     1       6.396   4.532  16.380  0.00  0.00    +0.000 A 
ATOM     10  C   UNL     1       7.311   5.252  15.632  0.00  0.00    +0.000 A 
ATOM     11  C   UNL     1       7.143   4.855  14.278  0.00  0.00    +0.000 A 
ATOM     12  C   UNL     1       7.775   5.137  13.057  0.00  0.00    +0.000 A 
ATOM     13  C   UNL     1       7.321   4.485  11.899  0.00  0.00    +0.000 A 
ATOM     14  C   UNL     1       6.260   3.575  11.950  0.00  0.00    +0.000 A 
ATOM     15  C   UNL     1       5.609   3.294  13.154  0.00  0.00    +0.000 A 
ATOM     16  C   UNL     1       6.084   3.958  14.280  0.00  0.00    +0.000 A 
ATOM     17  O   UNL     1       5.597   3.807  15.537  0.00  0.00    +0.000 OA
ENDBRANCH   2   9
BRANCH   6  18
ATOM     18  S   UNL     1       1.491   2.827  19.491  0.00  0.00    +0.000 S 
ATOM     19  O   UNL     1       0.769   2.390  18.313  0.00  0.00    +0.000 OA
ATOM     20  O   UNL     1       0.916   2.648  20.807  0.00  0.00    +0.000 OA
BRANCH  18  21
ATOM     21  C   UNL     1       1.825   4.559  19.314  0.00  0.00    +0.000 A 
ATOM     22  C   UNL     1       2.112   5.079  18.050  0.00  0.00    +0.000 A 
ATOM     23  C   UNL     1       2.141   6.462  17.866  0.00  0.00    +0.000 A 
ATOM     24  C   UNL     1       1.864   7.334  18.931  0.00  0.00    +0.000 A 
ATOM     25  C   UNL     1       1.816   8.723  18.738  0.00  0.00    +0.000 A 
ATOM     26  C   UNL     1       1.491   9.577  19.793  0.00  0.00    +0.000 A 
ATOM     27  C   UNL     1       1.221   9.055  21.055  0.00  0.00    +0.000 A 
ATOM     28  C   UNL     1       1.276   7.676  21.266  0.00  0.00    +0.000 A 
ATOM     29  C   UNL     1       1.587   6.801  20.213  0.00  0.00    +0.000 A 
ATOM     30  C   UNL     1       1.584   5.409  20.398  0.00  0.00    +0.000 A 
ENDBRANCH  18  21
ENDBRANCH   6  18
TORSDOF 3
ENDMDL
MODEL 3
REMARK VINA RESULT:      -9.5      1.345      1.896
REMARK  Name = 
REMARK  3 active torsions:
REMARK  status: ('A' for Active; 'I' for Inactive)
REMARK    1  A    between atoms: C_2  and  C_3
REMARK    2  A    between atoms: N_15  and  S_16
REMARK    3  A    between atoms: S_16  and  C_19
REMARK                            x       y       z     vdW  Elec       q    Type
REMARK                         _______ _______ _______ _____ _____    ______ ____
ROOT
ATOM      1  O   UNL     1       6.840   6.522  16.221  0.00  0.00    +0.000 OA
ATOM      2  C   UNL     1       6.077   5.576  16.018  0.00  0.00    +0.000 C 
ATOM      3  N   UNL     1       5.211   5.135  17.030  0.00  0.00    +0.000 N 
ATOM      4  C   UNL     1       4.992   5.996  18.201  0.00  0.00    +0.000 C 
ATOM      5  C   UNL     1       4.833   5.197  19.508  0.00  0.00    +0.000 C 
ATOM      6  N   UNL     1       3.849   4.071  19.385  0.00  0.00    +0.000 NA
ATOM      7  C   UNL     1       4.261   3.185  18.252  0.00  0.00    +0.000 C 
ATOM      8  C   UNL     1       4.332   3.957  16.931  0.00  0.00    +0.000 C 
ENDROOT
BRANCH   2   9
ATOM      9  C   UNL     1       6.106   4.852  14.758  0.00  0.00    +0.000 A 
ATOM     10  C   UNL     1       7.172   4.358  14.027  0.00  0.00    +0.000 A 
ATOM     11  C   UNL     1       6.625   3.653  12.923  0.00  0.00    +0.000 A 
ATOM     12  C   UNL     1       7.133   2.880  11.866  0.00  0.00    +0.000 A 
ATOM     13  C   UNL     1       6.227   2.294  10.967  0.00  0.00    +0.000 A 
ATOM     14  C   UNL     1       4.848   2.472  11.110  0.00  0.00    +0.000 A 
ATOM     15  C   UNL     1       4.325   3.251  12.146  0.00  0.00    +0.000 A 
ATOM     16  C   UNL     1       5.251   3.817  13.017  0.00  0.00    +0.000 A 
ATOM     17  O   UNL     1       4.941   4.587  14.090  0.00  0.00    +0.000 OA
ENDBRANCH   2   9
BRANCH   6  18
ATOM     18  S   UNL     1       2.186   4.452  19.353  0.00  0.00    +0.000 S 
ATOM     19  O   UNL     1       1.626   3.957  18.112  0.00  0.00    +0.000 OA
ATOM     20  O   UNL     1       1.622   4.044  20.622  0.00  0.00    +0.000 OA
BRANCH  18  21
ATOM     21  C   UNL     1       2.117   6.224  19.314  0.00  0.00    +0.000 A 
ATOM     22  C   UNL     1       2.180   6.888  18.088  0.00  0.00    +0.000 A 
ATOM     23  C   UNL     1       1.890   8.251  18.029  0.00  0.00    +0.000 A 
ATOM     24  C   UNL     1       1.516   8.956  19.184  0.00  0.00    +0.000 A 
ATOM     25  C   UNL     1       1.149  10.310  19.122  0.00  0.00    +0.000 A 
ATOM     26  C   UNL     1       0.732  10.987  20.269  0.00  0.00    +0.000 A 
ATOM     27  C   UNL     1       0.686  10.324  21.492  0.00  0.00    +0.000 A 
ATOM     28  C   UNL     1       1.058   8.981  21.573  0.00  0.00    +0.000 A 
ATOM     29  C   UNL     1       1.467   8.281  20.428  0.00  0.00    +0.000 A 
ATOM     30  C   UNL     1       1.784   6.914  20.484  0.00  0.00    +0.000 A 
ENDBRANCH  18  21
ENDBRANCH   6  18
TORSDOF 3
ENDMDL
MODEL 4
REMARK VINA RESULT:      -9.5      5.233      8.069
REMARK  Name = 
REMARK  3 active torsions:
REMARK  status: ('A' for Active; 'I' for Inactive)
REMARK    1  A    between atoms: C_2  and  C_3
REMARK    2  A    between atoms: N_15  and  S_16
REMARK    3  A    between atoms: S_16  and  C_19
REMARK                            x       y       z     vdW  Elec       q    Type
REMARK                         _______ _______ _______ _____ _____    ______ ____
ROOT
ATOM      1  O   UNL     1       3.636   8.345  17.775  0.00  0.00    +0.000 OA
ATOM      2  C   UNL     1       2.568   8.070  18.325  0.00  0.00    +0.000 C 
ATOM      3  N   UNL     1       1.653   9.084  18.643  0.00  0.00    +0.000 N 
ATOM      4  C   UNL     1       1.827  10.412  18.036  0.00  0.00    +0.000 C 
ATOM      5  C   UNL     1       1.451  11.560  18.992  0.00  0.00    +0.000 C 
ATOM      6  N   UNL     1       0.116  11.357  19.646  0.00  0.00    +0.000 NA
ATOM      7  C   UNL     1       0.113  10.037  20.352  0.00  0.00    +0.000 C 
ATOM      8  C   UNL     1       0.398   8.883  19.386  0.00  0.00    +0.000 C 
ENDROOT
BRANCH   2   9
ATOM      9  C   UNL     1       2.264   6.705  18.721  0.00  0.00    +0.000 A 
ATOM     10  C   UNL     1       1.905   5.605  17.962  0.00  0.00    +0.000 A 
ATOM     11  C   UNL     1       1.818   4.500  18.850  0.00  0.00    +0.000 A 
ATOM     12  C   UNL     1       1.574   3.122  18.727  0.00  0.00    +0.000 A 
ATOM     13  C   UNL     1       1.615   2.328  19.884  0.00  0.00    +0.000 A 
ATOM     14  C   UNL     1       1.890   2.886  21.136  0.00  0.00    +0.000 A 
ATOM     15  C   UNL     1       2.120   4.257  21.279  0.00  0.00    +0.000 A 
ATOM     16  C   UNL     1       2.070   5.014  20.113  0.00  0.00    +0.000 A 
ATOM     17  O   UNL     1       2.282   6.352  20.044  0.00  0.00    +0.000 OA
ENDBRANCH   2   9
BRANCH   6  18
ATOM     18  S   UNL     1      -1.288  11.607  18.708  0.00  0.00    +0.000 S 
ATOM     19  O   UNL     1      -1.011  12.645  17.737  0.00  0.00    +0.000 OA
ATOM     20  O   UNL     1      -1.758  10.308  18.275  0.00  0.00    +0.000 OA
BRANCH  18  21
ATOM     21  C   UNL     1      -2.498  12.231  19.844  0.00  0.00    +0.000 A 
ATOM     22  C   UNL     1      -3.812  12.422  19.414  0.00  0.00    +0.000 A 
ATOM     23  C   UNL     1      -4.812  12.683  20.351  0.00  0.00    +0.000 A 
ATOM     24  C   UNL     1      -4.514  12.735  21.722  0.00  0.00    +0.000 A 
ATOM     25  C   UNL     1      -5.524  12.922  22.678  0.00  0.00    +0.000 A 
ATOM     26  C   UNL     1      -5.223  12.922  24.041  0.00  0.00    +0.000 A 
ATOM     27  C   UNL     1      -3.909  12.746  24.464  0.00  0.00    +0.000 A 
ATOM     28  C   UNL     1      -2.890  12.571  23.526  0.00  0.00    +0.000 A 
ATOM     29  C   UNL     1      -3.177  12.554  22.152  0.00  0.00    +0.000 A 
ATOM     30  C   UNL     1      -2.171  12.316  21.201  0.00  0.00    +0.000 A 
ENDBRANCH  18  21
ENDBRANCH   6  18
TORSDOF 3
ENDMDL
MODEL 5
REMARK VINA RESULT:      -9.5      5.185      8.163
REMARK  Name = 
REMARK  3 active torsions:
REMARK  status: ('A' for Active; 'I' for Inactive)
REMARK    1  A    between atoms: C_2  and  C_3
REMARK    2  A    between atoms: N_15  and  S_16
REMARK    3  A    between atoms: S_16  and  C_19
REMARK                            x       y       z     vdW  Elec       q    Type
REMARK                         _______ _______ _______ _____ _____    ______ ____
ROOT
ATOM      1  O   UNL     1       3.514   8.251  17.444  0.00  0.00    +0.000 OA
ATOM      2  C   UNL     1       2.592   8.072  18.241  0.00  0.00    +0.000 C 
ATOM      3  N   UNL     1       1.795   9.149  18.656  0.00  0.00    +0.000 N 
ATOM      4  C   UNL     1       1.858  10.410  17.902  0.00  0.00    +0.000 C 
ATOM      5  C   UNL     1       1.732  11.652  18.804  0.00  0.00    +0.000 C 
ATOM      6  N   UNL     1       0.574  11.566  19.753  0.00  0.00    +0.000 NA
ATOM      7  C   UNL     1       0.700  10.314  20.565  0.00  0.00    +0.000 C 
ATOM      8  C   UNL     1       0.734   9.069  19.674  0.00  0.00    +0.000 C 
ENDROOT
BRANCH   2   9
ATOM      9  C   UNL     1       2.353   6.762  18.823  0.00  0.00    +0.000 A 
ATOM     10  C   UNL     1       2.417   6.334  20.137  0.00  0.00    +0.000 A 
ATOM     11  C   UNL     1       1.997   4.978  20.152  0.00  0.00    +0.000 A 
ATOM     12  C   UNL     1       1.770   4.001  21.136  0.00  0.00    +0.000 A 
ATOM     13  C   UNL     1       1.299   2.741  20.734  0.00  0.00    +0.000 A 
ATOM     14  C   UNL     1       1.060   2.453  19.387  0.00  0.00    +0.000 A 
ATOM     15  C   UNL     1       1.295   3.407  18.393  0.00  0.00    +0.000 A 
ATOM     16  C   UNL     1       1.762   4.644  18.827  0.00  0.00    +0.000 A 
ATOM     17  O   UNL     1       2.032   5.700  18.019  0.00  0.00    +0.000 OA
ENDBRANCH   2   9
BRANCH   6  18
ATOM     18  S   UNL     1      -0.999  11.793  19.131  0.00  0.00    +0.000 S 
ATOM     19  O   UNL     1      -0.909  12.645  17.962  0.00  0.00    +0.000 OA
ATOM     20  O   UNL     1      -1.622  10.490  19.038  0.00  0.00    +0.000 OA
BRANCH  18  21
ATOM     21  C   UNL     1      -1.871  12.685  20.390  0.00  0.00    +0.000 A 
ATOM     22  C   UNL     1      -3.255  12.539  20.505  0.00  0.00    +0.000 A 
ATOM     23  C   UNL     1      -3.909  13.044  21.629  0.00  0.00    +0.000 A 
ATOM     24  C   UNL     1      -3.189  13.678  22.654  0.00  0.00    +0.000 A 
ATOM     25  C   UNL     1      -3.827  14.122  23.822  0.00  0.00    +0.000 A 
ATOM     26  C   UNL     1      -3.093  14.707  24.856  0.00  0.00    +0.000 A 
ATOM     27  C   UNL     1      -1.716  14.864  24.730  0.00  0.00    +0.000 A 
ATOM     28  C   UNL     1      -1.067  14.439  23.569  0.00  0.00    +0.000 A 
ATOM     29  C   UNL     1      -1.787  13.836  22.526  0.00  0.00    +0.000 A 
ATOM     30  C   UNL     1      -1.138  13.347  21.381  0.00  0.00    +0.000 A 
ENDBRANCH  18  21
ENDBRANCH   6  18
TORSDOF 3
ENDMDL
MODEL 6
REMARK VINA RESULT:      -9.4      4.980      7.231
REMARK  Name = 
REMARK  3 active torsions:
REMARK  status: ('A' for Active; 'I' for Inactive)
REMARK    1  A    between atoms: C_2  and  C_3
REMARK    2  A    between atoms: N_15  and  S_16
REMARK    3  A    between atoms: S_16  and  C_19
REMARK                            x       y       z     vdW  Elec       q    Type
REMARK                         _______ _______ _______ _____ _____    ______ ____
ROOT
ATOM      1  O   UNL     1       1.713   5.920  20.954  0.00  0.00    +0.000 OA
ATOM      2  C   UNL     1       2.184   6.600  20.041  0.00  0.00    +0.000 C 
ATOM      3  N   UNL     1       1.721   7.905  19.819  0.00  0.00    +0.000 N 
ATOM      4  C   UNL     1       0.919   8.561  20.863  0.00  0.00    +0.000 C 
ATOM      5  C   UNL     1      -0.193   9.457  20.287  0.00  0.00    +0.000 C 
ATOM      6  N   UNL     1       0.305  10.390  19.223  0.00  0.00    +0.000 NA
ATOM      7  C   UNL     1       0.973   9.592  18.147  0.00  0.00    +0.000 C 
ATOM      8  C   UNL     1       2.139   8.768  18.701  0.00  0.00    +0.000 C 
ENDROOT
BRANCH   2   9
ATOM      9  C   UNL     1       3.172   6.045  19.131  0.00  0.00    +0.000 A 
ATOM     10  C   UNL     1       3.046   5.599  17.827  0.00  0.00    +0.000 A 
ATOM     11  C   UNL     1       4.348   5.246  17.383  0.00  0.00    +0.000 A 
ATOM     12  C   UNL     1       4.919   4.803  16.178  0.00  0.00    +0.000 A 
ATOM     13  C   UNL     1       6.307   4.596  16.130  0.00  0.00    +0.000 A 
ATOM     14  C   UNL     1       7.112   4.821  17.251  0.00  0.00    +0.000 A 
ATOM     15  C   UNL     1       6.559   5.248  18.462  0.00  0.00    +0.000 A 
ATOM     16  C   UNL     1       5.181   5.441  18.474  0.00  0.00    +0.000 A 
ATOM     17  O   UNL     1       4.465   5.867  19.544  0.00  0.00    +0.000 OA
ENDBRANCH   2   9
BRANCH   6  18
ATOM     18  S   UNL     1       1.222  11.747  19.704  0.00  0.00    +0.000 S 
ATOM     19  O   UNL     1       1.689  11.527  21.058  0.00  0.00    +0.000 OA
ATOM     20  O   UNL     1       2.165  12.032  18.644  0.00  0.00    +0.000 OA
BRANCH  18  21
ATOM     21  C   UNL     1       0.071  13.095  19.737  0.00  0.00    +0.000 A 
ATOM     22  C   UNL     1      -0.887  13.158  20.750  0.00  0.00    +0.000 A 
ATOM     23  C   UNL     1      -1.633  14.324  20.920  0.00  0.00    +0.000 A 
ATOM     24  C   UNL     1      -1.416  15.442  20.097  0.00  0.00    +0.000 A 
ATOM     25  C   UNL     1      -2.107  16.645  20.309  0.00  0.00    +0.000 A 
ATOM     26  C   UNL     1      -1.846  17.764  19.517  0.00  0.00    +0.000 A 
ATOM     27  C   UNL     1      -0.900  17.692  18.499  0.00  0.00    +0.000 A 
ATOM     28  C   UNL     1      -0.212  16.499  18.268  0.00  0.00    +0.000 A 
ATOM     29  C   UNL     1      -0.451  15.368  19.063  0.00  0.00    +0.000 A 
ATOM     30  C   UNL     1       0.279  14.183  18.882  0.00  0.00    +0.000 A 
ENDBRANCH  18  21
ENDBRANCH   6  18
TORSDOF 3
ENDMDL
MODEL 7
REMARK VINA RESULT:      -9.4      4.687      6.770
REMARK  Name = 
REMARK  3 active torsions:
REMARK  status: ('A' for Active; 'I' for Inactive)
REMARK    1  A    between atoms: C_2  and  C_3
REMARK    2  A    between atoms: N_15  and  S_16
REMARK    3  A    between atoms: S_16  and  C_19
REMARK                            x       y       z     vdW  Elec       q    Type
REMARK                         _______ _______ _______ _____ _____    ______ ____
ROOT
ATOM      1  O   UNL     1       1.900   5.369  20.901  0.00  0.00    +0.000 OA
ATOM      2  C   UNL     1       2.287   6.233  20.113  0.00  0.00    +0.000 C 
ATOM      3  N   UNL     1       1.684   7.500  20.097  0.00  0.00    +0.000 N 
ATOM      4  C   UNL     1       0.823   7.889  21.225  0.00  0.00    +0.000 C 
ATOM      5  C   UNL     1      -0.384   8.740  20.788  0.00  0.00    +0.000 C 
ATOM      6  N   UNL     1       0.003   9.880  19.892  0.00  0.00    +0.000 NA
ATOM      7  C   UNL     1       0.745   9.341  18.709  0.00  0.00    +0.000 C 
ATOM      8  C   UNL     1       1.998   8.570  19.136  0.00  0.00    +0.000 C 
ENDROOT
BRANCH   2   9
ATOM      9  C   UNL     1       3.323   5.941  19.136  0.00  0.00    +0.000 A 
ATOM     10  C   UNL     1       3.278   5.924  17.753  0.00  0.00    +0.000 A 
ATOM     11  C   UNL     1       4.599   5.667  17.300  0.00  0.00    +0.000 A 
ATOM     12  C   UNL     1       5.243   5.590  16.054  0.00  0.00    +0.000 A 
ATOM     13  C   UNL     1       6.625   5.346  16.026  0.00  0.00    +0.000 A 
ATOM     14  C   UNL     1       7.355   5.178  17.208  0.00  0.00    +0.000 A 
ATOM     15  C   UNL     1       6.728   5.236  18.456  0.00  0.00    +0.000 A 
ATOM     16  C   UNL     1       5.358   5.479  18.445  0.00  0.00    +0.000 A 
ATOM     17  O   UNL     1       4.579   5.586  19.551  0.00  0.00    +0.000 OA
ENDBRANCH   2   9
BRANCH   6  18
ATOM     18  S   UNL     1       0.770  11.233  20.593  0.00  0.00    +0.000 S 
ATOM     19  O   UNL     1       1.500  10.790  21.763  0.00  0.00    +0.000 OA
ATOM     20  O   UNL     1       1.454  11.943  19.532  0.00  0.00    +0.000 OA
BRANCH  18  21
ATOM     21  C   UNL     1      -0.550  12.284  21.138  0.00  0.00    +0.000 A 
ATOM     22  C   UNL     1      -1.026  13.286  20.291  0.00  0.00    +0.000 A 
ATOM     23  C   UNL     1      -2.209  13.953  20.612  0.00  0.00    +0.000 A 
ATOM     24  C   UNL     1      -2.933  13.614  21.766  0.00  0.00    +0.000 A 
ATOM     25  C   UNL     1      -4.162  14.227  22.058  0.00  0.00    +0.000 A 
ATOM     26  C   UNL     1      -4.897  13.846  23.181  0.00  0.00    +0.000 A 
ATOM     27  C   UNL     1      -4.410  12.857  24.031  0.00  0.00    +0.000 A 
ATOM     28  C   UNL     1      -3.184  12.246  23.761  0.00  0.00    +0.000 A 
ATOM     29  C   UNL     1      -2.438  12.606  22.628  0.00  0.00    +0.000 A 
ATOM     30  C   UNL     1      -1.235  11.955  22.312  0.00  0.00    +0.000 A 
ENDBRANCH  18  21
ENDBRANCH   6  18
TORSDOF 3
ENDMDL
MODEL 8
REMARK VINA RESULT:      -9.3      5.382      7.624
REMARK  Name = 
REMARK  3 active torsions:
REMARK  status: ('A' for Active; 'I' for Inactive)
REMARK    1  A    between atoms: C_2  and  C_3
REMARK    2  A    between atoms: N_15  and  S_16
REMARK    3  A    between atoms: S_16  and  C_19
REMARK                            x       y       z     vdW  Elec       q    Type
REMARK                         _______ _______ _______ _____ _____    ______ ____
ROOT
ATOM      1  O   UNL     1       1.823   6.390  20.734  0.00  0.00    +0.000 OA
ATOM      2  C   UNL     1       2.098   7.123  19.783  0.00  0.00    +0.000 C 
ATOM      3  N   UNL     1       1.578   8.424  19.717  0.00  0.00    +0.000 N 
ATOM      4  C   UNL     1       0.977   9.010  20.925  0.00  0.00    +0.000 C 
ATOM      5  C   UNL     1      -0.241   9.900  20.614  0.00  0.00    +0.000 C 
ATOM      6  N   UNL     1       0.029  10.893  19.523  0.00  0.00    +0.000 NA
ATOM      7  C   UNL     1       0.495  10.163  18.303  0.00  0.00    +0.000 C 
ATOM      8  C   UNL     1       1.760   9.347  18.585  0.00  0.00    +0.000 C 
ENDROOT
BRANCH   2   9
ATOM      9  C   UNL     1       2.906   6.637  18.677  0.00  0.00    +0.000 A 
ATOM     10  C   UNL     1       3.656   7.324  17.738  0.00  0.00    +0.000 A 
ATOM     11  C   UNL     1       4.319   6.350  16.945  0.00  0.00    +0.000 A 
ATOM     12  C   UNL     1       5.254   6.367  15.898  0.00  0.00    +0.000 A 
ATOM     13  C   UNL     1       5.713   5.142  15.388  0.00  0.00    +0.000 A 
ATOM     14  C   UNL     1       5.253   3.926  15.903  0.00  0.00    +0.000 A 
ATOM     15  C   UNL     1       4.311   3.890  16.934  0.00  0.00    +0.000 A 
ATOM     16  C   UNL     1       3.878   5.122  17.414  0.00  0.00    +0.000 A 
ATOM     17  O   UNL     1       2.983   5.295  18.419  0.00  0.00    +0.000 OA
ENDBRANCH   2   9
BRANCH   6  18
ATOM     18  S   UNL     1       0.995  12.252  19.889  0.00  0.00    +0.000 S 
ATOM     19  O   UNL     1       1.490  12.109  21.242  0.00  0.00    +0.000 OA
ATOM     20  O   UNL     1       1.918  12.437  18.789  0.00  0.00    +0.000 OA
BRANCH  18  21
ATOM     21  C   UNL     1      -0.117  13.632  19.857  0.00  0.00    +0.000 A 
ATOM     22  C   UNL     1      -1.002  13.827  20.919  0.00  0.00    +0.000 A 
ATOM     23  C   UNL     1      -1.706  15.028  21.016  0.00  0.00    +0.000 A 
ATOM     24  C   UNL     1      -1.517  16.049  20.070  0.00  0.00    +0.000 A 
ATOM     25  C   UNL     1      -2.162  17.289  20.202  0.00  0.00    +0.000 A 
ATOM     26  C   UNL     1      -1.928  18.313  19.283  0.00  0.00    +0.000 A 
ATOM     27  C   UNL     1      -1.056  18.108  18.218  0.00  0.00    +0.000 A 
ATOM     28  C   UNL     1      -0.415  16.877  18.066  0.00  0.00    +0.000 A 
ATOM     29  C   UNL     1      -0.627  15.841  18.989  0.00  0.00    +0.000 A 
ATOM     30  C   UNL     1       0.059  14.620  18.883  0.00  0.00    +0.000 A 
ENDBRANCH  18  21
ENDBRANCH   6  18
TORSDOF 3
ENDMDL
MODEL 9
REMARK VINA RESULT:      -9.3      5.063      7.130
REMARK  Name = 
REMARK  3 active torsions:
REMARK  status: ('A' for Active; 'I' for Inactive)
REMARK    1  A    between atoms: C_2  and  C_3
REMARK    2  A    between atoms: N_15  and  S_16
REMARK    3  A    between atoms: S_16  and  C_19
REMARK                            x       y       z     vdW  Elec       q    Type
REMARK                         _______ _______ _______ _____ _____    ______ ____
ROOT
ATOM      1  O   UNL     1       2.043   5.915  20.827  0.00  0.00    +0.000 OA
ATOM      2  C   UNL     1       2.182   6.735  19.918  0.00  0.00    +0.000 C 
ATOM      3  N   UNL     1       1.513   7.967  19.967  0.00  0.00    +0.000 N 
ATOM      4  C   UNL     1       0.916   8.400  21.239  0.00  0.00    +0.000 C 
ATOM      5  C   UNL     1      -0.411   9.158  21.048  0.00  0.00    +0.000 C 
ATOM      6  N   UNL     1      -0.315  10.244  20.018  0.00  0.00    +0.000 NA
ATOM      7  C   UNL     1       0.164   9.654  18.729  0.00  0.00    +0.000 C 
ATOM      8  C   UNL     1       1.527   8.976  18.894  0.00  0.00    +0.000 C 
ENDROOT
BRANCH   2   9
ATOM      9  C   UNL     1       2.979   6.419  18.744  0.00  0.00    +0.000 A 
ATOM     10  C   UNL     1       3.685   7.243  17.886  0.00  0.00    +0.000 A 
ATOM     11  C   UNL     1       4.360   6.399  16.964  0.00  0.00    +0.000 A 
ATOM     12  C   UNL     1       5.271   6.578  15.910  0.00  0.00    +0.000 A 
ATOM     13  C   UNL     1       5.755   5.443  15.241  0.00  0.00    +0.000 A 
ATOM     14  C   UNL     1       5.344   4.157  15.606  0.00  0.00    +0.000 A 
ATOM     15  C   UNL     1       4.427   3.961  16.642  0.00  0.00    +0.000 A 
ATOM     16  C   UNL     1       3.967   5.107  17.282  0.00  0.00    +0.000 A 
ATOM     17  O   UNL     1       3.090   5.123  18.317  0.00  0.00    +0.000 OA
ENDBRANCH   2   9
BRANCH   6  18
ATOM     18  S   UNL     1       0.508  11.681  20.432  0.00  0.00    +0.000 S 
ATOM     19  O   UNL     1       1.479  11.370  21.461  0.00  0.00    +0.000 OA
ATOM     20  O   UNL     1       0.927  12.313  19.199  0.00  0.00    +0.000 OA
BRANCH  18  21
ATOM     21  C   UNL     1      -0.727  12.732  21.147  0.00  0.00    +0.000 A 
ATOM     22  C   UNL     1      -2.038  12.680  20.669  0.00  0.00    +0.000 A 
ATOM     23  C   UNL     1      -3.055  13.321  21.376  0.00  0.00    +0.000 A 
ATOM     24  C   UNL     1      -2.778  14.001  22.573  0.00  0.00    +0.000 A 
ATOM     25  C   UNL     1      -3.805  14.584  23.331  0.00  0.00    +0.000 A 
ATOM     26  C   UNL     1      -3.524  15.214  24.544  0.00  0.00    +0.000 A 
ATOM     27  C   UNL     1      -2.214  15.277  25.010  0.00  0.00    +0.000 A 
ATOM     28  C   UNL     1      -1.179  14.712  24.262  0.00  0.00    +0.000 A 
ATOM     29  C   UNL     1      -1.445  14.062  23.047  0.00  0.00    +0.000 A 
ATOM     30  C   UNL     1      -0.422  13.435  22.318  0.00  0.00    +0.000 A 
ENDBRANCH  18  21
ENDBRANCH   6  18
TORSDOF 3
ENDMDL
