MODEL 1
REMARK VINA RESULT:      -9.8      0.000      0.000
REMARK  Name = 
REMARK  6 active torsions:
REMARK  status: ('A' for Active; 'I' for Inactive)
REMARK    1  A    between atoms: C_1  and  C_2
REMARK    2  A    between atoms: C_4  and  C_5
REMARK    3  A    between atoms: C_8  and  C_9
REMARK    4  A    between atoms: C_9  and  C_10
REMARK    5  A    between atoms: C_9  and  N_11
REMARK    6  A    between atoms: N_11  and  C_12
REMARK                            x       y       z     vdW  Elec       q    Type
REMARK                         _______ _______ _______ _____ _____    ______ ____
ROOT
ATOM      1  C   UNL     1       7.341   5.888  17.822  0.00  0.00    +0.000 C 
ATOM      2  C   UNL     1       6.702   5.494  19.163  0.00  0.00    +0.000 C 
ENDROOT
BRANCH   1   6
ATOM      3  C   UNL     1       8.456   9.266  18.205  0.00  0.00    +0.000 A 
ATOM      4  N   UNL     1       7.498   9.458  17.283  0.00  0.00    +0.000 NA
ATOM      5  O   UNL     1       6.988   8.180  17.060  0.00  0.00    +0.000 OA
ATOM      6  C   UNL     1       7.697   7.341  17.867  0.00  0.00    +0.000 A 
ATOM      7  N   UNL     1       8.604   7.955  18.591  0.00  0.00    +0.000 NA
BRANCH   3  11
ATOM      8  C   UNL     1      11.811  12.936  17.614  0.00  0.00    +0.000 C 
ATOM      9  C   UNL     1      10.924  12.106  18.489  0.00  0.00    +0.000 A 
ATOM     10  C   UNL     1      10.103  11.103  17.950  0.00  0.00    +0.000 A 
ATOM     11  C   UNL     1       9.269  10.328  18.779  0.00  0.00    +0.000 A 
ATOM     12  C   UNL     1       9.255  10.585  20.156  0.00  0.00    +0.000 A 
ATOM     13  C   UNL     1      10.071  11.576  20.699  0.00  0.00    +0.000 A 
ATOM     14  C   UNL     1      10.897  12.320  19.866  0.00  0.00    +0.000 A 
ATOM     15  F   UNL     1      11.686  13.263  20.411  0.00  0.00    +0.000 F 
ENDBRANCH   3  11
ENDBRANCH   1   6
BRANCH   1  16
ATOM     16  N   UNL     1       6.394   5.537  16.741  0.00  0.00    +0.000 N 
ATOM     17  H   UNL     1       6.810   4.851  16.112  0.00  0.00    +0.000 HD
BRANCH  16  18
ATOM     18  C   UNL     1       5.062   5.232  17.034  0.00  0.00    +0.000 A 
ATOM     19  C   UNL     1       4.190   6.259  17.435  0.00  0.00    +0.000 A 
ATOM     20  C   UNL     1       2.900   5.985  17.907  0.00  0.00    +0.000 A 
ATOM     21  C   UNL     1       2.463   4.669  17.990  0.00  0.00    +0.000 A 
ATOM     22  C   UNL     1       3.289   3.617  17.573  0.00  0.00    +0.000 A 
ATOM     23  C   UNL     1       4.587   3.920  17.118  0.00  0.00    +0.000 A 
ATOM     24  C   UNL     1       2.865   2.175  17.685  0.00  0.00    +0.000 C 
ATOM     25  C   UNL     1       2.654   1.755  19.142  0.00  0.00    +0.000 C 
ATOM     26  C   UNL     1       1.327   2.248  19.722  0.00  0.00    +0.000 C 
ATOM     27  C   UNL     1       1.262   3.764  19.803  0.00  0.00    +0.000 C 
ATOM     28  O   UNL     1       1.308   4.369  20.868  0.00  0.00    +0.000 OA
ATOM     29  N   UNL     1       1.192   4.396  18.558  0.00  0.00    +0.000 N 
ATOM     30  H   UNL     1       0.683   3.782  17.931  0.00  0.00    +0.000 HD
ENDBRANCH  16  18
ENDBRANCH   1  16
TORSDOF 4
ENDMDL
MODEL 2
REMARK VINA RESULT:      -9.6      1.618      2.370
REMARK  Name = 
REMARK  6 active torsions:
REMARK  status: ('A' for Active; 'I' for Inactive)
REMARK    1  A    between atoms: C_1  and  C_2
REMARK    2  A    between atoms: C_4  and  C_5
REMARK    3  A    between atoms: C_8  and  C_9
REMARK    4  A    between atoms: C_9  and  C_10
REMARK    5  A    between atoms: C_9  and  N_11
REMARK    6  A    between atoms: N_11  and  C_12
REMARK                            x       y       z     vdW  Elec       q    Type
REMARK                         _______ _______ _______ _____ _____    ______ ____
ROOT
ATOM      1  C   UNL     1       6.783   5.944  16.353  0.00  0.00    +0.000 C 
ATOM      2  C   UNL     1       7.350   4.559  16.704  0.00  0.00    +0.000 C 
ENDROOT
BRANCH   1   6
ATOM      3  C   UNL     1       8.271   8.652  18.157  0.00  0.00    +0.000 A 
ATOM      4  N   UNL     1       8.519   7.654  19.022  0.00  0.00    +0.000 NA
ATOM      5  O   UNL     1       7.971   6.532  18.403  0.00  0.00    +0.000 OA
ATOM      6  C   UNL     1       7.440   6.967  17.226  0.00  0.00    +0.000 A 
ATOM      7  N   UNL     1       7.601   8.255  17.024  0.00  0.00    +0.000 NA
BRANCH   3  11
ATOM      8  C   UNL     1      10.731  12.080  20.855  0.00  0.00    +0.000 C 
ATOM      9  C   UNL     1       9.865  11.710  19.691  0.00  0.00    +0.000 A 
ATOM     10  C   UNL     1       9.492  10.377  19.457  0.00  0.00    +0.000 A 
ATOM     11  C   UNL     1       8.680  10.035  18.358  0.00  0.00    +0.000 A 
ATOM     12  C   UNL     1       8.261  11.047  17.485  0.00  0.00    +0.000 A 
ATOM     13  C   UNL     1       8.623  12.374  17.714  0.00  0.00    +0.000 A 
ATOM     14  C   UNL     1       9.413  12.691  18.811  0.00  0.00    +0.000 A 
ATOM     15  F   UNL     1       9.741  13.978  19.022  0.00  0.00    +0.000 F 
ENDBRANCH   3  11
ENDBRANCH   1   6
BRANCH   1  16
ATOM     16  N   UNL     1       5.313   5.890  16.499  0.00  0.00    +0.000 N 
ATOM     17  H   UNL     1       4.860   5.985  15.591  0.00  0.00    +0.000 HD
BRANCH  16  18
ATOM     18  C   UNL     1       4.711   4.895  17.276  0.00  0.00    +0.000 A 
ATOM     19  C   UNL     1       4.455   3.635  16.709  0.00  0.00    +0.000 A 
ATOM     20  C   UNL     1       3.700   2.665  17.382  0.00  0.00    +0.000 A 
ATOM     21  C   UNL     1       3.182   2.948  18.640  0.00  0.00    +0.000 A 
ATOM     22  C   UNL     1       3.438   4.181  19.254  0.00  0.00    +0.000 A 
ATOM     23  C   UNL     1       4.187   5.143  18.548  0.00  0.00    +0.000 A 
ATOM     24  C   UNL     1       2.861   4.539  20.600  0.00  0.00    +0.000 C 
ATOM     25  C   UNL     1       1.332   4.597  20.566  0.00  0.00    +0.000 C 
ATOM     26  C   UNL     1       0.678   3.213  20.591  0.00  0.00    +0.000 C 
ATOM     27  C   UNL     1       1.005   2.400  19.350  0.00  0.00    +0.000 C 
ATOM     28  O   UNL     1       0.173   2.159  18.483  0.00  0.00    +0.000 OA
ATOM     29  N   UNL     1       2.341   1.996  19.271  0.00  0.00    +0.000 N 
ATOM     30  H   UNL     1       2.673   1.851  20.219  0.00  0.00    +0.000 HD
ENDBRANCH  16  18
ENDBRANCH   1  16
TORSDOF 4
ENDMDL
MODEL 3
REMARK VINA RESULT:      -9.5      1.235      1.782
REMARK  Name = 
REMARK  6 active torsions:
REMARK  status: ('A' for Active; 'I' for Inactive)
REMARK    1  A    between atoms: C_1  and  C_2
REMARK    2  A    between atoms: C_4  and  C_5
REMARK    3  A    between atoms: C_8  and  C_9
REMARK    4  A    between atoms: C_9  and  C_10
REMARK    5  A    between atoms: C_9  and  N_11
REMARK    6  A    between atoms: N_11  and  C_12
REMARK                            x       y       z     vdW  Elec       q    Type
REMARK                         _______ _______ _______ _____ _____    ______ ____
ROOT
ATOM      1  C   UNL     1       7.296   6.166  17.900  0.00  0.00    +0.000 C 
ATOM      2  C   UNL     1       7.453   5.596  19.320  0.00  0.00    +0.000 C 
ENDROOT
BRANCH   1   6
ATOM      3  C   UNL     1       8.557   9.500  18.200  0.00  0.00    +0.000 A 
ATOM      4  N   UNL     1       7.609   9.710  17.270  0.00  0.00    +0.000 NA
ATOM      5  O   UNL     1       7.045   8.451  17.079  0.00  0.00    +0.000 OA
ATOM      6  C   UNL     1       7.715   7.602  17.909  0.00  0.00    +0.000 A 
ATOM      7  N   UNL     1       8.645   8.195  18.621  0.00  0.00    +0.000 NA
BRANCH   3  11
ATOM      8  C   UNL     1      11.973  13.095  17.508  0.00  0.00    +0.000 C 
ATOM      9  C   UNL     1      11.099  12.282  18.410  0.00  0.00    +0.000 A 
ATOM     10  C   UNL     1      10.236  11.300  17.896  0.00  0.00    +0.000 A 
ATOM     11  C   UNL     1       9.414  10.541  18.751  0.00  0.00    +0.000 A 
ATOM     12  C   UNL     1       9.454  10.790  20.128  0.00  0.00    +0.000 A 
ATOM     13  C   UNL     1      10.312  11.759  20.647  0.00  0.00    +0.000 A 
ATOM     14  C   UNL     1      11.125  12.489  19.788  0.00  0.00    +0.000 A 
ATOM     15  F   UNL     1      11.954  13.410  20.309  0.00  0.00    +0.000 F 
ENDBRANCH   3  11
ENDBRANCH   1   6
BRANCH   1  16
ATOM     16  N   UNL     1       5.896   5.953  17.472  0.00  0.00    +0.000 N 
ATOM     17  H   UNL     1       5.828   5.966  16.455  0.00  0.00    +0.000 HD
BRANCH  16  18
ATOM     18  C   UNL     1       5.129   4.926  18.030  0.00  0.00    +0.000 A 
ATOM     19  C   UNL     1       4.933   3.738  17.305  0.00  0.00    +0.000 A 
ATOM     20  C   UNL     1       4.036   2.753  17.737  0.00  0.00    +0.000 A 
ATOM     21  C   UNL     1       3.311   2.948  18.906  0.00  0.00    +0.000 A 
ATOM     22  C   UNL     1       3.498   4.105  19.675  0.00  0.00    +0.000 A 
ATOM     23  C   UNL     1       4.395   5.085  19.209  0.00  0.00    +0.000 A 
ATOM     24  C   UNL     1       2.702   4.369  20.927  0.00  0.00    +0.000 C 
ATOM     25  C   UNL     1       1.207   4.511  20.633  0.00  0.00    +0.000 C 
ATOM     26  C   UNL     1       0.509   3.168  20.406  0.00  0.00    +0.000 C 
ATOM     27  C   UNL     1       1.023   2.454  19.167  0.00  0.00    +0.000 C 
ATOM     28  O   UNL     1       0.352   2.338  18.148  0.00  0.00    +0.000 OA
ATOM     29  N   UNL     1       2.336   1.989  19.284  0.00  0.00    +0.000 N 
ATOM     30  H   UNL     1       2.488   1.740  20.256  0.00  0.00    +0.000 HD
ENDBRANCH  16  18
ENDBRANCH   1  16
TORSDOF 4
ENDMDL
MODEL 4
REMARK VINA RESULT:      -9.5      5.545      7.798
REMARK  Name = 
REMARK  6 active torsions:
REMARK  status: ('A' for Active; 'I' for Inactive)
REMARK    1  A    between atoms: C_1  and  C_2
REMARK    2  A    between atoms: C_4  and  C_5
REMARK    3  A    between atoms: C_8  and  C_9
REMARK    4  A    between atoms: C_9  and  C_10
REMARK    5  A    between atoms: C_9  and  N_11
REMARK    6  A    between atoms: N_11  and  C_12
REMARK                            x       y       z     vdW  Elec       q    Type
REMARK                         _______ _______ _______ _____ _____    ______ ____
ROOT
ATOM      1  C   UNL     1       3.060   4.691  19.257  0.00  0.00    +0.000 C 
ATOM      2  C   UNL     1       3.134   3.526  20.257  0.00  0.00    +0.000 C 
ENDROOT
BRANCH   1   6
ATOM      3  C   UNL     1       5.538   4.476  16.685  0.00  0.00    +0.000 A 
ATOM      4  N   UNL     1       6.322   4.277  17.758  0.00  0.00    +0.000 NA
ATOM      5  O   UNL     1       5.438   4.340  18.834  0.00  0.00    +0.000 OA
ATOM      6  C   UNL     1       4.207   4.579  18.302  0.00  0.00    +0.000 A 
ATOM      7  N   UNL     1       4.211   4.665  16.991  0.00  0.00    +0.000 NA
BRANCH   3  11
ATOM      8  C   UNL     1       4.916   3.125  11.903  0.00  0.00    +0.000 C 
ATOM      9  C   UNL     1       5.715   3.795  12.977  0.00  0.00    +0.000 A 
ATOM     10  C   UNL     1       5.257   3.840  14.304  0.00  0.00    +0.000 A 
ATOM     11  C   UNL     1       6.013   4.475  15.308  0.00  0.00    +0.000 A 
ATOM     12  C   UNL     1       7.228   5.079  14.963  0.00  0.00    +0.000 A 
ATOM     13  C   UNL     1       7.692   5.033  13.649  0.00  0.00    +0.000 A 
ATOM     14  C   UNL     1       6.939   4.391  12.675  0.00  0.00    +0.000 A 
ATOM     15  F   UNL     1       7.410   4.346  11.417  0.00  0.00    +0.000 F 
ENDBRANCH   3  11
ENDBRANCH   1   6
BRANCH   1  16
ATOM     16  N   UNL     1       3.043   5.955  20.025  0.00  0.00    +0.000 N 
ATOM     17  H   UNL     1       3.983   6.197  20.334  0.00  0.00    +0.000 HD
BRANCH  16  18
ATOM     18  C   UNL     1       2.352   7.071  19.544  0.00  0.00    +0.000 A 
ATOM     19  C   UNL     1       2.575   7.507  18.226  0.00  0.00    +0.000 A 
ATOM     20  C   UNL     1       2.047   8.715  17.752  0.00  0.00    +0.000 A 
ATOM     21  C   UNL     1       1.287   9.512  18.599  0.00  0.00    +0.000 A 
ATOM     22  C   UNL     1       1.015   9.101  19.910  0.00  0.00    +0.000 A 
ATOM     23  C   UNL     1       1.572   7.890  20.365  0.00  0.00    +0.000 A 
ATOM     24  C   UNL     1       0.228   9.957  20.870  0.00  0.00    +0.000 C 
ATOM     25  C   UNL     1       0.941  11.277  21.171  0.00  0.00    +0.000 C 
ATOM     26  C   UNL     1       0.798  12.306  20.048  0.00  0.00    +0.000 C 
ATOM     27  C   UNL     1       1.472  11.854  18.763  0.00  0.00    +0.000 C 
ATOM     28  O   UNL     1       2.501  12.369  18.343  0.00  0.00    +0.000 OA
ATOM     29  N   UNL     1       0.836  10.777  18.139  0.00  0.00    +0.000 N 
ATOM     30  H   UNL     1      -0.157  10.854  18.329  0.00  0.00    +0.000 HD
ENDBRANCH  16  18
ENDBRANCH   1  16
TORSDOF 4
ENDMDL
MODEL 5
REMARK VINA RESULT:      -9.5      0.414      1.356
REMARK  Name = 
REMARK  6 active torsions:
REMARK  status: ('A' for Active; 'I' for Inactive)
REMARK    1  A    between atoms: C_1  and  C_2
REMARK    2  A    between atoms: C_4  and  C_5
REMARK    3  A    between atoms: C_8  and  C_9
REMARK    4  A    between atoms: C_9  and  C_10
REMARK    5  A    between atoms: C_9  and  N_11
REMARK    6  A    between atoms: N_11  and  C_12
REMARK                            x       y       z     vdW  Elec       q    Type
REMARK                         _______ _______ _______ _____ _____    ______ ____
ROOT
ATOM      1  C   UNL     1       7.480   5.904  17.967  0.00  0.00    +0.000 C 
ATOM      2  C   UNL     1       6.763   5.552  19.281  0.00  0.00    +0.000 C 
ENDROOT
BRANCH   1   6
ATOM      3  C   UNL     1       8.540   9.305  18.301  0.00  0.00    +0.000 A 
ATOM      4  N   UNL     1       7.659   9.451  17.297  0.00  0.00    +0.000 NA
ATOM      5  O   UNL     1       7.177   8.160  17.086  0.00  0.00    +0.000 OA
ATOM      6  C   UNL     1       7.822   7.361  17.981  0.00  0.00    +0.000 A 
ATOM      7  N   UNL     1       8.663   8.012  18.752  0.00  0.00    +0.000 NA
BRANCH   3  11
ATOM      8  C   UNL     1       9.408  12.344  22.186  0.00  0.00    +0.000 C 
ATOM      9  C   UNL     1       9.703  11.894  20.789  0.00  0.00    +0.000 A 
ATOM     10  C   UNL     1       9.012  10.817  20.210  0.00  0.00    +0.000 A 
ATOM     11  C   UNL     1       9.297  10.397  18.896  0.00  0.00    +0.000 A 
ATOM     12  C   UNL     1      10.298  11.061  18.175  0.00  0.00    +0.000 A 
ATOM     13  C   UNL     1      10.984  12.134  18.741  0.00  0.00    +0.000 A 
ATOM     14  C   UNL     1      10.679  12.541  20.033  0.00  0.00    +0.000 A 
ATOM     15  F   UNL     1      11.344  13.586  20.557  0.00  0.00    +0.000 F 
ENDBRANCH   3  11
ENDBRANCH   1   6
BRANCH   1  16
ATOM     16  N   UNL     1       6.602   5.507  16.844  0.00  0.00    +0.000 N 
ATOM     17  H   UNL     1       7.050   4.787  16.279  0.00  0.00    +0.000 HD
BRANCH  16  18
ATOM     18  C   UNL     1       5.250   5.229  17.063  0.00  0.00    +0.000 A 
ATOM     19  C   UNL     1       4.371   6.277  17.386  0.00  0.00    +0.000 A 
ATOM     20  C   UNL     1       3.051   6.033  17.785  0.00  0.00    +0.000 A 
ATOM     21  C   UNL     1       2.590   4.726  17.873  0.00  0.00    +0.000 A 
ATOM     22  C   UNL     1       3.423   3.653  17.531  0.00  0.00    +0.000 A 
ATOM     23  C   UNL     1       4.751   3.926  17.149  0.00  0.00    +0.000 A 
ATOM     24  C   UNL     1       2.970   2.220  17.651  0.00  0.00    +0.000 C 
ATOM     25  C   UNL     1       2.665   1.839  19.102  0.00  0.00    +0.000 C 
ATOM     26  C   UNL     1       1.313   2.365  19.589  0.00  0.00    +0.000 C 
ATOM     27  C   UNL     1       1.267   3.884  19.630  0.00  0.00    +0.000 C 
ATOM     28  O   UNL     1       1.258   4.514  20.681  0.00  0.00    +0.000 OA
ATOM     29  N   UNL     1       1.282   4.486  18.368  0.00  0.00    +0.000 N 
ATOM     30  H   UNL     1       0.803   3.864  17.726  0.00  0.00    +0.000 HD
ENDBRANCH  16  18
ENDBRANCH   1  16
TORSDOF 4
ENDMDL
MODEL 6
REMARK VINA RESULT:      -9.5      1.334      1.752
REMARK  Name = 
REMARK  6 active torsions:
REMARK  status: ('A' for Active; 'I' for Inactive)
REMARK    1  A    between atoms: C_1  and  C_2
REMARK    2  A    between atoms: C_4  and  C_5
REMARK    3  A    between atoms: C_8  and  C_9
REMARK    4  A    between atoms: C_9  and  C_10
REMARK    5  A    between atoms: C_9  and  N_11
REMARK    6  A    between atoms: N_11  and  C_12
REMARK                            x       y       z     vdW  Elec       q    Type
REMARK                         _______ _______ _______ _____ _____    ______ ____
ROOT
ATOM      1  C   UNL     1       6.826   5.761  16.532  0.00  0.00    +0.000 C 
ATOM      2  C   UNL     1       6.733   4.467  17.357  0.00  0.00    +0.000 C 
ENDROOT
BRANCH   1   6
ATOM      3  C   UNL     1       8.292   8.541  18.242  0.00  0.00    +0.000 A 
ATOM      4  N   UNL     1       8.570   7.570  19.129  0.00  0.00    +0.000 NA
ATOM      5  O   UNL     1       8.034   6.423  18.547  0.00  0.00    +0.000 OA
ATOM      6  C   UNL     1       7.477   6.818  17.368  0.00  0.00    +0.000 A 
ATOM      7  N   UNL     1       7.613   8.102  17.130  0.00  0.00    +0.000 NA
BRANCH   3  11
ATOM      8  C   UNL     1      10.744  12.078  20.803  0.00  0.00    +0.000 C 
ATOM      9  C   UNL     1       9.861  11.663  19.667  0.00  0.00    +0.000 A 
ATOM     10  C   UNL     1       9.508  10.318  19.473  0.00  0.00    +0.000 A 
ATOM     11  C   UNL     1       8.679   9.936  18.401  0.00  0.00    +0.000 A 
ATOM     12  C   UNL     1       8.222  10.918  17.513  0.00  0.00    +0.000 A 
ATOM     13  C   UNL     1       8.564  12.256  17.702  0.00  0.00    +0.000 A 
ATOM     14  C   UNL     1       9.372  12.615  18.774  0.00  0.00    +0.000 A 
ATOM     15  F   UNL     1       9.680  13.912  18.947  0.00  0.00    +0.000 F 
ENDBRANCH   3  11
ENDBRANCH   1   6
BRANCH   1  16
ATOM     16  N   UNL     1       5.464   6.114  16.076  0.00  0.00    +0.000 N 
ATOM     17  H   UNL     1       5.334   5.848  15.102  0.00  0.00    +0.000 HD
BRANCH  16  18
ATOM     18  C   UNL     1       4.347   5.794  16.855  0.00  0.00    +0.000 A 
ATOM     19  C   UNL     1       3.866   6.727  17.790  0.00  0.00    +0.000 A 
ATOM     20  C   UNL     1       2.868   6.394  18.714  0.00  0.00    +0.000 A 
ATOM     21  C   UNL     1       2.336   5.111  18.718  0.00  0.00    +0.000 A 
ATOM     22  C   UNL     1       2.765   4.159  17.784  0.00  0.00    +0.000 A 
ATOM     23  C   UNL     1       3.782   4.516  16.877  0.00  0.00    +0.000 A 
ATOM     24  C   UNL     1       2.240   2.746  17.783  0.00  0.00    +0.000 C 
ATOM     25  C   UNL     1       2.602   2.003  19.071  0.00  0.00    +0.000 C 
ATOM     26  C   UNL     1       1.717   2.391  20.257  0.00  0.00    +0.000 C 
ATOM     27  C   UNL     1       1.893   3.847  20.655  0.00  0.00    +0.000 C 
ATOM     28  O   UNL     1       2.458   4.183  21.689  0.00  0.00    +0.000 OA
ATOM     29  N   UNL     1       1.393   4.756  19.718  0.00  0.00    +0.000 N 
ATOM     30  H   UNL     1       0.593   4.324  19.268  0.00  0.00    +0.000 HD
ENDBRANCH  16  18
ENDBRANCH   1  16
TORSDOF 4
ENDMDL
MODEL 7
REMARK VINA RESULT:      -9.3      5.488      7.359
REMARK  Name = 
REMARK  6 active torsions:
REMARK  status: ('A' for Active; 'I' for Inactive)
REMARK    1  A    between atoms: C_1  and  C_2
REMARK    2  A    between atoms: C_4  and  C_5
REMARK    3  A    between atoms: C_8  and  C_9
REMARK    4  A    between atoms: C_9  and  C_10
REMARK    5  A    between atoms: C_9  and  N_11
REMARK    6  A    between atoms: N_11  and  C_12
REMARK                            x       y       z     vdW  Elec       q    Type
REMARK                         _______ _______ _______ _____ _____    ______ ____
ROOT
ATOM      1  C   UNL     1       3.091   2.739  18.943  0.00  0.00    +0.000 C 
ATOM      2  C   UNL     1       3.659   2.569  20.362  0.00  0.00    +0.000 C 
ENDROOT
BRANCH   1   6
ATOM      3  C   UNL     1       5.440   3.944  16.529  0.00  0.00    +0.000 A 
ATOM      4  N   UNL     1       6.071   4.325  17.653  0.00  0.00    +0.000 NA
ATOM      5  O   UNL     1       5.225   3.892  18.672  0.00  0.00    +0.000 OA
ATOM      6  C   UNL     1       4.161   3.300  18.060  0.00  0.00    +0.000 A 
ATOM      7  N   UNL     1       4.246   3.300  16.750  0.00  0.00    +0.000 NA
BRANCH   3  11
ATOM      8  C   UNL     1       5.158   3.074  11.605  0.00  0.00    +0.000 C 
ATOM      9  C   UNL     1       5.825   3.714  12.782  0.00  0.00    +0.000 A 
ATOM     10  C   UNL     1       5.323   3.551  14.082  0.00  0.00    +0.000 A 
ATOM     11  C   UNL     1       5.954   4.160  15.184  0.00  0.00    +0.000 A 
ATOM     12  C   UNL     1       7.090   4.950  14.963  0.00  0.00    +0.000 A 
ATOM     13  C   UNL     1       7.598   5.112  13.675  0.00  0.00    +0.000 A 
ATOM     14  C   UNL     1       6.968   4.493  12.603  0.00  0.00    +0.000 A 
ATOM     15  F   UNL     1       7.482   4.651  11.370  0.00  0.00    +0.000 F 
ENDBRANCH   3  11
ENDBRANCH   1   6
BRANCH   1  16
ATOM     16  N   UNL     1       1.882   3.587  19.030  0.00  0.00    +0.000 N 
ATOM     17  H   UNL     1       1.130   3.089  19.504  0.00  0.00    +0.000 HD
BRANCH  16  18
ATOM     18  C   UNL     1       1.974   4.915  19.459  0.00  0.00    +0.000 A 
ATOM     19  C   UNL     1       1.495   5.265  20.733  0.00  0.00    +0.000 A 
ATOM     20  C   UNL     1       1.401   6.601  21.142  0.00  0.00    +0.000 A 
ATOM     21  C   UNL     1       1.784   7.615  20.271  0.00  0.00    +0.000 A 
ATOM     22  C   UNL     1       2.295   7.309  19.004  0.00  0.00    +0.000 A 
ATOM     23  C   UNL     1       2.363   5.957  18.613  0.00  0.00    +0.000 A 
ATOM     24  C   UNL     1       2.683   8.381  18.018  0.00  0.00    +0.000 C 
ATOM     25  C   UNL     1       1.481   9.230  17.597  0.00  0.00    +0.000 C 
ATOM     26  C   UNL     1       1.079  10.265  18.650  0.00  0.00    +0.000 C 
ATOM     27  C   UNL     1       0.592   9.618  19.937  0.00  0.00    +0.000 C 
ATOM     28  O   UNL     1      -0.584   9.639  20.279  0.00  0.00    +0.000 OA
ATOM     29  N   UNL     1       1.596   8.967  20.659  0.00  0.00    +0.000 N 
ATOM     30  H   UNL     1       2.463   9.470  20.503  0.00  0.00    +0.000 HD
ENDBRANCH  16  18
ENDBRANCH   1  16
TORSDOF 4
ENDMDL
MODEL 8
REMARK VINA RESULT:      -9.3      5.340      7.984
REMARK  Name = 
REMARK  6 active torsions:
REMARK  status: ('A' for Active; 'I' for Inactive)
REMARK    1  A    between atoms: C_1  and  C_2
REMARK    2  A    between atoms: C_4  and  C_5
REMARK    3  A    between atoms: C_8  and  C_9
REMARK    4  A    between atoms: C_9  and  C_10
REMARK    5  A    between atoms: C_9  and  N_11
REMARK    6  A    between atoms: N_11  and  C_12
REMARK                            x       y       z     vdW  Elec       q    Type
REMARK                         _______ _______ _______ _____ _____    ______ ____
ROOT
ATOM      1  C   UNL     1       2.213   5.347  19.710  0.00  0.00    +0.000 C 
ATOM      2  C   UNL     1       2.204   4.443  20.953  0.00  0.00    +0.000 C 
ENDROOT
BRANCH   1   6
ATOM      3  C   UNL     1       4.464   4.291  17.137  0.00  0.00    +0.000 A 
ATOM      4  N   UNL     1       4.157   3.092  17.662  0.00  0.00    +0.000 NA
ATOM      5  O   UNL     1       3.267   3.396  18.690  0.00  0.00    +0.000 OA
ATOM      6  C   UNL     1       3.131   4.752  18.689  0.00  0.00    +0.000 A 
ATOM      7  N   UNL     1       3.837   5.347  17.755  0.00  0.00    +0.000 NA
BRANCH   3  11
ATOM      8  C   UNL     1       5.659   3.356  12.365  0.00  0.00    +0.000 C 
ATOM      9  C   UNL     1       5.949   4.011  13.679  0.00  0.00    +0.000 A 
ATOM     10  C   UNL     1       5.080   3.865  14.773  0.00  0.00    +0.000 A 
ATOM     11  C   UNL     1       5.357   4.488  16.005  0.00  0.00    +0.000 A 
ATOM     12  C   UNL     1       6.511   5.275  16.123  0.00  0.00    +0.000 A 
ATOM     13  C   UNL     1       7.381   5.420  15.043  0.00  0.00    +0.000 A 
ATOM     14  C   UNL     1       7.096   4.787  13.840  0.00  0.00    +0.000 A 
ATOM     15  F   UNL     1       7.955   4.929  12.815  0.00  0.00    +0.000 F 
ENDBRANCH   3  11
ENDBRANCH   1   6
BRANCH   1  16
ATOM     16  N   UNL     1       2.596   6.710  20.136  0.00  0.00    +0.000 N 
ATOM     17  H   UNL     1       3.607   6.829  20.084  0.00  0.00    +0.000 HD
BRANCH  16  18
ATOM     18  C   UNL     1       1.917   7.828  19.642  0.00  0.00    +0.000 A 
ATOM     19  C   UNL     1       2.161   8.260  18.328  0.00  0.00    +0.000 A 
ATOM     20  C   UNL     1       1.644   9.469  17.843  0.00  0.00    +0.000 A 
ATOM     21  C   UNL     1       0.875  10.271  18.677  0.00  0.00    +0.000 A 
ATOM     22  C   UNL     1       0.582   9.863  19.985  0.00  0.00    +0.000 A 
ATOM     23  C   UNL     1       1.128   8.651  20.451  0.00  0.00    +0.000 A 
ATOM     24  C   UNL     1      -0.216  10.724  20.931  0.00  0.00    +0.000 C 
ATOM     25  C   UNL     1       0.498  12.042  21.241  0.00  0.00    +0.000 C 
ATOM     26  C   UNL     1       0.375  13.070  20.113  0.00  0.00    +0.000 C 
ATOM     27  C   UNL     1       1.066  12.613  18.839  0.00  0.00    +0.000 C 
ATOM     28  O   UNL     1       2.103  13.123  18.433  0.00  0.00    +0.000 OA
ATOM     29  N   UNL     1       0.436  11.536  18.208  0.00  0.00    +0.000 N 
ATOM     30  H   UNL     1      -0.560  11.618  18.384  0.00  0.00    +0.000 HD
ENDBRANCH  16  18
ENDBRANCH   1  16
TORSDOF 4
ENDMDL
MODEL 9
REMARK VINA RESULT:      -9.2      5.487      7.706
REMARK  Name = 
REMARK  6 active torsions:
REMARK  status: ('A' for Active; 'I' for Inactive)
REMARK    1  A    between atoms: C_1  and  C_2
REMARK    2  A    between atoms: C_4  and  C_5
REMARK    3  A    between atoms: C_8  and  C_9
REMARK    4  A    between atoms: C_9  and  C_10
REMARK    5  A    between atoms: C_9  and  N_11
REMARK    6  A    between atoms: N_11  and  C_12
REMARK                            x       y       z     vdW  Elec       q    Type
REMARK                         _______ _______ _______ _____ _____    ______ ____
ROOT
ATOM      1  C   UNL     1       2.944   4.574  19.305  0.00  0.00    +0.000 C 
ATOM      2  C   UNL     1       2.847   3.275  20.123  0.00  0.00    +0.000 C 
ENDROOT
BRANCH   1   6
ATOM      3  C   UNL     1       5.475   4.404  16.783  0.00  0.00    +0.000 A 
ATOM      4  N   UNL     1       6.223   4.111  17.860  0.00  0.00    +0.000 NA
ATOM      5  O   UNL     1       5.316   4.149  18.917  0.00  0.00    +0.000 OA
ATOM      6  C   UNL     1       4.109   4.470  18.372  0.00  0.00    +0.000 A 
ATOM      7  N   UNL     1       4.150   4.631  17.070  0.00  0.00    +0.000 NA
BRANCH   3  11
ATOM      8  C   UNL     1       5.093   3.080  11.969  0.00  0.00    +0.000 C 
ATOM      9  C   UNL     1       5.805   3.796  13.073  0.00  0.00    +0.000 A 
ATOM     10  C   UNL     1       5.310   3.784  14.387  0.00  0.00    +0.000 A 
ATOM     11  C   UNL     1       5.984   4.463  15.420  0.00  0.00    +0.000 A 
ATOM     12  C   UNL     1       7.155   5.171  15.116  0.00  0.00    +0.000 A 
ATOM     13  C   UNL     1       7.655   5.183  13.815  0.00  0.00    +0.000 A 
ATOM     14  C   UNL     1       6.983   4.496  12.813  0.00  0.00    +0.000 A 
ATOM     15  F   UNL     1       7.489   4.509  11.567  0.00  0.00    +0.000 F 
ENDBRANCH   3  11
ENDBRANCH   1   6
BRANCH   1  16
ATOM     16  N   UNL     1       3.035   5.707  20.252  0.00  0.00    +0.000 N 
ATOM     17  H   UNL     1       4.006   5.996  20.369  0.00  0.00    +0.000 HD
BRANCH  16  18
ATOM     18  C   UNL     1       2.178   6.805  20.134  0.00  0.00    +0.000 A 
ATOM     19  C   UNL     1       2.391   7.741  19.107  0.00  0.00    +0.000 A 
ATOM     20  C   UNL     1       1.676   8.944  19.049  0.00  0.00    +0.000 A 
ATOM     21  C   UNL     1       0.734   9.232  20.029  0.00  0.00    +0.000 A 
ATOM     22  C   UNL     1       0.469   8.313  21.053  0.00  0.00    +0.000 A 
ATOM     23  C   UNL     1       1.214   7.119  21.096  0.00  0.00    +0.000 A 
ATOM     24  C   UNL     1      -0.517   8.607  22.155  0.00  0.00    +0.000 C 
ATOM     25  C   UNL     1      -0.080   9.801  23.006  0.00  0.00    +0.000 C 
ATOM     26  C   UNL     1      -0.347  11.149  22.332  0.00  0.00    +0.000 C 
ATOM     27  C   UNL     1       0.471  11.330  21.064  0.00  0.00    +0.000 C 
ATOM     28  O   UNL     1       1.409  12.116  20.994  0.00  0.00    +0.000 OA
ATOM     29  N   UNL     1       0.084  10.493  20.015  0.00  0.00    +0.000 N 
ATOM     30  H   UNL     1      -0.916  10.341  20.096  0.00  0.00    +0.000 HD
ENDBRANCH  16  18
ENDBRANCH   1  16
TORSDOF 4
ENDMDL
