MODEL 1
REMARK VINA RESULT:      -8.9      0.000      0.000
REMARK  Name = 
REMARK  7 active torsions:
REMARK  status: ('A' for Active; 'I' for Inactive)
REMARK    1  A    between atoms: C_1  and  C_2
REMARK    2  A    between atoms: C_2  and  C_3
REMARK    3  A    between atoms: C_7  and  C_8
REMARK    4  A    between atoms: N_14  and  C_15
REMARK    5  A    between atoms: C_19  and  C_20
REMARK    6  A    between atoms: N_24  and  C_25
REMARK    7  A    between atoms: C_25  and  C_26
REMARK                            x       y       z     vdW  Elec       q    Type
REMARK                         _______ _______ _______ _____ _____    ______ ____
ROOT
ATOM      1  C   UNL     1       3.841   5.516  17.699  0.00  0.00    +0.000 A 
ATOM      2  C   UNL     1       3.401   6.838  17.786  0.00  0.00    +0.000 A 
ATOM      3  C   UNL     1       2.556   7.165  18.828  0.00  0.00    +0.000 A 
ATOM      4  C   UNL     1       2.134   6.243  19.779  0.00  0.00    +0.000 A 
ATOM      5  C   UNL     1       2.528   4.911  19.701  0.00  0.00    +0.000 A 
ATOM      6  C   UNL     1       3.391   4.562  18.642  0.00  0.00    +0.000 A 
ATOM      7  C   UNL     1       1.286   6.936  20.791  0.00  0.00    +0.000 C 
ATOM      8  N   UNL     1       1.218   8.310  20.302  0.00  0.00    +0.000 N 
ATOM      9  C   UNL     1       1.975   8.475  19.138  0.00  0.00    +0.000 C 
ATOM     10  O   UNL     1       2.178   9.448  18.440  0.00  0.00    +0.000 OA
ENDROOT
BRANCH   8  11
ATOM     11  C   UNL     1       0.420   9.291  20.936  0.00  0.00    +0.000 A 
ATOM     12  C   UNL     1       0.271   9.328  22.324  0.00  0.00    +0.000 A 
ATOM     13  C   UNL     1      -0.469  10.337  22.938  0.00  0.00    +0.000 A 
ATOM     14  C   UNL     1      -1.065  11.334  22.173  0.00  0.00    +0.000 A 
ATOM     15  C   UNL     1      -0.933  11.338  20.782  0.00  0.00    +0.000 A 
ATOM     16  C   UNL     1      -0.204  10.295  20.180  0.00  0.00    +0.000 A 
BRANCH  15  17
ATOM     17  C   UNL     1      -1.450  12.465  19.897  0.00  0.00    +0.000 C 
ATOM     18  C   UNL     1      -2.516  13.288  20.640  0.00  0.00    +0.000 C 
ATOM     19  C   UNL     1      -3.884  12.616  20.598  0.00  0.00    +0.000 C 
ATOM     20  C   UNL     1      -4.292  12.235  19.172  0.00  0.00    +0.000 C 
ATOM     21  N   UNL     1      -3.285  11.395  18.512  0.00  0.00    +0.000 NA
ATOM     22  C   UNL     1      -1.963  12.050  18.501  0.00  0.00    +0.000 C 
BRANCH  21  23
ATOM     23  C   UNL     1      -3.662  11.008  17.144  0.00  0.00    +0.000 C 
ATOM     24  C   UNL     1      -2.700  10.019  16.498  0.00  0.00    +0.000 C 
ENDBRANCH  21  23
ENDBRANCH  15  17
ENDBRANCH   8  11
BRANCH   5  25
ATOM     25  C   UNL     1       2.076   3.863  20.683  0.00  0.00    +0.000 C 
ATOM     26  F   UNL     1       2.432   4.131  21.970  0.00  0.00    +0.000 F 
ATOM     27  F   UNL     1       0.724   3.711  20.697  0.00  0.00    +0.000 F 
ATOM     28  F   UNL     1       2.591   2.634  20.406  0.00  0.00    +0.000 F 
ENDBRANCH   5  25
BRANCH   1  30
ATOM     29  C   UNL     1       5.248   6.348  15.824  0.00  0.00    +0.000 C 
ATOM     30  C   UNL     1       4.859   5.134  16.655  0.00  0.00    +0.000 C 
ENDBRANCH   1  30
TORSDOF 5
ENDMDL
MODEL 2
REMARK VINA RESULT:      -8.9      0.908      1.185
REMARK  Name = 
REMARK  7 active torsions:
REMARK  status: ('A' for Active; 'I' for Inactive)
REMARK    1  A    between atoms: C_1  and  C_2
REMARK    2  A    between atoms: C_2  and  C_3
REMARK    3  A    between atoms: C_7  and  C_8
REMARK    4  A    between atoms: N_14  and  C_15
REMARK    5  A    between atoms: C_19  and  C_20
REMARK    6  A    between atoms: N_24  and  C_25
REMARK    7  A    between atoms: C_25  and  C_26
REMARK                            x       y       z     vdW  Elec       q    Type
REMARK                         _______ _______ _______ _____ _____    ______ ____
ROOT
ATOM      1  C   UNL     1       3.995   4.423  17.508  0.00  0.00    +0.000 A 
ATOM      2  C   UNL     1       3.698   5.787  17.490  0.00  0.00    +0.000 A 
ATOM      3  C   UNL     1       2.908   6.284  18.506  0.00  0.00    +0.000 A 
ATOM      4  C   UNL     1       2.404   5.492  19.532  0.00  0.00    +0.000 A 
ATOM      5  C   UNL     1       2.654   4.124  19.560  0.00  0.00    +0.000 A 
ATOM      6  C   UNL     1       3.460   3.601  18.528  0.00  0.00    +0.000 A 
ATOM      7  C   UNL     1       1.649   6.351  20.489  0.00  0.00    +0.000 C 
ATOM      8  N   UNL     1       1.719   7.679  19.890  0.00  0.00    +0.000 N 
ATOM      9  C   UNL     1       2.473   7.669  18.712  0.00  0.00    +0.000 C 
ATOM     10  O   UNL     1       2.767   8.556  17.936  0.00  0.00    +0.000 OA
ENDROOT
BRANCH   8  11
ATOM     11  C   UNL     1       1.039   8.788  20.447  0.00  0.00    +0.000 A 
ATOM     12  C   UNL     1       1.023   9.020  21.824  0.00  0.00    +0.000 A 
ATOM     13  C   UNL     1       0.400  10.150  22.352  0.00  0.00    +0.000 A 
ATOM     14  C   UNL     1      -0.212  11.072  21.510  0.00  0.00    +0.000 A 
ATOM     15  C   UNL     1      -0.211  10.881  20.125  0.00  0.00    +0.000 A 
ATOM     16  C   UNL     1       0.401   9.720  19.614  0.00  0.00    +0.000 A 
BRANCH  15  17
ATOM     17  C   UNL     1      -0.749  11.910  19.139  0.00  0.00    +0.000 C 
ATOM     18  C   UNL     1      -1.650  12.927  19.859  0.00  0.00    +0.000 C 
ATOM     19  C   UNL     1      -3.059  12.386  20.075  0.00  0.00    +0.000 C 
ATOM     20  C   UNL     1      -3.667  11.842  18.780  0.00  0.00    +0.000 C 
ATOM     21  N   UNL     1      -2.816  10.824  18.150  0.00  0.00    +0.000 NA
ATOM     22  C   UNL     1      -1.460  11.346  17.890  0.00  0.00    +0.000 C 
BRANCH  21  23
ATOM     23  C   UNL     1      -3.388  10.279  16.910  0.00  0.00    +0.000 C 
ATOM     24  C   UNL     1      -2.766  10.854  15.642  0.00  0.00    +0.000 C 
ENDBRANCH  21  23
ENDBRANCH  15  17
ENDBRANCH   8  11
BRANCH   5  25
ATOM     25  C   UNL     1       2.110   3.212  20.627  0.00  0.00    +0.000 C 
ATOM     26  F   UNL     1       0.765   3.329  20.812  0.00  0.00    +0.000 F 
ATOM     27  F   UNL     1       2.333   1.898  20.352  0.00  0.00    +0.000 F 
ATOM     28  F   UNL     1       2.671   3.442  21.845  0.00  0.00    +0.000 F 
ENDBRANCH   5  25
BRANCH   1  30
ATOM     29  C   UNL     1       5.459   4.949  15.566  0.00  0.00    +0.000 C 
ATOM     30  C   UNL     1       4.952   3.853  16.493  0.00  0.00    +0.000 C 
ENDBRANCH   1  30
TORSDOF 5
ENDMDL
MODEL 3
REMARK VINA RESULT:      -8.5      3.010      8.298
REMARK  Name = 
REMARK  7 active torsions:
REMARK  status: ('A' for Active; 'I' for Inactive)
REMARK    1  A    between atoms: C_1  and  C_2
REMARK    2  A    between atoms: C_2  and  C_3
REMARK    3  A    between atoms: C_7  and  C_8
REMARK    4  A    between atoms: N_14  and  C_15
REMARK    5  A    between atoms: C_19  and  C_20
REMARK    6  A    between atoms: N_24  and  C_25
REMARK    7  A    between atoms: C_25  and  C_26
REMARK                            x       y       z     vdW  Elec       q    Type
REMARK                         _______ _______ _______ _____ _____    ______ ____
ROOT
ATOM      1  C   UNL     1       0.074  11.723  19.364  0.00  0.00    +0.000 A 
ATOM      2  C   UNL     1       0.798  10.899  18.499  0.00  0.00    +0.000 A 
ATOM      3  C   UNL     1       1.205   9.670  18.978  0.00  0.00    +0.000 A 
ATOM      4  C   UNL     1       0.925   9.228  20.266  0.00  0.00    +0.000 A 
ATOM      5  C   UNL     1       0.235  10.039  21.161  0.00  0.00    +0.000 A 
ATOM      6  C   UNL     1      -0.187  11.297  20.687  0.00  0.00    +0.000 A 
ATOM      7  C   UNL     1       1.451   7.842  20.434  0.00  0.00    +0.000 C 
ATOM      8  N   UNL     1       2.099   7.562  19.156  0.00  0.00    +0.000 N 
ATOM      9  C   UNL     1       1.957   8.632  18.267  0.00  0.00    +0.000 C 
ATOM     10  O   UNL     1       2.340   8.787  17.125  0.00  0.00    +0.000 OA
ENDROOT
BRANCH   8  11
ATOM     11  C   UNL     1       2.816   6.364  18.927  0.00  0.00    +0.000 A 
ATOM     12  C   UNL     1       2.279   5.117  19.253  0.00  0.00    +0.000 A 
ATOM     13  C   UNL     1       2.972   3.942  18.965  0.00  0.00    +0.000 A 
ATOM     14  C   UNL     1       4.213   3.995  18.339  0.00  0.00    +0.000 A 
ATOM     15  C   UNL     1       4.781   5.223  17.989  0.00  0.00    +0.000 A 
ATOM     16  C   UNL     1       4.077   6.398  18.312  0.00  0.00    +0.000 A 
BRANCH  15  17
ATOM     17  C   UNL     1       6.073   5.348  17.190  0.00  0.00    +0.000 C 
ATOM     18  C   UNL     1       7.213   4.586  17.885  0.00  0.00    +0.000 C 
ATOM     19  C   UNL     1       7.828   5.395  19.022  0.00  0.00    +0.000 C 
ATOM     20  C   UNL     1       8.222   6.805  18.573  0.00  0.00    +0.000 C 
ATOM     21  N   UNL     1       7.095   7.532  17.974  0.00  0.00    +0.000 NA
ATOM     22  C   UNL     1       6.517   6.785  16.841  0.00  0.00    +0.000 C 
BRANCH  21  23
ATOM     23  C   UNL     1       7.449   8.894  17.546  0.00  0.00    +0.000 C 
ATOM     24  C   UNL     1       8.576   9.521  18.357  0.00  0.00    +0.000 C 
ENDBRANCH  21  23
ENDBRANCH  15  17
ENDBRANCH   8  11
BRANCH   5  25
ATOM     25  C   UNL     1      -0.067   9.626  22.577  0.00  0.00    +0.000 C 
ATOM     26  F   UNL     1      -0.889   8.542  22.667  0.00  0.00    +0.000 F 
ATOM     27  F   UNL     1       1.054   9.299  23.275  0.00  0.00    +0.000 F 
ATOM     28  F   UNL     1      -0.679  10.612  23.287  0.00  0.00    +0.000 F 
ENDBRANCH   5  25
BRANCH   1  30
ATOM     29  C   UNL     1       0.557  14.117  18.885  0.00  0.00    +0.000 C 
ATOM     30  C   UNL     1      -0.499  13.021  18.853  0.00  0.00    +0.000 C 
ENDBRANCH   1  30
TORSDOF 5
ENDMDL
MODEL 4
REMARK VINA RESULT:      -8.4      1.543      2.391
REMARK  Name = 
REMARK  7 active torsions:
REMARK  status: ('A' for Active; 'I' for Inactive)
REMARK    1  A    between atoms: C_1  and  C_2
REMARK    2  A    between atoms: C_2  and  C_3
REMARK    3  A    between atoms: C_7  and  C_8
REMARK    4  A    between atoms: N_14  and  C_15
REMARK    5  A    between atoms: C_19  and  C_20
REMARK    6  A    between atoms: N_24  and  C_25
REMARK    7  A    between atoms: C_25  and  C_26
REMARK                            x       y       z     vdW  Elec       q    Type
REMARK                         _______ _______ _______ _____ _____    ______ ____
ROOT
ATOM      1  C   UNL     1       5.504   4.698  16.053  0.00  0.00    +0.000 A 
ATOM      2  C   UNL     1       5.123   6.002  16.375  0.00  0.00    +0.000 A 
ATOM      3  C   UNL     1       4.114   6.162  17.304  0.00  0.00    +0.000 A 
ATOM      4  C   UNL     1       3.474   5.093  17.921  0.00  0.00    +0.000 A 
ATOM      5  C   UNL     1       3.809   3.783  17.596  0.00  0.00    +0.000 A 
ATOM      6  C   UNL     1       4.838   3.602  16.649  0.00  0.00    +0.000 A 
ATOM      7  C   UNL     1       2.486   5.616  18.908  0.00  0.00    +0.000 C 
ATOM      8  N   UNL     1       2.580   7.065  18.755  0.00  0.00    +0.000 N 
ATOM      9  C   UNL     1       3.551   7.417  17.812  0.00  0.00    +0.000 C 
ATOM     10  O   UNL     1       3.930   8.498  17.411  0.00  0.00    +0.000 OA
ENDROOT
BRANCH   8  11
ATOM     11  C   UNL     1       1.727   7.948  19.458  0.00  0.00    +0.000 A 
ATOM     12  C   UNL     1       1.480   7.794  20.824  0.00  0.00    +0.000 A 
ATOM     13  C   UNL     1       0.686   8.708  21.515  0.00  0.00    +0.000 A 
ATOM     14  C   UNL     1       0.131   9.798  20.852  0.00  0.00    +0.000 A 
ATOM     15  C   UNL     1       0.361   9.992  19.487  0.00  0.00    +0.000 A 
ATOM     16  C   UNL     1       1.144   9.044  18.803  0.00  0.00    +0.000 A 
BRANCH  15  17
ATOM     17  C   UNL     1      -0.107  11.228  18.729  0.00  0.00    +0.000 C 
ATOM     18  C   UNL     1      -0.314  12.407  19.694  0.00  0.00    +0.000 C 
ATOM     19  C   UNL     1      -1.658  12.326  20.411  0.00  0.00    +0.000 C 
ATOM     20  C   UNL     1      -2.818  12.130  19.431  0.00  0.00    +0.000 C 
ATOM     21  N   UNL     1      -2.624  10.958  18.567  0.00  0.00    +0.000 NA
ATOM     22  C   UNL     1      -1.348  11.041  17.829  0.00  0.00    +0.000 C 
BRANCH  21  23
ATOM     23  C   UNL     1      -3.733  10.744  17.626  0.00  0.00    +0.000 C 
ATOM     24  C   UNL     1      -3.287  10.578  16.178  0.00  0.00    +0.000 C 
ENDBRANCH  21  23
ENDBRANCH  15  17
ENDBRANCH   8  11
BRANCH   5  25
ATOM     25  C   UNL     1       3.128   2.586  18.208  0.00  0.00    +0.000 C 
ATOM     26  F   UNL     1       3.152   2.582  19.570  0.00  0.00    +0.000 F 
ATOM     27  F   UNL     1       1.816   2.500  17.860  0.00  0.00    +0.000 F 
ATOM     28  F   UNL     1       3.698   1.412  17.825  0.00  0.00    +0.000 F 
ENDBRANCH   5  25
BRANCH   1  30
ATOM     29  C   UNL     1       6.207   4.018  13.764  0.00  0.00    +0.000 C 
ATOM     30  C   UNL     1       6.681   4.468  15.139  0.00  0.00    +0.000 C 
ENDBRANCH   1  30
TORSDOF 5
ENDMDL
MODEL 5
REMARK VINA RESULT:      -8.4      2.860      8.091
REMARK  Name = 
REMARK  7 active torsions:
REMARK  status: ('A' for Active; 'I' for Inactive)
REMARK    1  A    between atoms: C_1  and  C_2
REMARK    2  A    between atoms: C_2  and  C_3
REMARK    3  A    between atoms: C_7  and  C_8
REMARK    4  A    between atoms: N_14  and  C_15
REMARK    5  A    between atoms: C_19  and  C_20
REMARK    6  A    between atoms: N_24  and  C_25
REMARK    7  A    between atoms: C_25  and  C_26
REMARK                            x       y       z     vdW  Elec       q    Type
REMARK                         _______ _______ _______ _____ _____    ______ ____
ROOT
ATOM      1  C   UNL     1       0.228  11.307  19.305  0.00  0.00    +0.000 A 
ATOM      2  C   UNL     1       0.988  10.368  18.604  0.00  0.00    +0.000 A 
ATOM      3  C   UNL     1       1.338   9.207  19.263  0.00  0.00    +0.000 A 
ATOM      4  C   UNL     1       0.967   8.939  20.576  0.00  0.00    +0.000 A 
ATOM      5  C   UNL     1       0.239   9.868  21.311  0.00  0.00    +0.000 A 
ATOM      6  C   UNL     1      -0.126  11.060  20.652  0.00  0.00    +0.000 A 
ATOM      7  C   UNL     1       1.452   7.581  20.955  0.00  0.00    +0.000 C 
ATOM      8  N   UNL     1       2.175   7.129  19.770  0.00  0.00    +0.000 N 
ATOM      9  C   UNL     1       2.113   8.077  18.742  0.00  0.00    +0.000 C 
ATOM     10  O   UNL     1       2.570   8.077  17.618  0.00  0.00    +0.000 OA
ENDROOT
BRANCH   8  11
ATOM     11  C   UNL     1       2.880   5.903  19.744  0.00  0.00    +0.000 A 
ATOM     12  C   UNL     1       2.315   4.725  20.238  0.00  0.00    +0.000 A 
ATOM     13  C   UNL     1       2.998   3.512  20.151  0.00  0.00    +0.000 A 
ATOM     14  C   UNL     1       4.256   3.457  19.561  0.00  0.00    +0.000 A 
ATOM     15  C   UNL     1       4.852   4.612  19.048  0.00  0.00    +0.000 A 
ATOM     16  C   UNL     1       4.157   5.830  19.169  0.00  0.00    +0.000 A 
BRANCH  15  17
ATOM     17  C   UNL     1       6.167   4.602  18.277  0.00  0.00    +0.000 C 
ATOM     18  C   UNL     1       6.795   6.005  18.265  0.00  0.00    +0.000 C 
ATOM     19  C   UNL     1       6.169   6.899  17.200  0.00  0.00    +0.000 C 
ATOM     20  C   UNL     1       6.151   6.227  15.825  0.00  0.00    +0.000 C 
ATOM     21  N   UNL     1       5.486   4.918  15.855  0.00  0.00    +0.000 NA
ATOM     22  C   UNL     1       6.110   4.022  16.847  0.00  0.00    +0.000 C 
BRANCH  21  23
ATOM     23  C   UNL     1       5.447   4.258  14.541  0.00  0.00    +0.000 C 
ATOM     24  C   UNL     1       6.731   4.417  13.736  0.00  0.00    +0.000 C 
ENDBRANCH  21  23
ENDBRANCH  15  17
ENDBRANCH   8  11
BRANCH   5  25
ATOM     25  C   UNL     1      -0.163   9.647  22.746  0.00  0.00    +0.000 C 
ATOM     26  F   UNL     1      -0.803  10.711  23.305  0.00  0.00    +0.000 F 
ATOM     27  F   UNL     1      -1.005   8.588  22.892  0.00  0.00    +0.000 F 
ATOM     28  F   UNL     1       0.904   9.393  23.551  0.00  0.00    +0.000 F 
ENDBRANCH   5  25
BRANCH   1  30
ATOM     29  C   UNL     1      -1.579  12.222  17.858  0.00  0.00    +0.000 C 
ATOM     30  C   UNL     1      -0.284  12.535  18.595  0.00  0.00    +0.000 C 
ENDBRANCH   1  30
TORSDOF 5
ENDMDL
MODEL 6
REMARK VINA RESULT:      -8.4      3.094      8.278
REMARK  Name = 
REMARK  7 active torsions:
REMARK  status: ('A' for Active; 'I' for Inactive)
REMARK    1  A    between atoms: C_1  and  C_2
REMARK    2  A    between atoms: C_2  and  C_3
REMARK    3  A    between atoms: C_7  and  C_8
REMARK    4  A    between atoms: N_14  and  C_15
REMARK    5  A    between atoms: C_19  and  C_20
REMARK    6  A    between atoms: N_24  and  C_25
REMARK    7  A    between atoms: C_25  and  C_26
REMARK                            x       y       z     vdW  Elec       q    Type
REMARK                         _______ _______ _______ _____ _____    ______ ____
ROOT
ATOM      1  C   UNL     1       0.628  11.656  19.399  0.00  0.00    +0.000 A 
ATOM      2  C   UNL     1       1.287  10.765  18.548  0.00  0.00    +0.000 A 
ATOM      3  C   UNL     1       1.522   9.488  19.016  0.00  0.00    +0.000 A 
ATOM      4  C   UNL     1       1.133   9.060  20.281  0.00  0.00    +0.000 A 
ATOM      5  C   UNL     1       0.505   9.933  21.163  0.00  0.00    +0.000 A 
ATOM      6  C   UNL     1       0.258  11.242  20.700  0.00  0.00    +0.000 A 
ATOM      7  C   UNL     1       1.481   7.619  20.439  0.00  0.00    +0.000 C 
ATOM      8  N   UNL     1       2.149   7.285  19.185  0.00  0.00    +0.000 N 
ATOM      9  C   UNL     1       2.177   8.380  18.315  0.00  0.00    +0.000 C 
ATOM     10  O   UNL     1       2.627   8.507  17.194  0.00  0.00    +0.000 OA
ENDROOT
BRANCH   8  11
ATOM     11  C   UNL     1       2.727   6.014  18.960  0.00  0.00    +0.000 A 
ATOM     12  C   UNL     1       1.940   4.880  18.746  0.00  0.00    +0.000 A 
ATOM     13  C   UNL     1       2.524   3.646  18.466  0.00  0.00    +0.000 A 
ATOM     14  C   UNL     1       3.908   3.527  18.386  0.00  0.00    +0.000 A 
ATOM     15  C   UNL     1       4.730   4.639  18.586  0.00  0.00    +0.000 A 
ATOM     16  C   UNL     1       4.121   5.870  18.894  0.00  0.00    +0.000 A 
BRANCH  15  17
ATOM     17  C   UNL     1       6.241   4.607  18.388  0.00  0.00    +0.000 C 
ATOM     18  C   UNL     1       6.869   5.942  18.820  0.00  0.00    +0.000 C 
ATOM     19  C   UNL     1       6.741   7.007  17.735  0.00  0.00    +0.000 C 
ATOM     20  C   UNL     1       7.244   6.506  16.379  0.00  0.00    +0.000 C 
ATOM     21  N   UNL     1       6.579   5.265  15.963  0.00  0.00    +0.000 NA
ATOM     22  C   UNL     1       6.732   4.207  16.980  0.00  0.00    +0.000 C 
BRANCH  21  23
ATOM     23  C   UNL     1       7.039   4.772  14.656  0.00  0.00    +0.000 C 
ATOM     24  C   UNL     1       5.988   3.972  13.896  0.00  0.00    +0.000 C 
ENDBRANCH  21  23
ENDBRANCH  15  17
ENDBRANCH   8  11
BRANCH   5  25
ATOM     25  C   UNL     1       0.090   9.535  22.555  0.00  0.00    +0.000 C 
ATOM     26  F   UNL     1       1.130   9.148  23.345  0.00  0.00    +0.000 F 
ATOM     27  F   UNL     1      -0.526  10.547  23.223  0.00  0.00    +0.000 F 
ATOM     28  F   UNL     1      -0.785   8.493  22.559  0.00  0.00    +0.000 F 
ENDBRANCH   5  25
BRANCH   1  30
ATOM     29  C   UNL     1      -0.198  13.911  20.050  0.00  0.00    +0.000 C 
ATOM     30  C   UNL     1       0.239  13.022  18.894  0.00  0.00    +0.000 C 
ENDBRANCH   1  30
TORSDOF 5
ENDMDL
MODEL 7
REMARK VINA RESULT:      -8.3      1.294      2.023
REMARK  Name = 
REMARK  7 active torsions:
REMARK  status: ('A' for Active; 'I' for Inactive)
REMARK    1  A    between atoms: C_1  and  C_2
REMARK    2  A    between atoms: C_2  and  C_3
REMARK    3  A    between atoms: C_7  and  C_8
REMARK    4  A    between atoms: N_14  and  C_15
REMARK    5  A    between atoms: C_19  and  C_20
REMARK    6  A    between atoms: N_24  and  C_25
REMARK    7  A    between atoms: C_25  and  C_26
REMARK                            x       y       z     vdW  Elec       q    Type
REMARK                         _______ _______ _______ _____ _____    ______ ____
ROOT
ATOM      1  C   UNL     1       5.128   5.128  16.267  0.00  0.00    +0.000 A 
ATOM      2  C   UNL     1       4.624   6.405  16.525  0.00  0.00    +0.000 A 
ATOM      3  C   UNL     1       3.739   6.544  17.576  0.00  0.00    +0.000 A 
ATOM      4  C   UNL     1       3.339   5.479  18.375  0.00  0.00    +0.000 A 
ATOM      5  C   UNL     1       3.797   4.190  18.123  0.00  0.00    +0.000 A 
ATOM      6  C   UNL     1       4.701   4.032  17.053  0.00  0.00    +0.000 A 
ATOM      7  C   UNL     1       2.435   5.985  19.448  0.00  0.00    +0.000 C 
ATOM      8  N   UNL     1       2.313   7.409  19.154  0.00  0.00    +0.000 N 
ATOM      9  C   UNL     1       3.090   7.770  18.048  0.00  0.00    +0.000 C 
ATOM     10  O   UNL     1       3.263   8.839  17.500  0.00  0.00    +0.000 OA
ENDROOT
BRANCH   8  11
ATOM     11  C   UNL     1       1.455   8.255  19.894  0.00  0.00    +0.000 A 
ATOM     12  C   UNL     1       1.134   7.987  21.227  0.00  0.00    +0.000 A 
ATOM     13  C   UNL     1       0.336   8.863  21.962  0.00  0.00    +0.000 A 
ATOM     14  C   UNL     1      -0.149  10.028  21.376  0.00  0.00    +0.000 A 
ATOM     15  C   UNL     1       0.155  10.337  20.048  0.00  0.00    +0.000 A 
ATOM     16  C   UNL     1       0.941   9.426  19.316  0.00  0.00    +0.000 A 
BRANCH  15  17
ATOM     17  C   UNL     1      -0.236  11.652  19.385  0.00  0.00    +0.000 C 
ATOM     18  C   UNL     1      -0.837  12.619  20.419  0.00  0.00    +0.000 C 
ATOM     19  C   UNL     1      -2.305  12.313  20.697  0.00  0.00    +0.000 C 
ATOM     20  C   UNL     1      -3.123  12.214  19.407  0.00  0.00    +0.000 C 
ATOM     21  N   UNL     1      -2.563  11.235  18.467  0.00  0.00    +0.000 NA
ATOM     22  C   UNL     1      -1.155  11.542  18.149  0.00  0.00    +0.000 C 
BRANCH  21  23
ATOM     23  C   UNL     1      -3.341  11.115  17.225  0.00  0.00    +0.000 C 
ATOM     24  C   UNL     1      -4.848  11.199  17.432  0.00  0.00    +0.000 C 
ENDBRANCH  21  23
ENDBRANCH  15  17
ENDBRANCH   8  11
BRANCH   5  25
ATOM     25  C   UNL     1       3.373   2.995  18.935  0.00  0.00    +0.000 C 
ATOM     26  F   UNL     1       2.022   2.843  19.020  0.00  0.00    +0.000 F 
ATOM     27  F   UNL     1       3.845   1.825  18.424  0.00  0.00    +0.000 F 
ATOM     28  F   UNL     1       3.819   3.053  20.219  0.00  0.00    +0.000 F 
ENDBRANCH   5  25
BRANCH   1  30
ATOM     29  C   UNL     1       5.691   4.010  14.116  0.00  0.00    +0.000 C 
ATOM     30  C   UNL     1       6.188   4.943  15.212  0.00  0.00    +0.000 C 
ENDBRANCH   1  30
TORSDOF 5
ENDMDL
MODEL 8
REMARK VINA RESULT:      -8.3      2.983      8.400
REMARK  Name = 
REMARK  7 active torsions:
REMARK  status: ('A' for Active; 'I' for Inactive)
REMARK    1  A    between atoms: C_1  and  C_2
REMARK    2  A    between atoms: C_2  and  C_3
REMARK    3  A    between atoms: C_7  and  C_8
REMARK    4  A    between atoms: N_14  and  C_15
REMARK    5  A    between atoms: C_19  and  C_20
REMARK    6  A    between atoms: N_24  and  C_25
REMARK    7  A    between atoms: C_25  and  C_26
REMARK                            x       y       z     vdW  Elec       q    Type
REMARK                         _______ _______ _______ _____ _____    ______ ____
ROOT
ATOM      1  C   UNL     1       0.051  12.376  20.078  0.00  0.00    +0.000 A 
ATOM      2  C   UNL     1       0.702  11.665  19.068  0.00  0.00    +0.000 A 
ATOM      3  C   UNL     1       0.994  10.337  19.304  0.00  0.00    +0.000 A 
ATOM      4  C   UNL     1       0.669   9.689  20.491  0.00  0.00    +0.000 A 
ATOM      5  C   UNL     1       0.050  10.378  21.529  0.00  0.00    +0.000 A 
ATOM      6  C   UNL     1      -0.254  11.736  21.302  0.00  0.00    +0.000 A 
ATOM      7  C   UNL     1       1.067   8.255  20.391  0.00  0.00    +0.000 C 
ATOM      8  N   UNL     1       1.694   8.162  19.077  0.00  0.00    +0.000 N 
ATOM      9  C   UNL     1       1.654   9.387  18.404  0.00  0.00    +0.000 C 
ATOM     10  O   UNL     1       2.055   9.717  17.306  0.00  0.00    +0.000 OA
ENDROOT
BRANCH   8  11
ATOM     11  C   UNL     1       2.301   6.968  18.620  0.00  0.00    +0.000 A 
ATOM     12  C   UNL     1       1.705   5.721  18.822  0.00  0.00    +0.000 A 
ATOM     13  C   UNL     1       2.285   4.560  18.314  0.00  0.00    +0.000 A 
ATOM     14  C   UNL     1       3.469   4.628  17.587  0.00  0.00    +0.000 A 
ATOM     15  C   UNL     1       4.093   5.857  17.356  0.00  0.00    +0.000 A 
ATOM     16  C   UNL     1       3.505   7.014  17.901  0.00  0.00    +0.000 A 
BRANCH  15  17
ATOM     17  C   UNL     1       5.318   6.018  16.464  0.00  0.00    +0.000 C 
ATOM     18  C   UNL     1       5.912   4.645  16.112  0.00  0.00    +0.000 C 
ATOM     19  C   UNL     1       6.790   4.100  17.233  0.00  0.00    +0.000 C 
ATOM     20  C   UNL     1       7.838   5.120  17.686  0.00  0.00    +0.000 C 
ATOM     21  N   UNL     1       7.235   6.400  18.080  0.00  0.00    +0.000 NA
ATOM     22  C   UNL     1       6.419   6.966  16.989  0.00  0.00    +0.000 C 
BRANCH  21  23
ATOM     23  C   UNL     1       8.224   7.391  18.530  0.00  0.00    +0.000 C 
ATOM     24  C   UNL     1       8.080   8.751  17.859  0.00  0.00    +0.000 C 
ENDBRANCH  21  23
ENDBRANCH  15  17
ENDBRANCH   8  11
BRANCH   5  25
ATOM     25  C   UNL     1      -0.297   9.737  22.847  0.00  0.00    +0.000 C 
ATOM     26  F   UNL     1       0.791   9.412  23.599  0.00  0.00    +0.000 F 
ATOM     27  F   UNL     1      -1.063  10.543  23.631  0.00  0.00    +0.000 F 
ATOM     28  F   UNL     1      -0.999   8.581  22.694  0.00  0.00    +0.000 F 
ENDBRANCH   5  25
BRANCH   1  30
ATOM     29  C   UNL     1       0.746  14.765  20.065  0.00  0.00    +0.000 C 
ATOM     30  C   UNL     1      -0.399  13.792  19.825  0.00  0.00    +0.000 C 
ENDBRANCH   1  30
TORSDOF 5
ENDMDL
MODEL 9
REMARK VINA RESULT:      -8.2      1.971      3.259
REMARK  Name = 
REMARK  7 active torsions:
REMARK  status: ('A' for Active; 'I' for Inactive)
REMARK    1  A    between atoms: C_1  and  C_2
REMARK    2  A    between atoms: C_2  and  C_3
REMARK    3  A    between atoms: C_7  and  C_8
REMARK    4  A    between atoms: N_14  and  C_15
REMARK    5  A    between atoms: C_19  and  C_20
REMARK    6  A    between atoms: N_24  and  C_25
REMARK    7  A    between atoms: C_25  and  C_26
REMARK                            x       y       z     vdW  Elec       q    Type
REMARK                         _______ _______ _______ _____ _____    ______ ____
ROOT
ATOM      1  C   UNL     1       5.418   4.518  15.984  0.00  0.00    +0.000 A 
ATOM      2  C   UNL     1       5.060   5.827  16.317  0.00  0.00    +0.000 A 
ATOM      3  C   UNL     1       4.103   5.999  17.296  0.00  0.00    +0.000 A 
ATOM      4  C   UNL     1       3.492   4.938  17.955  0.00  0.00    +0.000 A 
ATOM      5  C   UNL     1       3.802   3.623  17.623  0.00  0.00    +0.000 A 
ATOM      6  C   UNL     1       4.778   3.431  16.623  0.00  0.00    +0.000 A 
ATOM      7  C   UNL     1       2.561   5.474  18.990  0.00  0.00    +0.000 C 
ATOM      8  N   UNL     1       2.654   6.920  18.821  0.00  0.00    +0.000 N 
ATOM      9  C   UNL     1       3.575   7.260  17.825  0.00  0.00    +0.000 C 
ATOM     10  O   UNL     1       3.938   8.337  17.396  0.00  0.00    +0.000 OA
ENDROOT
BRANCH   8  11
ATOM     11  C   UNL     1       1.845   7.814  19.562  0.00  0.00    +0.000 A 
ATOM     12  C   UNL     1       1.568   7.599  20.914  0.00  0.00    +0.000 A 
ATOM     13  C   UNL     1       0.819   8.520  21.646  0.00  0.00    +0.000 A 
ATOM     14  C   UNL     1       0.341   9.676  21.039  0.00  0.00    +0.000 A 
ATOM     15  C   UNL     1       0.603   9.932  19.690  0.00  0.00    +0.000 A 
ATOM     16  C   UNL     1       1.339   8.977  18.963  0.00  0.00    +0.000 A 
BRANCH  15  17
ATOM     17  C   UNL     1       0.221  11.233  18.996  0.00  0.00    +0.000 C 
ATOM     18  C   UNL     1       1.412  12.206  18.980  0.00  0.00    +0.000 C 
ATOM     19  C   UNL     1       1.560  12.945  20.306  0.00  0.00    +0.000 C 
ATOM     20  C   UNL     1       0.247  13.597  20.747  0.00  0.00    +0.000 C 
ATOM     21  N   UNL     1      -0.857  12.631  20.818  0.00  0.00    +0.000 NA
ATOM     22  C   UNL     1      -1.046  11.938  19.528  0.00  0.00    +0.000 C 
BRANCH  21  23
ATOM     23  C   UNL     1      -2.126  13.233  21.252  0.00  0.00    +0.000 C 
ATOM     24  C   UNL     1      -2.645  12.687  22.576  0.00  0.00    +0.000 C 
ENDBRANCH  21  23
ENDBRANCH  15  17
ENDBRANCH   8  11
BRANCH   5  25
ATOM     25  C   UNL     1       3.150   2.435  18.279  0.00  0.00    +0.000 C 
ATOM     26  F   UNL     1       3.275   2.423  19.635  0.00  0.00    +0.000 F 
ATOM     27  F   UNL     1       1.814   2.372  18.030  0.00  0.00    +0.000 F 
ATOM     28  F   UNL     1       3.670   1.253  17.850  0.00  0.00    +0.000 F 
ENDBRANCH   5  25
BRANCH   1  30
ATOM     29  C   UNL     1       5.990   3.886  13.646  0.00  0.00    +0.000 C 
ATOM     30  C   UNL     1       6.542   4.276  15.010  0.00  0.00    +0.000 C 
ENDBRANCH   1  30
TORSDOF 5
ENDMDL
