MODEL 1
REMARK VINA RESULT:      -9.3      0.000      0.000
REMARK  Name = 
REMARK  6 active torsions:
REMARK  status: ('A' for Active; 'I' for Inactive)
REMARK    1  A    between atoms: C_1  and  C_2
REMARK    2  A    between atoms: C_2  and  C_3
REMARK    3  A    between atoms: C_2  and  N_4
REMARK    4  A    between atoms: C_8  and  N_9
REMARK    5  A    between atoms: C_10  and  C_12
REMARK    6  A    between atoms: C_14  and  C_15
REMARK                            x       y       z     vdW  Elec       q    Type
REMARK                         _______ _______ _______ _____ _____    ______ ____
ROOT
ATOM      1  C   UNL     1       3.063   6.093  18.923  0.00  0.00    +0.000 A 
ATOM      2  C   UNL     1       2.561   7.305  19.416  0.00  0.00    +0.000 A 
ATOM      3  C   UNL     1       1.589   7.291  20.397  0.00  0.00    +0.000 A 
ATOM      4  N   UNL     1       1.138   6.120  20.899  0.00  0.00    +0.000 NA
ATOM      5  C   UNL     1       1.640   4.952  20.461  0.00  0.00    +0.000 A 
ATOM      6  C   UNL     1       1.142   3.785  21.020  0.00  0.00    +0.000 A 
ATOM      7  C   UNL     1       1.613   2.526  20.646  0.00  0.00    +0.000 A 
ATOM      8  C   UNL     1       2.629   2.424  19.708  0.00  0.00    +0.000 A 
ATOM      9  C   UNL     1       3.152   3.582  19.133  0.00  0.00    +0.000 A 
ATOM     10  C   UNL     1       2.639   4.862  19.469  0.00  0.00    +0.000 A 
ENDROOT
BRANCH   3  11
ATOM     11  C   UNL     1       0.967   8.528  20.918  0.00  0.00    +0.000 A 
ATOM     12  C   UNL     1       0.729   9.643  20.087  0.00  0.00    +0.000 A 
ATOM     13  C   UNL     1       0.126  10.806  20.574  0.00  0.00    +0.000 A 
ATOM     14  C   UNL     1      -0.255  10.881  21.910  0.00  0.00    +0.000 A 
ATOM     15  C   UNL     1      -0.028   9.802  22.751  0.00  0.00    +0.000 A 
ATOM     16  C   UNL     1       0.573   8.635  22.263  0.00  0.00    +0.000 A 
ENDBRANCH   3  11
BRANCH   1  18
ATOM     17  N   UNL     1       4.857   5.109  17.472  0.00  0.00    +0.000 N 
ATOM     18  C   UNL     1       4.021   6.236  17.808  0.00  0.00    +0.000 C 
ATOM     19  O   UNL     1       4.007   7.243  17.119  0.00  0.00    +0.000 OA
ATOM     20  H   UNL     1       4.746   4.248  17.989  0.00  0.00    +0.000 HD
BRANCH  17  25
ATOM     21  N   UNL     1       6.995   5.712  16.329  0.00  0.00    +0.000 N 
ATOM     22  N   UNL     1       7.609   5.522  15.139  0.00  0.00    +0.000 NA
ATOM     23  C   UNL     1       6.746   4.795  14.438  0.00  0.00    +0.000 A 
ATOM     24  C   UNL     1       5.568   4.536  15.155  0.00  0.00    +0.000 A 
ATOM     25  C   UNL     1       5.745   5.124  16.391  0.00  0.00    +0.000 A 
BRANCH  21  27
ATOM     26  C   UNL     1       7.395   7.887  17.469  0.00  0.00    +0.000 C 
ATOM     27  C   UNL     1       7.756   6.407  17.362  0.00  0.00    +0.000 C 
ATOM     28  C   UNL     1       7.676   5.693  18.709  0.00  0.00    +0.000 C 
ENDBRANCH  21  27
ENDBRANCH  17  25
ENDBRANCH   1  18
TORSDOF 4
ENDMDL
MODEL 2
REMARK VINA RESULT:      -8.9      2.169      3.583
REMARK  Name = 
REMARK  6 active torsions:
REMARK  status: ('A' for Active; 'I' for Inactive)
REMARK    1  A    between atoms: C_1  and  C_2
REMARK    2  A    between atoms: C_2  and  C_3
REMARK    3  A    between atoms: C_2  and  N_4
REMARK    4  A    between atoms: C_8  and  N_9
REMARK    5  A    between atoms: C_10  and  C_12
REMARK    6  A    between atoms: C_14  and  C_15
REMARK                            x       y       z     vdW  Elec       q    Type
REMARK                         _______ _______ _______ _____ _____    ______ ____
ROOT
ATOM      1  C   UNL     1       4.323   5.080  17.226  0.00  0.00    +0.000 A 
ATOM      2  C   UNL     1       3.864   6.363  17.551  0.00  0.00    +0.000 A 
ATOM      3  C   UNL     1       2.763   6.504  18.373  0.00  0.00    +0.000 A 
ATOM      4  N   UNL     1       2.142   5.417  18.882  0.00  0.00    +0.000 NA
ATOM      5  C   UNL     1       2.599   4.181  18.608  0.00  0.00    +0.000 A 
ATOM      6  C   UNL     1       1.925   3.106  19.167  0.00  0.00    +0.000 A 
ATOM      7  C   UNL     1       2.333   1.788  18.958  0.00  0.00    +0.000 A 
ATOM      8  C   UNL     1       3.461   1.532  18.193  0.00  0.00    +0.000 A 
ATOM      9  C   UNL     1       4.161   2.595  17.624  0.00  0.00    +0.000 A 
ATOM     10  C   UNL     1       3.718   3.934  17.787  0.00  0.00    +0.000 A 
ENDROOT
BRANCH   3  11
ATOM     11  C   UNL     1       2.183   7.824  18.705  0.00  0.00    +0.000 A 
ATOM     12  C   UNL     1       2.149   8.875  17.766  0.00  0.00    +0.000 A 
ATOM     13  C   UNL     1       1.586  10.117  18.073  0.00  0.00    +0.000 A 
ATOM     14  C   UNL     1       1.040  10.336  19.334  0.00  0.00    +0.000 A 
ATOM     15  C   UNL     1       1.065   9.323  20.279  0.00  0.00    +0.000 A 
ATOM     16  C   UNL     1       1.625   8.077  19.971  0.00  0.00    +0.000 A 
ENDBRANCH   3  11
BRANCH   1  18
ATOM     17  N   UNL     1       5.201   4.526  14.942  0.00  0.00    +0.000 N 
ATOM     18  C   UNL     1       5.442   5.056  16.262  0.00  0.00    +0.000 C 
ATOM     19  O   UNL     1       6.502   5.590  16.548  0.00  0.00    +0.000 OA
ATOM     20  H   UNL     1       4.270   4.211  14.706  0.00  0.00    +0.000 HD
BRANCH  17  25
ATOM     21  N   UNL     1       6.195   3.778  12.776  0.00  0.00    +0.000 N 
ATOM     22  N   UNL     1       7.275   4.032  12.003  0.00  0.00    +0.000 NA
ATOM     23  C   UNL     1       7.948   4.959  12.675  0.00  0.00    +0.000 A 
ATOM     24  C   UNL     1       7.325   5.288  13.889  0.00  0.00    +0.000 A 
ATOM     25  C   UNL     1       6.176   4.526  13.940  0.00  0.00    +0.000 A 
BRANCH  21  27
ATOM     26  C   UNL     1       4.112   3.556  11.434  0.00  0.00    +0.000 C 
ATOM     27  C   UNL     1       5.201   2.853  12.241  0.00  0.00    +0.000 C 
ATOM     28  C   UNL     1       5.846   1.705  11.468  0.00  0.00    +0.000 C 
ENDBRANCH  21  27
ENDBRANCH  17  25
ENDBRANCH   1  18
TORSDOF 4
ENDMDL
MODEL 3
REMARK VINA RESULT:      -8.2      1.110      1.306
REMARK  Name = 
REMARK  6 active torsions:
REMARK  status: ('A' for Active; 'I' for Inactive)
REMARK    1  A    between atoms: C_1  and  C_2
REMARK    2  A    between atoms: C_2  and  C_3
REMARK    3  A    between atoms: C_2  and  N_4
REMARK    4  A    between atoms: C_8  and  N_9
REMARK    5  A    between atoms: C_10  and  C_12
REMARK    6  A    between atoms: C_14  and  C_15
REMARK                            x       y       z     vdW  Elec       q    Type
REMARK                         _______ _______ _______ _____ _____    ______ ____
ROOT
ATOM      1  C   UNL     1       3.417   5.017  19.001  0.00  0.00    +0.000 A 
ATOM      2  C   UNL     1       3.056   6.370  19.033  0.00  0.00    +0.000 A 
ATOM      3  C   UNL     1       2.056   6.788  19.889  0.00  0.00    +0.000 A 
ATOM      4  N   UNL     1       1.444   5.907  20.711  0.00  0.00    +0.000 NA
ATOM      5  C   UNL     1       1.811   4.612  20.717  0.00  0.00    +0.000 A 
ATOM      6  C   UNL     1       1.151   3.759  21.588  0.00  0.00    +0.000 A 
ATOM      7  C   UNL     1       1.473   2.404  21.681  0.00  0.00    +0.000 A 
ATOM      8  C   UNL     1       2.500   1.888  20.905  0.00  0.00    +0.000 A 
ATOM      9  C   UNL     1       3.183   2.725  20.024  0.00  0.00    +0.000 A 
ATOM     10  C   UNL     1       2.824   4.091  19.885  0.00  0.00    +0.000 A 
ENDROOT
BRANCH   3  11
ATOM     11  C   UNL     1       1.577   8.187  19.931  0.00  0.00    +0.000 A 
ATOM     12  C   UNL     1       1.594   9.009  18.785  0.00  0.00    +0.000 A 
ATOM     13  C   UNL     1       1.126  10.326  18.819  0.00  0.00    +0.000 A 
ATOM     14  C   UNL     1       0.626  10.853  20.005  0.00  0.00    +0.000 A 
ATOM     15  C   UNL     1       0.603  10.069  21.149  0.00  0.00    +0.000 A 
ATOM     16  C   UNL     1       1.069   8.749  21.115  0.00  0.00    +0.000 A 
ENDBRANCH   3  11
BRANCH   1  18
ATOM     17  N   UNL     1       4.688   5.634  16.928  0.00  0.00    +0.000 N 
ATOM     18  C   UNL     1       4.425   4.678  17.974  0.00  0.00    +0.000 C 
ATOM     19  O   UNL     1       5.097   3.666  18.094  0.00  0.00    +0.000 OA
ATOM     20  H   UNL     1       4.198   6.518  16.940  0.00  0.00    +0.000 HD
BRANCH  17  25
ATOM     21  N   UNL     1       7.004   5.800  16.005  0.00  0.00    +0.000 N 
ATOM     22  N   UNL     1       7.695   5.437  14.901  0.00  0.00    +0.000 NA
ATOM     23  C   UNL     1       6.796   4.824  14.139  0.00  0.00    +0.000 A 
ATOM     24  C   UNL     1       5.523   4.811  14.730  0.00  0.00    +0.000 A 
ATOM     25  C   UNL     1       5.671   5.434  15.953  0.00  0.00    +0.000 A 
BRANCH  21  27
ATOM     26  C   UNL     1       7.328   7.854  17.370  0.00  0.00    +0.000 C 
ATOM     27  C   UNL     1       7.764   6.419  17.087  0.00  0.00    +0.000 C 
ATOM     28  C   UNL     1       7.772   5.556  18.346  0.00  0.00    +0.000 C 
ENDBRANCH  21  27
ENDBRANCH  17  25
ENDBRANCH   1  18
TORSDOF 4
ENDMDL
MODEL 4
REMARK VINA RESULT:      -8.0      2.302      7.166
REMARK  Name = 
REMARK  6 active torsions:
REMARK  status: ('A' for Active; 'I' for Inactive)
REMARK    1  A    between atoms: C_1  and  C_2
REMARK    2  A    between atoms: C_2  and  C_3
REMARK    3  A    between atoms: C_2  and  N_4
REMARK    4  A    between atoms: C_8  and  N_9
REMARK    5  A    between atoms: C_10  and  C_12
REMARK    6  A    between atoms: C_14  and  C_15
REMARK                            x       y       z     vdW  Elec       q    Type
REMARK                         _______ _______ _______ _____ _____    ______ ____
ROOT
ATOM      1  C   UNL     1       2.798   6.381  18.525  0.00  0.00    +0.000 A 
ATOM      2  C   UNL     1       3.714   6.291  17.470  0.00  0.00    +0.000 A 
ATOM      3  C   UNL     1       4.189   5.054  17.083  0.00  0.00    +0.000 A 
ATOM      4  N   UNL     1       3.757   3.930  17.698  0.00  0.00    +0.000 NA
ATOM      5  C   UNL     1       2.847   4.001  18.687  0.00  0.00    +0.000 A 
ATOM      6  C   UNL     1       2.437   2.814  19.273  0.00  0.00    +0.000 A 
ATOM      7  C   UNL     1       1.484   2.783  20.292  0.00  0.00    +0.000 A 
ATOM      8  C   UNL     1       0.900   3.965  20.722  0.00  0.00    +0.000 A 
ATOM      9  C   UNL     1       1.290   5.173  20.145  0.00  0.00    +0.000 A 
ATOM     10  C   UNL     1       2.298   5.216  19.148  0.00  0.00    +0.000 A 
ENDROOT
BRANCH   3  11
ATOM     11  C   UNL     1       5.206   4.887  16.022  0.00  0.00    +0.000 A 
ATOM     12  C   UNL     1       4.904   4.250  14.800  0.00  0.00    +0.000 A 
ATOM     13  C   UNL     1       5.859   4.107  13.791  0.00  0.00    +0.000 A 
ATOM     14  C   UNL     1       7.146   4.601  13.980  0.00  0.00    +0.000 A 
ATOM     15  C   UNL     1       7.473   5.227  15.173  0.00  0.00    +0.000 A 
ATOM     16  C   UNL     1       6.515   5.374  16.184  0.00  0.00    +0.000 A 
ENDBRANCH   3  11
BRANCH   1  18
ATOM     17  N   UNL     1       2.235   8.736  17.868  0.00  0.00    +0.000 N 
ATOM     18  C   UNL     1       2.443   7.762  18.912  0.00  0.00    +0.000 C 
ATOM     19  O   UNL     1       2.213   8.026  20.081  0.00  0.00    +0.000 OA
ATOM     20  H   UNL     1       2.311   8.441  16.904  0.00  0.00    +0.000 HD
BRANCH  17  25
ATOM     21  N   UNL     1       0.607  10.477  18.618  0.00  0.00    +0.000 N 
ATOM     22  N   UNL     1       0.545  11.817  18.783  0.00  0.00    +0.000 NA
ATOM     23  C   UNL     1       1.744  12.249  18.406  0.00  0.00    +0.000 A 
ATOM     24  C   UNL     1       2.572  11.201  17.974  0.00  0.00    +0.000 A 
ATOM     25  C   UNL     1       1.829  10.048  18.131  0.00  0.00    +0.000 A 
BRANCH  21  27
ATOM     26  C   UNL     1      -0.725   9.695  20.568  0.00  0.00    +0.000 C 
ATOM     27  C   UNL     1      -0.552   9.703  19.051  0.00  0.00    +0.000 C 
ATOM     28  C   UNL     1      -1.826  10.126  18.325  0.00  0.00    +0.000 C 
ENDBRANCH  21  27
ENDBRANCH  17  25
ENDBRANCH   1  18
TORSDOF 4
ENDMDL
MODEL 5
REMARK VINA RESULT:      -7.9      3.224      6.968
REMARK  Name = 
REMARK  6 active torsions:
REMARK  status: ('A' for Active; 'I' for Inactive)
REMARK    1  A    between atoms: C_1  and  C_2
REMARK    2  A    between atoms: C_2  and  C_3
REMARK    3  A    between atoms: C_2  and  N_4
REMARK    4  A    between atoms: C_8  and  N_9
REMARK    5  A    between atoms: C_10  and  C_12
REMARK    6  A    between atoms: C_14  and  C_15
REMARK                            x       y       z     vdW  Elec       q    Type
REMARK                         _______ _______ _______ _____ _____    ______ ____
ROOT
ATOM      1  C   UNL     1       5.911   5.416  17.913  0.00  0.00    +0.000 A 
ATOM      2  C   UNL     1       6.470   6.617  18.369  0.00  0.00    +0.000 A 
ATOM      3  C   UNL     1       7.288   7.349  17.531  0.00  0.00    +0.000 A 
ATOM      4  N   UNL     1       7.534   6.926  16.271  0.00  0.00    +0.000 NA
ATOM      5  C   UNL     1       6.971   5.795  15.809  0.00  0.00    +0.000 A 
ATOM      6  C   UNL     1       7.254   5.418  14.506  0.00  0.00    +0.000 A 
ATOM      7  C   UNL     1       6.704   4.272  13.931  0.00  0.00    +0.000 A 
ATOM      8  C   UNL     1       5.823   3.492  14.664  0.00  0.00    +0.000 A 
ATOM      9  C   UNL     1       5.517   3.850  15.977  0.00  0.00    +0.000 A 
ATOM     10  C   UNL     1       6.116   4.984  16.585  0.00  0.00    +0.000 A 
ENDROOT
BRANCH   3  11
ATOM     11  C   UNL     1       7.965   8.591  17.965  0.00  0.00    +0.000 A 
ATOM     12  C   UNL     1       7.760   9.817  17.298  0.00  0.00    +0.000 A 
ATOM     13  C   UNL     1       8.385  10.994  17.717  0.00  0.00    +0.000 A 
ATOM     14  C   UNL     1       9.234  10.973  18.819  0.00  0.00    +0.000 A 
ATOM     15  C   UNL     1       9.459   9.781  19.491  0.00  0.00    +0.000 A 
ATOM     16  C   UNL     1       8.829   8.601  19.074  0.00  0.00    +0.000 A 
ENDBRANCH   3  11
BRANCH   1  18
ATOM     17  N   UNL     1       3.711   4.879  18.993  0.00  0.00    +0.000 N 
ATOM     18  C   UNL     1       5.138   4.676  18.931  0.00  0.00    +0.000 C 
ATOM     19  O   UNL     1       5.688   3.825  19.611  0.00  0.00    +0.000 OA
ATOM     20  H   UNL     1       3.278   5.500  18.323  0.00  0.00    +0.000 HD
BRANCH  17  25
ATOM     21  N   UNL     1       2.310   2.930  19.684  0.00  0.00    +0.000 N 
ATOM     22  N   UNL     1       1.582   2.517  20.747  0.00  0.00    +0.000 NA
ATOM     23  C   UNL     1       1.703   3.504  21.628  0.00  0.00    +0.000 A 
ATOM     24  C   UNL     1       2.481   4.562  21.135  0.00  0.00    +0.000 A 
ATOM     25  C   UNL     1       2.886   4.173  19.874  0.00  0.00    +0.000 A 
BRANCH  21  27
ATOM     26  C   UNL     1       2.268   2.658  17.212  0.00  0.00    +0.000 C 
ATOM     27  C   UNL     1       2.449   1.993  18.574  0.00  0.00    +0.000 C 
ATOM     28  C   UNL     1       3.745   1.192  18.660  0.00  0.00    +0.000 C 
ENDBRANCH  21  27
ENDBRANCH  17  25
ENDBRANCH   1  18
TORSDOF 4
ENDMDL
MODEL 6
REMARK VINA RESULT:      -7.7      3.013      5.358
REMARK  Name = 
REMARK  6 active torsions:
REMARK  status: ('A' for Active; 'I' for Inactive)
REMARK    1  A    between atoms: C_1  and  C_2
REMARK    2  A    between atoms: C_2  and  C_3
REMARK    3  A    between atoms: C_2  and  N_4
REMARK    4  A    between atoms: C_8  and  N_9
REMARK    5  A    between atoms: C_10  and  C_12
REMARK    6  A    between atoms: C_14  and  C_15
REMARK                            x       y       z     vdW  Elec       q    Type
REMARK                         _______ _______ _______ _____ _____    ______ ____
ROOT
ATOM      1  C   UNL     1       0.859   9.165  18.890  0.00  0.00    +0.000 A 
ATOM      2  C   UNL     1      -0.131   9.644  18.022  0.00  0.00    +0.000 A 
ATOM      3  C   UNL     1      -1.269  10.229  18.543  0.00  0.00    +0.000 A 
ATOM      4  N   UNL     1      -1.421  10.362  19.880  0.00  0.00    +0.000 NA
ATOM      5  C   UNL     1      -0.459   9.941  20.721  0.00  0.00    +0.000 A 
ATOM      6  C   UNL     1      -0.670  10.112  22.080  0.00  0.00    +0.000 A 
ATOM      7  C   UNL     1       0.276   9.725  23.030  0.00  0.00    +0.000 A 
ATOM      8  C   UNL     1       1.481   9.177  22.615  0.00  0.00    +0.000 A 
ATOM      9  C   UNL     1       1.721   8.998  21.253  0.00  0.00    +0.000 A 
ATOM     10  C   UNL     1       0.740   9.339  20.286  0.00  0.00    +0.000 A 
ENDROOT
BRANCH   3  11
ATOM     11  C   UNL     1      -2.384  10.698  17.692  0.00  0.00    +0.000 A 
ATOM     12  C   UNL     1      -2.382  10.501  16.295  0.00  0.00    +0.000 A 
ATOM     13  C   UNL     1      -3.442  10.928  15.491  0.00  0.00    +0.000 A 
ATOM     14  C   UNL     1      -4.535  11.566  16.070  0.00  0.00    +0.000 A 
ATOM     15  C   UNL     1      -4.562  11.778  17.440  0.00  0.00    +0.000 A 
ATOM     16  C   UNL     1      -3.501  11.346  18.246  0.00  0.00    +0.000 A 
ENDBRANCH   3  11
BRANCH   1  18
ATOM     17  N   UNL     1       2.277   7.115  18.606  0.00  0.00    +0.000 N 
ATOM     18  C   UNL     1       1.977   8.472  18.218  0.00  0.00    +0.000 C 
ATOM     19  O   UNL     1       2.542   9.002  17.275  0.00  0.00    +0.000 OA
ATOM     20  H   UNL     1       1.700   6.669  19.305  0.00  0.00    +0.000 HD
BRANCH  17  25
ATOM     21  N   UNL     1       3.252   4.998  17.709  0.00  0.00    +0.000 N 
ATOM     22  N   UNL     1       4.366   4.573  17.069  0.00  0.00    +0.000 NA
ATOM     23  C   UNL     1       5.098   5.672  16.923  0.00  0.00    +0.000 A 
ATOM     24  C   UNL     1       4.479   6.799  17.486  0.00  0.00    +0.000 A 
ATOM     25  C   UNL     1       3.270   6.354  17.981  0.00  0.00    +0.000 A 
BRANCH  21  27
ATOM     26  C   UNL     1       2.561   2.630  17.389  0.00  0.00    +0.000 C 
ATOM     27  C   UNL     1       2.198   4.013  17.924  0.00  0.00    +0.000 C 
ATOM     28  C   UNL     1       1.744   3.970  19.381  0.00  0.00    +0.000 C 
ENDBRANCH  21  27
ENDBRANCH  17  25
ENDBRANCH   1  18
TORSDOF 4
ENDMDL
MODEL 7
REMARK VINA RESULT:      -7.7      2.992      5.276
REMARK  Name = 
REMARK  6 active torsions:
REMARK  status: ('A' for Active; 'I' for Inactive)
REMARK    1  A    between atoms: C_1  and  C_2
REMARK    2  A    between atoms: C_2  and  C_3
REMARK    3  A    between atoms: C_2  and  N_4
REMARK    4  A    between atoms: C_8  and  N_9
REMARK    5  A    between atoms: C_10  and  C_12
REMARK    6  A    between atoms: C_14  and  C_15
REMARK                            x       y       z     vdW  Elec       q    Type
REMARK                         _______ _______ _______ _____ _____    ______ ____
ROOT
ATOM      1  C   UNL     1       0.937   9.158  18.862  0.00  0.00    +0.000 A 
ATOM      2  C   UNL     1      -0.063   9.626  18.000  0.00  0.00    +0.000 A 
ATOM      3  C   UNL     1      -1.222  10.161  18.529  0.00  0.00    +0.000 A 
ATOM      4  N   UNL     1      -1.385  10.256  19.867  0.00  0.00    +0.000 NA
ATOM      5  C   UNL     1      -0.414   9.845  20.703  0.00  0.00    +0.000 A 
ATOM      6  C   UNL     1      -0.637   9.976  22.065  0.00  0.00    +0.000 A 
ATOM      7  C   UNL     1       0.316   9.597  23.011  0.00  0.00    +0.000 A 
ATOM      8  C   UNL     1       1.540   9.098  22.590  0.00  0.00    +0.000 A 
ATOM      9  C   UNL     1       1.793   8.960  21.225  0.00  0.00    +0.000 A 
ATOM     10  C   UNL     1       0.806   9.293  20.261  0.00  0.00    +0.000 A 
ENDROOT
BRANCH   3  11
ATOM     11  C   UNL     1      -2.347  10.615  17.683  0.00  0.00    +0.000 A 
ATOM     12  C   UNL     1      -3.453  11.301  18.228  0.00  0.00    +0.000 A 
ATOM     13  C   UNL     1      -4.509  11.745  17.428  0.00  0.00    +0.000 A 
ATOM     14  C   UNL     1      -4.483  11.513  16.057  0.00  0.00    +0.000 A 
ATOM     15  C   UNL     1      -3.411  10.836  15.494  0.00  0.00    +0.000 A 
ATOM     16  C   UNL     1      -2.351  10.394  16.295  0.00  0.00    +0.000 A 
ENDBRANCH   3  11
BRANCH   1  18
ATOM     17  N   UNL     1       2.489   7.203  18.610  0.00  0.00    +0.000 N 
ATOM     18  C   UNL     1       2.081   8.518  18.180  0.00  0.00    +0.000 C 
ATOM     19  O   UNL     1       2.576   9.047  17.198  0.00  0.00    +0.000 OA
ATOM     20  H   UNL     1       1.967   6.747  19.345  0.00  0.00    +0.000 HD
BRANCH  17  25
ATOM     21  N   UNL     1       3.658   5.115  17.892  0.00  0.00    +0.000 N 
ATOM     22  N   UNL     1       4.753   4.743  17.192  0.00  0.00    +0.000 NA
ATOM     23  C   UNL     1       5.309   5.892  16.821  0.00  0.00    +0.000 A 
ATOM     24  C   UNL     1       4.597   7.002  17.299  0.00  0.00    +0.000 A 
ATOM     25  C   UNL     1       3.514   6.488  17.981  0.00  0.00    +0.000 A 
BRANCH  21  27
ATOM     26  C   UNL     1       1.409   4.074  17.669  0.00  0.00    +0.000 C 
ATOM     27  C   UNL     1       2.774   4.048  18.353  0.00  0.00    +0.000 C 
ATOM     28  C   UNL     1       3.440   2.677  18.267  0.00  0.00    +0.000 C 
ENDBRANCH  21  27
ENDBRANCH  17  25
ENDBRANCH   1  18
TORSDOF 4
ENDMDL
MODEL 8
REMARK VINA RESULT:      -7.7      3.074      5.794
REMARK  Name = 
REMARK  6 active torsions:
REMARK  status: ('A' for Active; 'I' for Inactive)
REMARK    1  A    between atoms: C_1  and  C_2
REMARK    2  A    between atoms: C_2  and  C_3
REMARK    3  A    between atoms: C_2  and  N_4
REMARK    4  A    between atoms: C_8  and  N_9
REMARK    5  A    between atoms: C_10  and  C_12
REMARK    6  A    between atoms: C_14  and  C_15
REMARK                            x       y       z     vdW  Elec       q    Type
REMARK                         _______ _______ _______ _____ _____    ______ ____
ROOT
ATOM      1  C   UNL     1       1.442   9.897  19.351  0.00  0.00    +0.000 A 
ATOM      2  C   UNL     1       1.842  11.135  18.832  0.00  0.00    +0.000 A 
ATOM      3  C   UNL     1       1.451  12.298  19.464  0.00  0.00    +0.000 A 
ATOM      4  N   UNL     1       0.706  12.249  20.592  0.00  0.00    +0.000 NA
ATOM      5  C   UNL     1       0.349  11.065  21.122  0.00  0.00    +0.000 A 
ATOM      6  C   UNL     1      -0.407  11.080  22.283  0.00  0.00    +0.000 A 
ATOM      7  C   UNL     1      -0.810   9.904  22.919  0.00  0.00    +0.000 A 
ATOM      8  C   UNL     1      -0.425   8.677  22.399  0.00  0.00    +0.000 A 
ATOM      9  C   UNL     1       0.340   8.633  21.235  0.00  0.00    +0.000 A 
ATOM     10  C   UNL     1       0.705   9.824  20.554  0.00  0.00    +0.000 A 
ENDROOT
BRANCH   3  11
ATOM     11  C   UNL     1       1.780  13.640  18.937  0.00  0.00    +0.000 A 
ATOM     12  C   UNL     1       0.924  14.744  19.136  0.00  0.00    +0.000 A 
ATOM     13  C   UNL     1       1.242  16.016  18.654  0.00  0.00    +0.000 A 
ATOM     14  C   UNL     1       2.430  16.215  17.958  0.00  0.00    +0.000 A 
ATOM     15  C   UNL     1       3.288  15.148  17.742  0.00  0.00    +0.000 A 
ATOM     16  C   UNL     1       2.972  13.873  18.229  0.00  0.00    +0.000 A 
ENDBRANCH   3  11
BRANCH   1  18
ATOM     17  N   UNL     1       2.756   7.776  19.096  0.00  0.00    +0.000 N 
ATOM     18  C   UNL     1       1.836   8.733  18.532  0.00  0.00    +0.000 C 
ATOM     19  O   UNL     1       1.293   8.534  17.457  0.00  0.00    +0.000 OA
ATOM     20  H   UNL     1       3.083   7.913  20.042  0.00  0.00    +0.000 HD
BRANCH  17  25
ATOM     21  N   UNL     1       2.663   5.323  18.630  0.00  0.00    +0.000 N 
ATOM     22  N   UNL     1       3.221   4.417  17.795  0.00  0.00    +0.000 NA
ATOM     23  C   UNL     1       4.050   5.133  17.042  0.00  0.00    +0.000 A 
ATOM     24  C   UNL     1       4.053   6.490  17.402  0.00  0.00    +0.000 A 
ATOM     25  C   UNL     1       3.135   6.607  18.426  0.00  0.00    +0.000 A 
BRANCH  21  27
ATOM     26  C   UNL     1       1.094   3.460  19.136  0.00  0.00    +0.000 C 
ATOM     27  C   UNL     1       1.618   4.840  19.526  0.00  0.00    +0.000 C 
ATOM     28  C   UNL     1       2.045   4.905  20.990  0.00  0.00    +0.000 C 
ENDBRANCH  21  27
ENDBRANCH  17  25
ENDBRANCH   1  18
TORSDOF 4
ENDMDL
MODEL 9
REMARK VINA RESULT:      -7.7      1.817      7.418
REMARK  Name = 
REMARK  6 active torsions:
REMARK  status: ('A' for Active; 'I' for Inactive)
REMARK    1  A    between atoms: C_1  and  C_2
REMARK    2  A    between atoms: C_2  and  C_3
REMARK    3  A    between atoms: C_2  and  N_4
REMARK    4  A    between atoms: C_8  and  N_9
REMARK    5  A    between atoms: C_10  and  C_12
REMARK    6  A    between atoms: C_14  and  C_15
REMARK                            x       y       z     vdW  Elec       q    Type
REMARK                         _______ _______ _______ _____ _____    ______ ____
ROOT
ATOM      1  C   UNL     1       2.900   6.665  18.228  0.00  0.00    +0.000 A 
ATOM      2  C   UNL     1       3.753   6.457  17.136  0.00  0.00    +0.000 A 
ATOM      3  C   UNL     1       4.458   5.273  17.038  0.00  0.00    +0.000 A 
ATOM      4  N   UNL     1       4.313   4.309  17.974  0.00  0.00    +0.000 NA
ATOM      5  C   UNL     1       3.467   4.482  19.006  0.00  0.00    +0.000 A 
ATOM      6  C   UNL     1       3.356   3.454  19.929  0.00  0.00    +0.000 A 
ATOM      7  C   UNL     1       2.492   3.531  21.022  0.00  0.00    +0.000 A 
ATOM      8  C   UNL     1       1.694   4.653  21.188  0.00  0.00    +0.000 A 
ATOM      9  C   UNL     1       1.782   5.701  20.271  0.00  0.00    +0.000 A 
ATOM     10  C   UNL     1       2.699   5.651  19.189  0.00  0.00    +0.000 A 
ENDROOT
BRANCH   3  11
ATOM     11  C   UNL     1       5.424   5.010  15.949  0.00  0.00    +0.000 A 
ATOM     12  C   UNL     1       5.065   4.270  14.804  0.00  0.00    +0.000 A 
ATOM     13  C   UNL     1       5.972   4.035  13.767  0.00  0.00    +0.000 A 
ATOM     14  C   UNL     1       7.266   4.538  13.852  0.00  0.00    +0.000 A 
ATOM     15  C   UNL     1       7.649   5.265  14.969  0.00  0.00    +0.000 A 
ATOM     16  C   UNL     1       6.739   5.504  16.007  0.00  0.00    +0.000 A 
ENDBRANCH   3  11
BRANCH   1  18
ATOM     17  N   UNL     1       1.729   8.465  19.524  0.00  0.00    +0.000 N 
ATOM     18  C   UNL     1       2.281   8.006  18.273  0.00  0.00    +0.000 C 
ATOM     19  O   UNL     1       2.356   8.743  17.303  0.00  0.00    +0.000 OA
ATOM     20  H   UNL     1       1.803   7.870  20.338  0.00  0.00    +0.000 HD
BRANCH  17  25
ATOM     21  N   UNL     1       0.468  10.231  20.763  0.00  0.00    +0.000 N 
ATOM     22  N   UNL     1       0.103  11.524  20.613  0.00  0.00    +0.000 NA
ATOM     23  C   UNL     1       0.601  11.870  19.430  0.00  0.00    +0.000 A 
ATOM     24  C   UNL     1       1.262  10.803  18.803  0.00  0.00    +0.000 A 
ATOM     25  C   UNL     1       1.185   9.744  19.684  0.00  0.00    +0.000 A 
BRANCH  21  27
ATOM     26  C   UNL     1      -0.639  10.512  22.973  0.00  0.00    +0.000 C 
ATOM     27  C   UNL     1       0.142   9.595  22.035  0.00  0.00    +0.000 C 
ATOM     28  C   UNL     1      -0.545   8.245  21.840  0.00  0.00    +0.000 C 
ENDBRANCH  21  27
ENDBRANCH  17  25
ENDBRANCH   1  18
TORSDOF 4
ENDMDL
