MODEL 1
REMARK VINA RESULT:      -8.3      0.000      0.000
REMARK  Name = 
REMARK  5 active torsions:
REMARK  status: ('A' for Active; 'I' for Inactive)
REMARK    1  A    between atoms: C_1  and  N_2
REMARK    2  A    between atoms: C_4  and  O_5
REMARK    3  A    between atoms: O_5  and  C_6
REMARK    4  A    between atoms: C_11  and  C_12
REMARK    5  A    between atoms: N_14  and  C_15
REMARK                            x       y       z     vdW  Elec       q    Type
REMARK                         _______ _______ _______ _____ _____    ______ ____
ROOT
ATOM      1  C   UNL     1       2.953   7.612  18.004  0.00  0.00    +0.000 C 
ATOM      2  O   UNL     1       2.876   8.600  17.279  0.00  0.00    +0.000 OA
ATOM      3  N   UNL     1       2.331   7.494  19.239  0.00  0.00    +0.000 N 
ATOM      4  H   UNL     1       2.564   6.680  19.795  0.00  0.00    +0.000 HD
ENDROOT
BRANCH   3   5
ATOM      5  C   UNL     1       1.512   8.475  19.854  0.00  0.00    +0.000 A 
ATOM      6  C   UNL     1       0.995   9.583  19.168  0.00  0.00    +0.000 A 
ATOM      7  C   UNL     1       0.264  10.589  19.813  0.00  0.00    +0.000 A 
ATOM      8  C   UNL     1       0.048  10.434  21.180  0.00  0.00    +0.000 A 
ATOM      9  N   UNL     1      -0.574  11.236  22.099  0.00  0.00    +0.000 N 
ATOM     10  N   UNL     1      -0.623  10.712  23.337  0.00  0.00    +0.000 NA
ATOM     11  C   UNL     1       0.019   9.547  23.205  0.00  0.00    +0.000 A 
ATOM     12  C   UNL     1       0.488   9.323  21.890  0.00  0.00    +0.000 A 
ATOM     13  C   UNL     1       1.225   8.323  21.221  0.00  0.00    +0.000 A 
ATOM     14  H   UNL     1      -0.977  12.152  21.945  0.00  0.00    +0.000 HD
ENDBRANCH   3   5
BRANCH   1  20
ATOM     15  C   UNL     1       3.421   5.150  17.349  0.00  0.00    +0.000 A 
ATOM     16  C   UNL     1       4.370   4.190  16.943  0.00  0.00    +0.000 A 
ATOM     17  C   UNL     1       5.680   4.555  16.639  0.00  0.00    +0.000 A 
ATOM     18  C   UNL     1       6.074   5.877  16.779  0.00  0.00    +0.000 A 
ATOM     19  C   UNL     1       5.156   6.825  17.231  0.00  0.00    +0.000 A 
ATOM     20  C   UNL     1       3.819   6.482  17.530  0.00  0.00    +0.000 A 
BRANCH  15  21
ATOM     21  O   UNL     1       2.125   4.755  17.613  0.00  0.00    +0.000 OA
BRANCH  21  25
ATOM     22  C   UNL     1       1.667   2.513  21.890  0.00  0.00    +0.000 C 
ATOM     23  N   UNL     1       1.671   2.822  20.480  0.00  0.00    +0.000 N 
ATOM     24  C   UNL     1       1.882   4.041  19.898  0.00  0.00    +0.000 A 
ATOM     25  C   UNL     1       1.883   3.806  18.546  0.00  0.00    +0.000 A 
ATOM     26  C   UNL     1       1.597   2.432  18.408  0.00  0.00    +0.000 A 
ATOM     27  N   UNL     1       1.484   1.826  19.593  0.00  0.00    +0.000 NA
ENDBRANCH  21  25
ENDBRANCH  15  21
ENDBRANCH   1  20
TORSDOF 4
ENDMDL
MODEL 2
REMARK VINA RESULT:      -8.1      1.678      2.420
REMARK  Name = 
REMARK  5 active torsions:
REMARK  status: ('A' for Active; 'I' for Inactive)
REMARK    1  A    between atoms: C_1  and  N_2
REMARK    2  A    between atoms: C_4  and  O_5
REMARK    3  A    between atoms: O_5  and  C_6
REMARK    4  A    between atoms: C_11  and  C_12
REMARK    5  A    between atoms: N_14  and  C_15
REMARK                            x       y       z     vdW  Elec       q    Type
REMARK                         _______ _______ _______ _____ _____    ______ ____
ROOT
ATOM      1  C   UNL     1       4.448   6.702  17.437  0.00  0.00    +0.000 C 
ATOM      2  O   UNL     1       5.199   7.613  17.780  0.00  0.00    +0.000 OA
ATOM      3  N   UNL     1       3.121   6.592  17.824  0.00  0.00    +0.000 N 
ATOM      4  H   UNL     1       2.638   5.738  17.573  0.00  0.00    +0.000 HD
ENDROOT
BRANCH   3   5
ATOM      5  C   UNL     1       2.420   7.500  18.659  0.00  0.00    +0.000 A 
ATOM      6  C   UNL     1       2.177   7.260  20.019  0.00  0.00    +0.000 A 
ATOM      7  C   UNL     1       1.405   8.124  20.806  0.00  0.00    +0.000 A 
ATOM      8  C   UNL     1       0.897   9.261  20.182  0.00  0.00    +0.000 A 
ATOM      9  N   UNL     1       0.087  10.265  20.641  0.00  0.00    +0.000 N 
ATOM     10  N   UNL     1      -0.151  11.231  19.737  0.00  0.00    +0.000 NA
ATOM     11  C   UNL     1       0.508  10.809  18.653  0.00  0.00    +0.000 A 
ATOM     12  C   UNL     1       1.162   9.571  18.854  0.00  0.00    +0.000 A 
ATOM     13  C   UNL     1       1.940   8.686  18.079  0.00  0.00    +0.000 A 
ATOM     14  H   UNL     1      -0.340  10.343  21.557  0.00  0.00    +0.000 HD
ENDBRANCH   3   5
BRANCH   1  20
ATOM     15  C   UNL     1       5.376   4.325  16.993  0.00  0.00    +0.000 A 
ATOM     16  C   UNL     1       5.967   3.435  16.074  0.00  0.00    +0.000 A 
ATOM     17  C   UNL     1       6.144   3.790  14.738  0.00  0.00    +0.000 A 
ATOM     18  C   UNL     1       5.774   5.055  14.310  0.00  0.00    +0.000 A 
ATOM     19  C   UNL     1       5.238   5.963  15.224  0.00  0.00    +0.000 A 
ATOM     20  C   UNL     1       5.034   5.621  16.579  0.00  0.00    +0.000 A 
BRANCH  15  21
ATOM     21  O   UNL     1       5.190   3.927  18.302  0.00  0.00    +0.000 OA
BRANCH  21  25
ATOM     22  C   UNL     1       1.308   2.720  20.948  0.00  0.00    +0.000 C 
ATOM     23  N   UNL     1       2.275   2.851  19.883  0.00  0.00    +0.000 N 
ATOM     24  C   UNL     1       3.364   3.676  19.848  0.00  0.00    +0.000 A 
ATOM     25  C   UNL     1       4.017   3.370  18.680  0.00  0.00    +0.000 A 
ATOM     26  C   UNL     1       3.212   2.402  18.048  0.00  0.00    +0.000 A 
ATOM     27  N   UNL     1       2.153   2.071  18.791  0.00  0.00    +0.000 NA
ENDBRANCH  21  25
ENDBRANCH  15  21
ENDBRANCH   1  20
TORSDOF 4
ENDMDL
MODEL 3
REMARK VINA RESULT:      -8.0      1.567      1.911
REMARK  Name = 
REMARK  5 active torsions:
REMARK  status: ('A' for Active; 'I' for Inactive)
REMARK    1  A    between atoms: C_1  and  N_2
REMARK    2  A    between atoms: C_4  and  O_5
REMARK    3  A    between atoms: O_5  and  C_6
REMARK    4  A    between atoms: C_11  and  C_12
REMARK    5  A    between atoms: N_14  and  C_15
REMARK                            x       y       z     vdW  Elec       q    Type
REMARK                         _______ _______ _______ _____ _____    ______ ____
ROOT
ATOM      1  C   UNL     1       4.391   6.811  17.391  0.00  0.00    +0.000 C 
ATOM      2  O   UNL     1       5.160   7.681  17.793  0.00  0.00    +0.000 OA
ATOM      3  N   UNL     1       3.027   6.790  17.644  0.00  0.00    +0.000 N 
ATOM      4  H   UNL     1       2.519   5.962  17.359  0.00  0.00    +0.000 HD
ENDROOT
BRANCH   3   5
ATOM      5  C   UNL     1       2.306   7.756  18.391  0.00  0.00    +0.000 A 
ATOM      6  C   UNL     1       1.746   8.907  17.819  0.00  0.00    +0.000 A 
ATOM      7  C   UNL     1       1.116   9.895  18.587  0.00  0.00    +0.000 A 
ATOM      8  C   UNL     1       1.046   9.677  19.960  0.00  0.00    +0.000 A 
ATOM      9  N   UNL     1       0.549  10.446  20.979  0.00  0.00    +0.000 N 
ATOM     10  N   UNL     1       0.621   9.863  22.188  0.00  0.00    +0.000 NA
ATOM     11  C   UNL     1       1.216   8.693  21.933  0.00  0.00    +0.000 A 
ATOM     12  C   UNL     1       1.532   8.525  20.565  0.00  0.00    +0.000 A 
ATOM     13  C   UNL     1       2.166   7.544  19.773  0.00  0.00    +0.000 A 
ATOM     14  H   UNL     1       0.155  11.377  20.913  0.00  0.00    +0.000 HD
ENDBRANCH   3   5
BRANCH   1  20
ATOM     15  C   UNL     1       5.344   4.418  17.117  0.00  0.00    +0.000 A 
ATOM     16  C   UNL     1       5.946   3.471  16.264  0.00  0.00    +0.000 A 
ATOM     17  C   UNL     1       6.122   3.733  14.907  0.00  0.00    +0.000 A 
ATOM     18  C   UNL     1       5.741   4.961  14.390  0.00  0.00    +0.000 A 
ATOM     19  C   UNL     1       5.193   5.925  15.237  0.00  0.00    +0.000 A 
ATOM     20  C   UNL     1       4.990   5.677  16.612  0.00  0.00    +0.000 A 
BRANCH  15  21
ATOM     21  O   UNL     1       5.159   4.112  18.450  0.00  0.00    +0.000 OA
BRANCH  21  25
ATOM     22  C   UNL     1       1.222   2.912  21.017  0.00  0.00    +0.000 C 
ATOM     23  N   UNL     1       2.258   2.971  20.014  0.00  0.00    +0.000 N 
ATOM     24  C   UNL     1       3.243   3.911  19.891  0.00  0.00    +0.000 A 
ATOM     25  C   UNL     1       4.030   3.484  18.851  0.00  0.00    +0.000 A 
ATOM     26  C   UNL     1       3.402   2.319  18.366  0.00  0.00    +0.000 A 
ATOM     27  N   UNL     1       2.327   1.994  19.088  0.00  0.00    +0.000 NA
ENDBRANCH  21  25
ENDBRANCH  15  21
ENDBRANCH   1  20
TORSDOF 4
ENDMDL
MODEL 4
REMARK VINA RESULT:      -8.0      3.347      7.988
REMARK  Name = 
REMARK  5 active torsions:
REMARK  status: ('A' for Active; 'I' for Inactive)
REMARK    1  A    between atoms: C_1  and  N_2
REMARK    2  A    between atoms: C_4  and  O_5
REMARK    3  A    between atoms: O_5  and  C_6
REMARK    4  A    between atoms: C_11  and  C_12
REMARK    5  A    between atoms: N_14  and  C_15
REMARK                            x       y       z     vdW  Elec       q    Type
REMARK                         _______ _______ _______ _____ _____    ______ ____
ROOT
ATOM      1  C   UNL     1       4.429   3.908  18.299  0.00  0.00    +0.000 C 
ATOM      2  O   UNL     1       5.531   3.857  18.841  0.00  0.00    +0.000 OA
ATOM      3  N   UNL     1       4.230   4.156  16.949  0.00  0.00    +0.000 N 
ATOM      4  H   UNL     1       3.274   4.290  16.642  0.00  0.00    +0.000 HD
ENDROOT
BRANCH   3   5
ATOM      5  C   UNL     1       5.247   4.383  15.986  0.00  0.00    +0.000 A 
ATOM      6  C   UNL     1       6.335   5.240  16.206  0.00  0.00    +0.000 A 
ATOM      7  C   UNL     1       7.279   5.522  15.211  0.00  0.00    +0.000 A 
ATOM      8  C   UNL     1       7.108   4.891  13.981  0.00  0.00    +0.000 A 
ATOM      9  N   UNL     1       7.809   4.979  12.808  0.00  0.00    +0.000 N 
ATOM     10  N   UNL     1       7.357   4.164  11.839  0.00  0.00    +0.000 NA
ATOM     11  C   UNL     1       6.309   3.560  12.408  0.00  0.00    +0.000 A 
ATOM     12  C   UNL     1       6.081   3.988  13.737  0.00  0.00    +0.000 A 
ATOM     13  C   UNL     1       5.139   3.720  14.751  0.00  0.00    +0.000 A 
ATOM     14  H   UNL     1       8.600   5.580  12.606  0.00  0.00    +0.000 HD
ENDBRANCH   3   5
BRANCH   1  20
ATOM     15  C   UNL     1       2.671   4.697  20.029  0.00  0.00    +0.000 A 
ATOM     16  C   UNL     1       1.563   4.361  20.833  0.00  0.00    +0.000 A 
ATOM     17  C   UNL     1       0.957   3.109  20.738  0.00  0.00    +0.000 A 
ATOM     18  C   UNL     1       1.476   2.160  19.871  0.00  0.00    +0.000 A 
ATOM     19  C   UNL     1       2.605   2.465  19.110  0.00  0.00    +0.000 A 
ATOM     20  C   UNL     1       3.227   3.732  19.177  0.00  0.00    +0.000 A 
BRANCH  15  21
ATOM     21  O   UNL     1       3.226   5.957  20.130  0.00  0.00    +0.000 OA
BRANCH  21  25
ATOM     22  C   UNL     1       0.611   9.887  19.012  0.00  0.00    +0.000 C 
ATOM     23  N   UNL     1       1.517   8.764  18.963  0.00  0.00    +0.000 N 
ATOM     24  C   UNL     1       1.906   7.965  20.001  0.00  0.00    +0.000 A 
ATOM     25  C   UNL     1       2.692   6.990  19.439  0.00  0.00    +0.000 A 
ATOM     26  C   UNL     1       2.776   7.325  18.072  0.00  0.00    +0.000 A 
ATOM     27  N   UNL     1       2.044   8.401  17.776  0.00  0.00    +0.000 NA
ENDBRANCH  21  25
ENDBRANCH  15  21
ENDBRANCH   1  20
TORSDOF 4
ENDMDL
MODEL 5
REMARK VINA RESULT:      -7.9      2.030      3.987
REMARK  Name = 
REMARK  5 active torsions:
REMARK  status: ('A' for Active; 'I' for Inactive)
REMARK    1  A    between atoms: C_1  and  N_2
REMARK    2  A    between atoms: C_4  and  O_5
REMARK    3  A    between atoms: O_5  and  C_6
REMARK    4  A    between atoms: C_11  and  C_12
REMARK    5  A    between atoms: N_14  and  C_15
REMARK                            x       y       z     vdW  Elec       q    Type
REMARK                         _______ _______ _______ _____ _____    ______ ____
ROOT
ATOM      1  C   UNL     1       1.849   5.476  20.222  0.00  0.00    +0.000 C 
ATOM      2  O   UNL     1       0.698   5.201  20.551  0.00  0.00    +0.000 OA
ATOM      3  N   UNL     1       2.351   6.766  20.122  0.00  0.00    +0.000 N 
ATOM      4  H   UNL     1       3.279   6.869  19.729  0.00  0.00    +0.000 HD
ENDROOT
BRANCH   3   5
ATOM      5  C   UNL     1       1.632   7.960  20.385  0.00  0.00    +0.000 A 
ATOM      6  C   UNL     1       1.441   8.967  19.429  0.00  0.00    +0.000 A 
ATOM      7  C   UNL     1       0.807  10.179  19.733  0.00  0.00    +0.000 A 
ATOM      8  C   UNL     1       0.348  10.340  21.038  0.00  0.00    +0.000 A 
ATOM      9  N   UNL     1      -0.262  11.395  21.663  0.00  0.00    +0.000 N 
ATOM     10  N   UNL     1      -0.605  11.148  22.940  0.00  0.00    +0.000 NA
ATOM     11  C   UNL     1      -0.169   9.901  23.142  0.00  0.00    +0.000 A 
ATOM     12  C   UNL     1       0.460   9.347  22.002  0.00  0.00    +0.000 A 
ATOM     13  C   UNL     1       1.104   8.135  21.676  0.00  0.00    +0.000 A 
ATOM     14  H   UNL     1      -0.464  12.309  21.275  0.00  0.00    +0.000 HD
ENDBRANCH   3   5
BRANCH   1  20
ATOM     15  C   UNL     1       3.507   4.205  18.690  0.00  0.00    +0.000 A 
ATOM     16  C   UNL     1       4.268   3.038  18.476  0.00  0.00    +0.000 A 
ATOM     17  C   UNL     1       4.347   2.041  19.446  0.00  0.00    +0.000 A 
ATOM     18  C   UNL     1       3.632   2.173  20.626  0.00  0.00    +0.000 A 
ATOM     19  C   UNL     1       2.833   3.299  20.824  0.00  0.00    +0.000 A 
ATOM     20  C   UNL     1       2.749   4.331  19.863  0.00  0.00    +0.000 A 
BRANCH  15  21
ATOM     21  O   UNL     1       3.476   5.184  17.718  0.00  0.00    +0.000 OA
BRANCH  21  25
ATOM     22  C   UNL     1       7.632   7.679  17.515  0.00  0.00    +0.000 C 
ATOM     23  N   UNL     1       6.501   6.839  17.197  0.00  0.00    +0.000 N 
ATOM     24  C   UNL     1       5.524   6.405  18.048  0.00  0.00    +0.000 A 
ATOM     25  C   UNL     1       4.631   5.721  17.261  0.00  0.00    +0.000 A 
ATOM     26  C   UNL     1       5.189   5.737  15.967  0.00  0.00    +0.000 A 
ATOM     27  N   UNL     1       6.327   6.436  15.923  0.00  0.00    +0.000 NA
ENDBRANCH  21  25
ENDBRANCH  15  21
ENDBRANCH   1  20
TORSDOF 4
ENDMDL
MODEL 6
REMARK VINA RESULT:      -7.9      2.459      4.262
REMARK  Name = 
REMARK  5 active torsions:
REMARK  status: ('A' for Active; 'I' for Inactive)
REMARK    1  A    between atoms: C_1  and  N_2
REMARK    2  A    between atoms: C_4  and  O_5
REMARK    3  A    between atoms: O_5  and  C_6
REMARK    4  A    between atoms: C_11  and  C_12
REMARK    5  A    between atoms: N_14  and  C_15
REMARK                            x       y       z     vdW  Elec       q    Type
REMARK                         _______ _______ _______ _____ _____    ______ ____
ROOT
ATOM      1  C   UNL     1       2.130   5.495  19.669  0.00  0.00    +0.000 C 
ATOM      2  O   UNL     1       1.421   5.517  20.673  0.00  0.00    +0.000 OA
ATOM      3  N   UNL     1       2.409   6.602  18.881  0.00  0.00    +0.000 N 
ATOM      4  H   UNL     1       2.909   6.436  18.016  0.00  0.00    +0.000 HD
ENDROOT
BRANCH   3   5
ATOM      5  C   UNL     1       1.937   7.921  19.104  0.00  0.00    +0.000 A 
ATOM      6  C   UNL     1       1.902   8.902  18.103  0.00  0.00    +0.000 A 
ATOM      7  C   UNL     1       1.519  10.224  18.363  0.00  0.00    +0.000 A 
ATOM      8  C   UNL     1       1.147  10.527  19.670  0.00  0.00    +0.000 A 
ATOM      9  N   UNL     1       0.770  11.705  20.258  0.00  0.00    +0.000 N 
ATOM     10  N   UNL     1       0.434  11.585  21.555  0.00  0.00    +0.000 NA
ATOM     11  C   UNL     1       0.636  10.288  21.807  0.00  0.00    +0.000 A 
ATOM     12  C   UNL     1       1.107   9.575  20.680  0.00  0.00    +0.000 A 
ATOM     13  C   UNL     1       1.500   8.250  20.398  0.00  0.00    +0.000 A 
ATOM     14  H   UNL     1       0.728  12.622  19.830  0.00  0.00    +0.000 HD
ENDBRANCH   3   5
BRANCH   1  20
ATOM     15  C   UNL     1       3.966   3.925  18.735  0.00  0.00    +0.000 A 
ATOM     16  C   UNL     1       4.325   2.619  18.344  0.00  0.00    +0.000 A 
ATOM     17  C   UNL     1       3.458   1.545  18.540  0.00  0.00    +0.000 A 
ATOM     18  C   UNL     1       2.204   1.766  19.088  0.00  0.00    +0.000 A 
ATOM     19  C   UNL     1       1.820   3.063  19.429  0.00  0.00    +0.000 A 
ATOM     20  C   UNL     1       2.686   4.165  19.255  0.00  0.00    +0.000 A 
BRANCH  15  21
ATOM     21  O   UNL     1       4.862   4.958  18.553  0.00  0.00    +0.000 OA
BRANCH  21  25
ATOM     22  C   UNL     1       6.985   4.773  14.195  0.00  0.00    +0.000 C 
ATOM     23  N   UNL     1       6.738   4.807  15.617  0.00  0.00    +0.000 N 
ATOM     24  C   UNL     1       5.548   5.041  16.248  0.00  0.00    +0.000 A 
ATOM     25  C   UNL     1       5.805   4.876  17.586  0.00  0.00    +0.000 A 
ATOM     26  C   UNL     1       7.187   4.613  17.669  0.00  0.00    +0.000 A 
ATOM     27  N   UNL     1       7.757   4.554  16.462  0.00  0.00    +0.000 NA
ENDBRANCH  21  25
ENDBRANCH  15  21
ENDBRANCH   1  20
TORSDOF 4
ENDMDL
MODEL 7
REMARK VINA RESULT:      -7.9      2.262      4.137
REMARK  Name = 
REMARK  5 active torsions:
REMARK  status: ('A' for Active; 'I' for Inactive)
REMARK    1  A    between atoms: C_1  and  N_2
REMARK    2  A    between atoms: C_4  and  O_5
REMARK    3  A    between atoms: O_5  and  C_6
REMARK    4  A    between atoms: C_11  and  C_12
REMARK    5  A    between atoms: N_14  and  C_15
REMARK                            x       y       z     vdW  Elec       q    Type
REMARK                         _______ _______ _______ _____ _____    ______ ____
ROOT
ATOM      1  C   UNL     1       1.876   5.745  20.371  0.00  0.00    +0.000 C 
ATOM      2  O   UNL     1       0.706   5.407  20.535  0.00  0.00    +0.000 OA
ATOM      3  N   UNL     1       2.318   7.059  20.346  0.00  0.00    +0.000 N 
ATOM      4  H   UNL     1       3.285   7.215  20.086  0.00  0.00    +0.000 HD
ENDROOT
BRANCH   3   5
ATOM      5  C   UNL     1       1.508   8.212  20.508  0.00  0.00    +0.000 A 
ATOM      6  C   UNL     1       1.272   9.136  19.481  0.00  0.00    +0.000 A 
ATOM      7  C   UNL     1       0.544  10.315  19.686  0.00  0.00    +0.000 A 
ATOM      8  C   UNL     1       0.036  10.529  20.965  0.00  0.00    +0.000 A 
ATOM      9  N   UNL     1      -0.665  11.575  21.501  0.00  0.00    +0.000 N 
ATOM     10  N   UNL     1      -1.027  11.390  22.783  0.00  0.00    +0.000 NA
ATOM     11  C   UNL     1      -0.509  10.194  23.081  0.00  0.00    +0.000 A 
ATOM     12  C   UNL     1       0.192   9.613  21.998  0.00  0.00    +0.000 A 
ATOM     13  C   UNL     1       0.931   8.433  21.771  0.00  0.00    +0.000 A 
ATOM     14  H   UNL     1      -0.921  12.444  21.047  0.00  0.00    +0.000 HD
ENDBRANCH   3   5
BRANCH   1  20
ATOM     15  C   UNL     1       4.023   4.730  19.335  0.00  0.00    +0.000 A 
ATOM     16  C   UNL     1       4.841   3.593  19.177  0.00  0.00    +0.000 A 
ATOM     17  C   UNL     1       4.577   2.413  19.871  0.00  0.00    +0.000 A 
ATOM     18  C   UNL     1       3.467   2.337  20.698  0.00  0.00    +0.000 A 
ATOM     19  C   UNL     1       2.621   3.440  20.818  0.00  0.00    +0.000 A 
ATOM     20  C   UNL     1       2.876   4.651  20.138  0.00  0.00    +0.000 A 
BRANCH  15  21
ATOM     21  O   UNL     1       4.332   5.890  18.654  0.00  0.00    +0.000 OA
BRANCH  21  25
ATOM     22  C   UNL     1       6.642   4.905  14.503  0.00  0.00    +0.000 C 
ATOM     23  N   UNL     1       6.283   5.427  15.800  0.00  0.00    +0.000 N 
ATOM     24  C   UNL     1       5.088   5.289  16.450  0.00  0.00    +0.000 A 
ATOM     25  C   UNL     1       5.270   5.873  17.678  0.00  0.00    +0.000 A 
ATOM     26  C   UNL     1       6.578   6.395  17.651  0.00  0.00    +0.000 A 
ATOM     27  N   UNL     1       7.206   6.108  16.508  0.00  0.00    +0.000 NA
ENDBRANCH  21  25
ENDBRANCH  15  21
ENDBRANCH   1  20
TORSDOF 4
ENDMDL
MODEL 8
REMARK VINA RESULT:      -7.8      3.321      8.046
REMARK  Name = 
REMARK  5 active torsions:
REMARK  status: ('A' for Active; 'I' for Inactive)
REMARK    1  A    between atoms: C_1  and  N_2
REMARK    2  A    between atoms: C_4  and  O_5
REMARK    3  A    between atoms: O_5  and  C_6
REMARK    4  A    between atoms: C_11  and  C_12
REMARK    5  A    between atoms: N_14  and  C_15
REMARK                            x       y       z     vdW  Elec       q    Type
REMARK                         _______ _______ _______ _____ _____    ______ ____
ROOT
ATOM      1  C   UNL     1       3.565   4.900  17.526  0.00  0.00    +0.000 C 
ATOM      2  O   UNL     1       3.502   6.075  17.173  0.00  0.00    +0.000 OA
ATOM      3  N   UNL     1       4.462   3.974  17.015  0.00  0.00    +0.000 N 
ATOM      4  H   UNL     1       4.340   3.009  17.299  0.00  0.00    +0.000 HD
ENDROOT
BRANCH   3   5
ATOM      5  C   UNL     1       5.442   4.227  16.021  0.00  0.00    +0.000 A 
ATOM      6  C   UNL     1       6.585   5.006  16.251  0.00  0.00    +0.000 A 
ATOM      7  C   UNL     1       7.495   5.320  15.234  0.00  0.00    +0.000 A 
ATOM      8  C   UNL     1       7.229   4.804  13.969  0.00  0.00    +0.000 A 
ATOM      9  N   UNL     1       7.878   4.953  12.771  0.00  0.00    +0.000 N 
ATOM     10  N   UNL     1       7.334   4.246  11.765  0.00  0.00    +0.000 NA
ATOM     11  C   UNL     1       6.283   3.651  12.337  0.00  0.00    +0.000 A 
ATOM     12  C   UNL     1       6.144   3.978  13.706  0.00  0.00    +0.000 A 
ATOM     13  C   UNL     1       5.238   3.676  14.745  0.00  0.00    +0.000 A 
ATOM     14  H   UNL     1       8.689   5.527  12.577  0.00  0.00    +0.000 HD
ENDBRANCH   3   5
BRANCH   1  20
ATOM     15  C   UNL     1       2.212   5.113  19.725  0.00  0.00    +0.000 A 
ATOM     16  C   UNL     1       1.291   4.523  20.613  0.00  0.00    +0.000 A 
ATOM     17  C   UNL     1       0.663   3.317  20.305  0.00  0.00    +0.000 A 
ATOM     18  C   UNL     1       0.980   2.661  19.125  0.00  0.00    +0.000 A 
ATOM     19  C   UNL     1       1.931   3.211  18.265  0.00  0.00    +0.000 A 
ATOM     20  C   UNL     1       2.568   4.439  18.548  0.00  0.00    +0.000 A 
BRANCH  15  21
ATOM     21  O   UNL     1       2.790   6.323  20.051  0.00  0.00    +0.000 OA
BRANCH  21  25
ATOM     22  C   UNL     1       0.759  10.522  18.719  0.00  0.00    +0.000 C 
ATOM     23  N   UNL     1       1.131   9.330  19.442  0.00  0.00    +0.000 N 
ATOM     24  C   UNL     1       1.892   8.287  18.991  0.00  0.00    +0.000 A 
ATOM     25  C   UNL     1       2.042   7.450  20.068  0.00  0.00    +0.000 A 
ATOM     26  C   UNL     1       1.281   8.034  21.100  0.00  0.00    +0.000 A 
ATOM     27  N   UNL     1       0.736   9.194  20.724  0.00  0.00    +0.000 NA
ENDBRANCH  21  25
ENDBRANCH  15  21
ENDBRANCH   1  20
TORSDOF 4
ENDMDL
MODEL 9
REMARK VINA RESULT:      -7.8      2.487      4.321
REMARK  Name = 
REMARK  5 active torsions:
REMARK  status: ('A' for Active; 'I' for Inactive)
REMARK    1  A    between atoms: C_1  and  N_2
REMARK    2  A    between atoms: C_4  and  O_5
REMARK    3  A    between atoms: O_5  and  C_6
REMARK    4  A    between atoms: C_11  and  C_12
REMARK    5  A    between atoms: N_14  and  C_15
REMARK                            x       y       z     vdW  Elec       q    Type
REMARK                         _______ _______ _______ _____ _____    ______ ____
ROOT
ATOM      1  C   UNL     1       2.475   6.570  19.700  0.00  0.00    +0.000 C 
ATOM      2  O   UNL     1       2.783   7.226  18.708  0.00  0.00    +0.000 OA
ATOM      3  N   UNL     1       1.755   7.067  20.777  0.00  0.00    +0.000 N 
ATOM      4  H   UNL     1       1.665   6.465  21.587  0.00  0.00    +0.000 HD
ENDROOT
BRANCH   3   5
ATOM      5  C   UNL     1       1.258   8.389  20.906  0.00  0.00    +0.000 A 
ATOM      6  C   UNL     1       0.844   8.937  22.128  0.00  0.00    +0.000 A 
ATOM      7  C   UNL     1       0.271  10.212  22.221  0.00  0.00    +0.000 A 
ATOM      8  C   UNL     1       0.145  10.935  21.037  0.00  0.00    +0.000 A 
ATOM      9  N   UNL     1      -0.400  12.164  20.777  0.00  0.00    +0.000 N 
ATOM     10  N   UNL     1      -0.289  12.549  19.492  0.00  0.00    +0.000 NA
ATOM     11  C   UNL     1       0.321  11.511  18.910  0.00  0.00    +0.000 A 
ATOM     12  C   UNL     1       0.596  10.458  19.813  0.00  0.00    +0.000 A 
ATOM     13  C   UNL     1       1.168   9.170  19.741  0.00  0.00    +0.000 A 
ATOM     14  H   UNL     1      -0.866  12.783  21.429  0.00  0.00    +0.000 HD
ENDBRANCH   3   5
BRANCH   1  20
ATOM     15  C   UNL     1       4.243   4.696  19.434  0.00  0.00    +0.000 A 
ATOM     16  C   UNL     1       4.528   3.316  19.490  0.00  0.00    +0.000 A 
ATOM     17  C   UNL     1       3.578   2.402  19.941  0.00  0.00    +0.000 A 
ATOM     18  C   UNL     1       2.315   2.846  20.300  0.00  0.00    +0.000 A 
ATOM     19  C   UNL     1       2.006   4.203  20.196  0.00  0.00    +0.000 A 
ATOM     20  C   UNL     1       2.957   5.151  19.757  0.00  0.00    +0.000 A 
BRANCH  15  21
ATOM     21  O   UNL     1       5.220   5.574  19.010  0.00  0.00    +0.000 OA
BRANCH  21  25
ATOM     22  C   UNL     1       6.746   4.570  14.516  0.00  0.00    +0.000 C 
ATOM     23  N   UNL     1       6.684   4.813  15.938  0.00  0.00    +0.000 N 
ATOM     24  C   UNL     1       5.618   5.279  16.655  0.00  0.00    +0.000 A 
ATOM     25  C   UNL     1       6.018   5.248  17.967  0.00  0.00    +0.000 A 
ATOM     26  C   UNL     1       7.360   4.819  17.936  0.00  0.00    +0.000 A 
ATOM     27  N   UNL     1       7.764   4.536  16.694  0.00  0.00    +0.000 NA
ENDBRANCH  21  25
ENDBRANCH  15  21
ENDBRANCH   1  20
TORSDOF 4
ENDMDL
