MODEL 1
REMARK VINA RESULT:      -9.2      0.000      0.000
REMARK  Name = 
REMARK  4 active torsions:
REMARK  status: ('A' for Active; 'I' for Inactive)
REMARK    1  A    between atoms: C_2  and  C_19
REMARK    2  A    between atoms: N_3  and  C_4
REMARK    3  A    between atoms: C_8  and  S_9
REMARK    4  A    between atoms: S_9  and  C_12
REMARK                            x       y       z     vdW  Elec       q    Type
REMARK                         _______ _______ _______ _____ _____    ______ ____
ROOT
ATOM      1  C   UNL     1       3.358   6.188  17.809  0.00  0.00    +0.000 A 
ATOM      2  C   UNL     1       2.850   4.901  18.013  0.00  0.00    +0.000 A 
ATOM      3  C   UNL     1       3.622   3.766  17.755  0.00  0.00    +0.000 A 
ATOM      4  C   UNL     1       4.924   3.898  17.284  0.00  0.00    +0.000 A 
ATOM      5  C   UNL     1       5.441   5.176  17.061  0.00  0.00    +0.000 A 
ATOM      6  C   UNL     1       4.660   6.322  17.301  0.00  0.00    +0.000 A 
ENDROOT
BRANCH   1   9
ATOM      7  O   UNL     1       2.150   7.077  20.353  0.00  0.00    +0.000 OA
ATOM      8  C   UNL     1       2.061   7.721  19.313  0.00  0.00    +0.000 C 
ATOM      9  N   UNL     1       2.610   7.357  18.086  0.00  0.00    +0.000 N 
ATOM     10  H   UNL     1       2.520   8.054  17.353  0.00  0.00    +0.000 HD
BRANCH   8  11
ATOM     11  C   UNL     1       1.388   9.029  19.307  0.00  0.00    +0.000 A 
ATOM     12  N   UNL     1       1.439   9.855  18.239  0.00  0.00    +0.000 NA
ATOM     13  O   UNL     1       0.757  11.010  18.612  0.00  0.00    +0.000 OA
ATOM     14  C   UNL     1       0.324  10.867  19.882  0.00  0.00    +0.000 A 
ATOM     15  C   UNL     1       0.656   9.630  20.367  0.00  0.00    +0.000 A 
ATOM     16  C   UNL     1       0.334   9.207  21.755  0.00  0.00    +0.000 C 
ATOM     17  C   UNL     1      -0.666  10.187  22.415  0.00  0.00    +0.000 C 
ATOM     18  C   UNL     1      -0.348  11.667  22.101  0.00  0.00    +0.000 C 
ATOM     19  C   UNL     1      -0.377  11.962  20.584  0.00  0.00    +0.000 C 
ENDBRANCH   8  11
ENDBRANCH   1   9
BRANCH   5  20
ATOM     20  S   UNL     1       7.055   5.315  16.317  0.00  0.00    +0.000 S 
ATOM     21  O   UNL     1       7.427   6.719  16.377  0.00  0.00    +0.000 OA
ATOM     22  O   UNL     1       7.901   4.314  16.949  0.00  0.00    +0.000 OA
BRANCH  20  23
ATOM     23  C   UNL     1       6.924   4.882  14.593  0.00  0.00    +0.000 A 
ATOM     24  C   UNL     1       7.796   5.456  13.662  0.00  0.00    +0.000 A 
ATOM     25  C   UNL     1       7.755   5.041  12.330  0.00  0.00    +0.000 A 
ATOM     26  C   UNL     1       6.857   4.047  11.934  0.00  0.00    +0.000 A 
ATOM     27  C   UNL     1       6.002   3.463  12.869  0.00  0.00    +0.000 A 
ATOM     28  C   UNL     1       6.036   3.875  14.203  0.00  0.00    +0.000 A 
ENDBRANCH  20  23
ENDBRANCH   5  20
TORSDOF 4
ENDMDL
MODEL 2
REMARK VINA RESULT:      -8.8      1.267      1.643
REMARK  Name = 
REMARK  4 active torsions:
REMARK  status: ('A' for Active; 'I' for Inactive)
REMARK    1  A    between atoms: C_2  and  C_19
REMARK    2  A    between atoms: N_3  and  C_4
REMARK    3  A    between atoms: C_8  and  S_9
REMARK    4  A    between atoms: S_9  and  C_12
REMARK                            x       y       z     vdW  Elec       q    Type
REMARK                         _______ _______ _______ _____ _____    ______ ____
ROOT
ATOM      1  C   UNL     1       3.245   6.151  18.262  0.00  0.00    +0.000 A 
ATOM      2  C   UNL     1       2.553   4.967  17.983  0.00  0.00    +0.000 A 
ATOM      3  C   UNL     1       3.158   3.920  17.284  0.00  0.00    +0.000 A 
ATOM      4  C   UNL     1       4.472   4.038  16.847  0.00  0.00    +0.000 A 
ATOM      5  C   UNL     1       5.172   5.218  17.104  0.00  0.00    +0.000 A 
ATOM      6  C   UNL     1       4.561   6.284  17.791  0.00  0.00    +0.000 A 
ENDROOT
BRANCH   1   9
ATOM      7  O   UNL     1       1.631   6.074  20.734  0.00  0.00    +0.000 OA
ATOM      8  C   UNL     1       1.912   7.118  20.153  0.00  0.00    +0.000 C 
ATOM      9  N   UNL     1       2.669   7.219  18.989  0.00  0.00    +0.000 N 
ATOM     10  H   UNL     1       2.882   8.169  18.698  0.00  0.00    +0.000 HD
BRANCH   8  11
ATOM     11  C   UNL     1       1.501   8.413  20.718  0.00  0.00    +0.000 A 
ATOM     12  N   UNL     1       1.690   8.718  22.020  0.00  0.00    +0.000 NA
ATOM     13  O   UNL     1       1.126   9.978  22.206  0.00  0.00    +0.000 OA
ATOM     14  C   UNL     1       0.606  10.397  21.034  0.00  0.00    +0.000 A 
ATOM     15  C   UNL     1       0.838   9.477  20.048  0.00  0.00    +0.000 A 
ATOM     16  C   UNL     1       0.346   9.660  18.657  0.00  0.00    +0.000 C 
ATOM     17  C   UNL     1      -0.143  11.111  18.429  0.00  0.00    +0.000 C 
ATOM     18  C   UNL     1      -0.950  11.665  19.626  0.00  0.00    +0.000 C 
ATOM     19  C   UNL     1      -0.126  11.677  20.932  0.00  0.00    +0.000 C 
ENDBRANCH   8  11
ENDBRANCH   1   9
BRANCH   5  20
ATOM     20  S   UNL     1       6.802   5.403  16.405  0.00  0.00    +0.000 S 
ATOM     21  O   UNL     1       7.116   6.821  16.436  0.00  0.00    +0.000 OA
ATOM     22  O   UNL     1       7.667   4.455  17.092  0.00  0.00    +0.000 OA
BRANCH  20  23
ATOM     23  C   UNL     1       6.742   4.917  14.692  0.00  0.00    +0.000 A 
ATOM     24  C   UNL     1       7.701   5.402  13.796  0.00  0.00    +0.000 A 
ATOM     25  C   UNL     1       7.710   4.941  12.478  0.00  0.00    +0.000 A 
ATOM     26  C   UNL     1       6.775   3.992  12.062  0.00  0.00    +0.000 A 
ATOM     27  C   UNL     1       5.832   3.496  12.963  0.00  0.00    +0.000 A 
ATOM     28  C   UNL     1       5.816   3.952  14.283  0.00  0.00    +0.000 A 
ENDBRANCH  20  23
ENDBRANCH   5  20
TORSDOF 4
ENDMDL
MODEL 3
REMARK VINA RESULT:      -8.7      2.252      3.112
REMARK  Name = 
REMARK  4 active torsions:
REMARK  status: ('A' for Active; 'I' for Inactive)
REMARK    1  A    between atoms: C_2  and  C_19
REMARK    2  A    between atoms: N_3  and  C_4
REMARK    3  A    between atoms: C_8  and  S_9
REMARK    4  A    between atoms: S_9  and  C_12
REMARK                            x       y       z     vdW  Elec       q    Type
REMARK                         _______ _______ _______ _____ _____    ______ ____
ROOT
ATOM      1  C   UNL     1       1.802   6.006  20.459  0.00  0.00    +0.000 A 
ATOM      2  C   UNL     1       0.947   4.899  20.480  0.00  0.00    +0.000 A 
ATOM      3  C   UNL     1       1.403   3.623  20.142  0.00  0.00    +0.000 A 
ATOM      4  C   UNL     1       2.729   3.430  19.772  0.00  0.00    +0.000 A 
ATOM      5  C   UNL     1       3.592   4.527  19.730  0.00  0.00    +0.000 A 
ATOM      6  C   UNL     1       3.132   5.817  20.052  0.00  0.00    +0.000 A 
ENDROOT
BRANCH   1   9
ATOM      7  O   UNL     1       1.863   8.502  18.881  0.00  0.00    +0.000 OA
ATOM      8  C   UNL     1       1.434   8.450  20.029  0.00  0.00    +0.000 C 
ATOM      9  N   UNL     1       1.376   7.306  20.821  0.00  0.00    +0.000 N 
ATOM     10  H   UNL     1       0.904   7.426  21.713  0.00  0.00    +0.000 HD
BRANCH   8  11
ATOM     11  C   UNL     1       0.855   9.647  20.658  0.00  0.00    +0.000 A 
ATOM     12  N   UNL     1       1.176  10.021  21.915  0.00  0.00    +0.000 NA
ATOM     13  O   UNL     1       0.399  11.142  22.195  0.00  0.00    +0.000 OA
ATOM     14  C   UNL     1      -0.372  11.414  21.121  0.00  0.00    +0.000 A 
ATOM     15  C   UNL     1      -0.109  10.534  20.106  0.00  0.00    +0.000 A 
ATOM     16  C   UNL     1      -0.837  10.574  18.810  0.00  0.00    +0.000 C 
ATOM     17  C   UNL     1      -1.645  11.887  18.669  0.00  0.00    +0.000 C 
ATOM     18  C   UNL     1      -2.355  12.295  19.980  0.00  0.00    +0.000 C 
ATOM     19  C   UNL     1      -1.360  12.512  21.142  0.00  0.00    +0.000 C 
ENDBRANCH   8  11
ENDBRANCH   1   9
BRANCH   5  20
ATOM     20  S   UNL     1       5.245   4.279  19.110  0.00  0.00    +0.000 S 
ATOM     21  O   UNL     1       6.104   5.217  19.812  0.00  0.00    +0.000 OA
ATOM     22  O   UNL     1       5.516   2.851  19.186  0.00  0.00    +0.000 OA
BRANCH  20  23
ATOM     23  C   UNL     1       5.276   4.731  17.386  0.00  0.00    +0.000 A 
ATOM     24  C   UNL     1       5.138   6.072  17.015  0.00  0.00    +0.000 A 
ATOM     25  C   UNL     1       5.262   6.433  15.672  0.00  0.00    +0.000 A 
ATOM     26  C   UNL     1       5.537   5.461  14.708  0.00  0.00    +0.000 A 
ATOM     27  C   UNL     1       5.693   4.126  15.084  0.00  0.00    +0.000 A 
ATOM     28  C   UNL     1       5.569   3.757  16.425  0.00  0.00    +0.000 A 
ENDBRANCH  20  23
ENDBRANCH   5  20
TORSDOF 4
ENDMDL
MODEL 4
REMARK VINA RESULT:      -8.7      2.535      3.394
REMARK  Name = 
REMARK  4 active torsions:
REMARK  status: ('A' for Active; 'I' for Inactive)
REMARK    1  A    between atoms: C_2  and  C_19
REMARK    2  A    between atoms: N_3  and  C_4
REMARK    3  A    between atoms: C_8  and  S_9
REMARK    4  A    between atoms: S_9  and  C_12
REMARK                            x       y       z     vdW  Elec       q    Type
REMARK                         _______ _______ _______ _____ _____    ______ ____
ROOT
ATOM      1  C   UNL     1       2.474   5.795  18.775  0.00  0.00    +0.000 A 
ATOM      2  C   UNL     1       1.723   4.642  18.525  0.00  0.00    +0.000 A 
ATOM      3  C   UNL     1       2.174   3.659  17.641  0.00  0.00    +0.000 A 
ATOM      4  C   UNL     1       3.390   3.813  16.985  0.00  0.00    +0.000 A 
ATOM      5  C   UNL     1       4.145   4.966  17.211  0.00  0.00    +0.000 A 
ATOM      6  C   UNL     1       3.686   5.968  18.087  0.00  0.00    +0.000 A 
ENDROOT
BRANCH   1   9
ATOM      7  O   UNL     1       1.779   8.619  18.259  0.00  0.00    +0.000 OA
ATOM      8  C   UNL     1       1.744   8.118  19.379  0.00  0.00    +0.000 C 
ATOM      9  N   UNL     1       2.057   6.796  19.684  0.00  0.00    +0.000 N 
ATOM     10  H   UNL     1       1.883   6.527  20.648  0.00  0.00    +0.000 HD
BRANCH   8  11
ATOM     11  C   UNL     1       1.278   8.908  20.529  0.00  0.00    +0.000 A 
ATOM     12  N   UNL     1       1.610   8.587  21.798  0.00  0.00    +0.000 NA
ATOM     13  O   UNL     1       0.946   9.501  22.613  0.00  0.00    +0.000 OA
ATOM     14  C   UNL     1       0.227  10.335  21.832  0.00  0.00    +0.000 A 
ATOM     15  C   UNL     1       0.420  10.041  20.510  0.00  0.00    +0.000 A 
ATOM     16  C   UNL     1      -0.275  10.778  19.421  0.00  0.00    +0.000 C 
ATOM     17  C   UNL     1      -0.943  12.065  19.963  0.00  0.00    +0.000 C 
ATOM     18  C   UNL     1      -1.634  11.850  21.329  0.00  0.00    +0.000 C 
ATOM     19  C   UNL     1      -0.644  11.375  22.417  0.00  0.00    +0.000 C 
ENDBRANCH   8  11
ENDBRANCH   1   9
BRANCH   5  20
ATOM     20  S   UNL     1       5.624   5.210  16.247  0.00  0.00    +0.000 S 
ATOM     21  O   UNL     1       6.185   3.894  15.993  0.00  0.00    +0.000 OA
ATOM     22  O   UNL     1       5.265   6.071  15.130  0.00  0.00    +0.000 OA
BRANCH  20  23
ATOM     23  C   UNL     1       6.807   6.100  17.240  0.00  0.00    +0.000 A 
ATOM     24  C   UNL     1       7.077   7.445  16.964  0.00  0.00    +0.000 A 
ATOM     25  C   UNL     1       7.929   8.164  17.803  0.00  0.00    +0.000 A 
ATOM     26  C   UNL     1       8.496   7.548  18.920  0.00  0.00    +0.000 A 
ATOM     27  C   UNL     1       8.209   6.212  19.204  0.00  0.00    +0.000 A 
ATOM     28  C   UNL     1       7.360   5.485  18.368  0.00  0.00    +0.000 A 
ENDBRANCH  20  23
ENDBRANCH   5  20
TORSDOF 4
ENDMDL
MODEL 5
REMARK VINA RESULT:      -8.7      2.747      4.789
REMARK  Name = 
REMARK  4 active torsions:
REMARK  status: ('A' for Active; 'I' for Inactive)
REMARK    1  A    between atoms: C_2  and  C_19
REMARK    2  A    between atoms: N_3  and  C_4
REMARK    3  A    between atoms: C_8  and  S_9
REMARK    4  A    between atoms: S_9  and  C_12
REMARK                            x       y       z     vdW  Elec       q    Type
REMARK                         _______ _______ _______ _____ _____    ______ ____
ROOT
ATOM      1  C   UNL     1       3.071   7.389  17.846  0.00  0.00    +0.000 A 
ATOM      2  C   UNL     1       4.358   7.726  17.413  0.00  0.00    +0.000 A 
ATOM      3  C   UNL     1       5.256   6.749  16.979  0.00  0.00    +0.000 A 
ATOM      4  C   UNL     1       4.884   5.410  16.971  0.00  0.00    +0.000 A 
ATOM      5  C   UNL     1       3.608   5.055  17.414  0.00  0.00    +0.000 A 
ATOM      6  C   UNL     1       2.706   6.034  17.870  0.00  0.00    +0.000 A 
ENDROOT
BRANCH   1   9
ATOM      7  O   UNL     1       1.902   7.821  20.523  0.00  0.00    +0.000 OA
ATOM      8  C   UNL     1       1.611   8.510  19.550  0.00  0.00    +0.000 C 
ATOM      9  N   UNL     1       2.129   8.358  18.267  0.00  0.00    +0.000 N 
ATOM     10  H   UNL     1       1.848   9.075  17.604  0.00  0.00    +0.000 HD
BRANCH   8  11
ATOM     11  C   UNL     1       0.695   9.651  19.698  0.00  0.00    +0.000 A 
ATOM     12  N   UNL     1       0.393  10.465  18.664  0.00  0.00    +0.000 NA
ATOM     13  O   UNL     1      -0.437  11.457  19.182  0.00  0.00    +0.000 OA
ATOM     14  C   UNL     1      -0.607  11.232  20.502  0.00  0.00    +0.000 A 
ATOM     15  C   UNL     1       0.047  10.093  20.884  0.00  0.00    +0.000 A 
ATOM     16  C   UNL     1       0.061   9.617  22.293  0.00  0.00    +0.000 C 
ATOM     17  C   UNL     1      -0.991  10.373  23.142  0.00  0.00    +0.000 C 
ATOM     18  C   UNL     1      -1.040  11.885  22.825  0.00  0.00    +0.000 C 
ATOM     19  C   UNL     1      -1.386  12.162  21.345  0.00  0.00    +0.000 C 
ENDBRANCH   8  11
ENDBRANCH   1   9
BRANCH   5  20
ATOM     20  S   UNL     1       3.208   3.322  17.535  0.00  0.00    +0.000 S 
ATOM     21  O   UNL     1       2.147   3.066  16.576  0.00  0.00    +0.000 OA
ATOM     22  O   UNL     1       4.462   2.590  17.440  0.00  0.00    +0.000 OA
BRANCH  20  23
ATOM     23  C   UNL     1       2.535   3.008  19.155  0.00  0.00    +0.000 A 
ATOM     24  C   UNL     1       3.393   2.717  20.221  0.00  0.00    +0.000 A 
ATOM     25  C   UNL     1       2.870   2.570  21.507  0.00  0.00    +0.000 A 
ATOM     26  C   UNL     1       1.501   2.726  21.729  0.00  0.00    +0.000 A 
ATOM     27  C   UNL     1       0.651   3.036  20.667  0.00  0.00    +0.000 A 
ATOM     28  C   UNL     1       1.165   3.183  19.377  0.00  0.00    +0.000 A 
ENDBRANCH  20  23
ENDBRANCH   5  20
TORSDOF 4
ENDMDL
MODEL 6
REMARK VINA RESULT:      -8.7      4.529      8.983
REMARK  Name = 
REMARK  4 active torsions:
REMARK  status: ('A' for Active; 'I' for Inactive)
REMARK    1  A    between atoms: C_2  and  C_19
REMARK    2  A    between atoms: N_3  and  C_4
REMARK    3  A    between atoms: C_8  and  S_9
REMARK    4  A    between atoms: S_9  and  C_12
REMARK                            x       y       z     vdW  Elec       q    Type
REMARK                         _______ _______ _______ _____ _____    ______ ____
ROOT
ATOM      1  C   UNL     1       0.752   8.775  21.376  0.00  0.00    +0.000 A 
ATOM      2  C   UNL     1       0.380   9.016  22.704  0.00  0.00    +0.000 A 
ATOM      3  C   UNL     1      -0.366  10.144  23.054  0.00  0.00    +0.000 A 
ATOM      4  C   UNL     1      -0.755  11.057  22.081  0.00  0.00    +0.000 A 
ATOM      5  C   UNL     1      -0.378  10.839  20.754  0.00  0.00    +0.000 A 
ATOM      6  C   UNL     1       0.390   9.715  20.398  0.00  0.00    +0.000 A 
ENDROOT
BRANCH   1   9
ATOM      7  O   UNL     1       2.126   8.216  18.823  0.00  0.00    +0.000 OA
ATOM      8  C   UNL     1       2.111   7.423  19.759  0.00  0.00    +0.000 C 
ATOM      9  N   UNL     1       1.485   7.630  20.986  0.00  0.00    +0.000 N 
ATOM     10  H   UNL     1       1.653   6.907  21.680  0.00  0.00    +0.000 HD
BRANCH   8  11
ATOM     11  C   UNL     1       2.854   6.156  19.669  0.00  0.00    +0.000 A 
ATOM     12  N   UNL     1       4.128   6.104  19.224  0.00  0.00    +0.000 NA
ATOM     13  O   UNL     1       4.478   4.756  19.212  0.00  0.00    +0.000 OA
ATOM     14  C   UNL     1       3.420   4.031  19.634  0.00  0.00    +0.000 A 
ATOM     15  C   UNL     1       2.378   4.851  19.971  0.00  0.00    +0.000 A 
ATOM     16  C   UNL     1       1.069   4.324  20.438  0.00  0.00    +0.000 C 
ATOM     17  C   UNL     1       1.170   2.818  20.784  0.00  0.00    +0.000 C 
ATOM     18  C   UNL     1       2.015   2.025  19.760  0.00  0.00    +0.000 C 
ATOM     19  C   UNL     1       3.464   2.554  19.663  0.00  0.00    +0.000 C 
ENDBRANCH   8  11
ENDBRANCH   1   9
BRANCH   5  20
ATOM     20  S   UNL     1      -0.758  12.098  19.550  0.00  0.00    +0.000 S 
ATOM     21  O   UNL     1      -1.405  13.185  20.266  0.00  0.00    +0.000 OA
ATOM     22  O   UNL     1       0.463  12.350  18.800  0.00  0.00    +0.000 OA
BRANCH  20  23
ATOM     23  C   UNL     1      -1.955  11.442  18.404  0.00  0.00    +0.000 A 
ATOM     24  C   UNL     1      -1.559  10.502  17.446  0.00  0.00    +0.000 A 
ATOM     25  C   UNL     1      -2.518   9.918  16.616  0.00  0.00    +0.000 A 
ATOM     26  C   UNL     1      -3.864  10.261  16.751  0.00  0.00    +0.000 A 
ATOM     27  C   UNL     1      -4.258  11.185  17.720  0.00  0.00    +0.000 A 
ATOM     28  C   UNL     1      -3.305  11.774  18.554  0.00  0.00    +0.000 A 
ENDBRANCH  20  23
ENDBRANCH   5  20
TORSDOF 4
ENDMDL
MODEL 7
REMARK VINA RESULT:      -8.6      0.958      1.015
REMARK  Name = 
REMARK  4 active torsions:
REMARK  status: ('A' for Active; 'I' for Inactive)
REMARK    1  A    between atoms: C_2  and  C_19
REMARK    2  A    between atoms: N_3  and  C_4
REMARK    3  A    between atoms: C_8  and  S_9
REMARK    4  A    between atoms: S_9  and  C_12
REMARK                            x       y       z     vdW  Elec       q    Type
REMARK                         _______ _______ _______ _____ _____    ______ ____
ROOT
ATOM      1  C   UNL     1       2.982   5.770  17.946  0.00  0.00    +0.000 A 
ATOM      2  C   UNL     1       2.554   4.438  17.958  0.00  0.00    +0.000 A 
ATOM      3  C   UNL     1       3.399   3.401  17.554  0.00  0.00    +0.000 A 
ATOM      4  C   UNL     1       4.692   3.678  17.126  0.00  0.00    +0.000 A 
ATOM      5  C   UNL     1       5.129   5.004  17.093  0.00  0.00    +0.000 A 
ATOM      6  C   UNL     1       4.276   6.054  17.481  0.00  0.00    +0.000 A 
ENDROOT
BRANCH   1   9
ATOM      7  O   UNL     1       3.252   8.663  17.418  0.00  0.00    +0.000 OA
ATOM      8  C   UNL     1       2.342   8.191  18.093  0.00  0.00    +0.000 C 
ATOM      9  N   UNL     1       2.160   6.839  18.374  0.00  0.00    +0.000 N 
ATOM     10  H   UNL     1       1.301   6.617  18.868  0.00  0.00    +0.000 HD
BRANCH   8  11
ATOM     11  C   UNL     1       1.284   9.064  18.623  0.00  0.00    +0.000 A 
ATOM     12  N   UNL     1       0.563   9.881  17.825  0.00  0.00    +0.000 NA
ATOM     13  O   UNL     1      -0.287  10.593  18.668  0.00  0.00    +0.000 OA
ATOM     14  C   UNL     1      -0.058  10.206  19.941  0.00  0.00    +0.000 A 
ATOM     15  C   UNL     1       0.892   9.221  19.981  0.00  0.00    +0.000 A 
ATOM     16  C   UNL     1       1.369   8.627  21.257  0.00  0.00    +0.000 C 
ATOM     17  C   UNL     1       0.444   9.026  22.433  0.00  0.00    +0.000 C 
ATOM     18  C   UNL     1       0.007  10.508  22.373  0.00  0.00    +0.000 C 
ATOM     19  C   UNL     1      -0.762  10.839  21.075  0.00  0.00    +0.000 C 
ENDBRANCH   8  11
ENDBRANCH   1   9
BRANCH   5  20
ATOM     20  S   UNL     1       6.736   5.347  16.400  0.00  0.00    +0.000 S 
ATOM     21  O   UNL     1       6.923   6.787  16.460  0.00  0.00    +0.000 OA
ATOM     22  O   UNL     1       7.682   4.466  17.068  0.00  0.00    +0.000 OA
BRANCH  20  23
ATOM     23  C   UNL     1       6.718   4.893  14.677  0.00  0.00    +0.000 A 
ATOM     24  C   UNL     1       7.710   5.380  13.819  0.00  0.00    +0.000 A 
ATOM     25  C   UNL     1       7.749   4.944  12.493  0.00  0.00    +0.000 A 
ATOM     26  C   UNL     1       6.814   4.015  12.033  0.00  0.00    +0.000 A 
ATOM     27  C   UNL     1       5.838   3.517  12.897  0.00  0.00    +0.000 A 
ATOM     28  C   UNL     1       5.791   3.949  14.224  0.00  0.00    +0.000 A 
ENDBRANCH  20  23
ENDBRANCH   5  20
TORSDOF 4
ENDMDL
MODEL 8
REMARK VINA RESULT:      -8.6      1.017      1.449
REMARK  Name = 
REMARK  4 active torsions:
REMARK  status: ('A' for Active; 'I' for Inactive)
REMARK    1  A    between atoms: C_2  and  C_19
REMARK    2  A    between atoms: N_3  and  C_4
REMARK    3  A    between atoms: C_8  and  S_9
REMARK    4  A    between atoms: S_9  and  C_12
REMARK                            x       y       z     vdW  Elec       q    Type
REMARK                         _______ _______ _______ _____ _____    ______ ____
ROOT
ATOM      1  C   UNL     1       3.170   6.241  18.309  0.00  0.00    +0.000 A 
ATOM      2  C   UNL     1       2.600   4.963  18.324  0.00  0.00    +0.000 A 
ATOM      3  C   UNL     1       3.299   3.851  17.850  0.00  0.00    +0.000 A 
ATOM      4  C   UNL     1       4.587   3.996  17.348  0.00  0.00    +0.000 A 
ATOM      5  C   UNL     1       5.165   5.266  17.311  0.00  0.00    +0.000 A 
ATOM      6  C   UNL     1       4.458   6.393  17.770  0.00  0.00    +0.000 A 
ENDROOT
BRANCH   1   9
ATOM      7  O   UNL     1       2.592   8.804  16.960  0.00  0.00    +0.000 OA
ATOM      8  C   UNL     1       2.257   8.570  18.118  0.00  0.00    +0.000 C 
ATOM      9  N   UNL     1       2.498   7.382  18.805  0.00  0.00    +0.000 N 
ATOM     10  H   UNL     1       2.068   7.325  19.724  0.00  0.00    +0.000 HD
BRANCH   8  11
ATOM     11  C   UNL     1       1.475   9.557  18.877  0.00  0.00    +0.000 A 
ATOM     12  N   UNL     1       1.338  10.834  18.460  0.00  0.00    +0.000 NA
ATOM     13  O   UNL     1       0.600  11.484  19.446  0.00  0.00    +0.000 OA
ATOM     14  C   UNL     1       0.321  10.603  20.430  0.00  0.00    +0.000 A 
ATOM     15  C   UNL     1       0.810   9.364  20.118  0.00  0.00    +0.000 A 
ATOM     16  C   UNL     1       0.678   8.203  21.037  0.00  0.00    +0.000 C 
ATOM     17  C   UNL     1      -0.328   8.507  22.174  0.00  0.00    +0.000 C 
ATOM     18  C   UNL     1      -0.178   9.939  22.737  0.00  0.00    +0.000 C 
ATOM     19  C   UNL     1      -0.395  11.019  21.654  0.00  0.00    +0.000 C 
ENDBRANCH   8  11
ENDBRANCH   1   9
BRANCH   5  20
ATOM     20  S   UNL     1       6.755   5.449  16.527  0.00  0.00    +0.000 S 
ATOM     21  O   UNL     1       7.011   6.875  16.418  0.00  0.00    +0.000 OA
ATOM     22  O   UNL     1       7.687   4.599  17.255  0.00  0.00    +0.000 OA
BRANCH  20  23
ATOM     23  C   UNL     1       6.645   4.809  14.867  0.00  0.00    +0.000 A 
ATOM     24  C   UNL     1       5.529   4.058  14.483  0.00  0.00    +0.000 A 
ATOM     25  C   UNL     1       5.400   3.643  13.156  0.00  0.00    +0.000 A 
ATOM     26  C   UNL     1       6.373   3.989  12.216  0.00  0.00    +0.000 A 
ATOM     27  C   UNL     1       7.475   4.754  12.599  0.00  0.00    +0.000 A 
ATOM     28  C   UNL     1       7.612   5.172  13.925  0.00  0.00    +0.000 A 
ENDBRANCH  20  23
ENDBRANCH   5  20
TORSDOF 4
ENDMDL
MODEL 9
REMARK VINA RESULT:      -8.6      2.944      3.845
REMARK  Name = 
REMARK  4 active torsions:
REMARK  status: ('A' for Active; 'I' for Inactive)
REMARK    1  A    between atoms: C_2  and  C_19
REMARK    2  A    between atoms: N_3  and  C_4
REMARK    3  A    between atoms: C_8  and  S_9
REMARK    4  A    between atoms: S_9  and  C_12
REMARK                            x       y       z     vdW  Elec       q    Type
REMARK                         _______ _______ _______ _____ _____    ______ ____
ROOT
ATOM      1  C   UNL     1       1.974   5.768  20.413  0.00  0.00    +0.000 A 
ATOM      2  C   UNL     1       1.471   4.500  20.728  0.00  0.00    +0.000 A 
ATOM      3  C   UNL     1       1.948   3.352  20.092  0.00  0.00    +0.000 A 
ATOM      4  C   UNL     1       2.940   3.449  19.123  0.00  0.00    +0.000 A 
ATOM      5  C   UNL     1       3.442   4.708  18.786  0.00  0.00    +0.000 A 
ATOM      6  C   UNL     1       2.951   5.870  19.410  0.00  0.00    +0.000 A 
ENDROOT
BRANCH   1   9
ATOM      7  O   UNL     1       1.730   8.507  19.338  0.00  0.00    +0.000 OA
ATOM      8  C   UNL     1       1.440   8.217  20.495  0.00  0.00    +0.000 C 
ATOM      9  N   UNL     1       1.531   6.946  21.057  0.00  0.00    +0.000 N 
ATOM     10  H   UNL     1       1.161   6.869  22.000  0.00  0.00    +0.000 HD
BRANCH   8  11
ATOM     11  C   UNL     1       0.881   9.236  21.396  0.00  0.00    +0.000 A 
ATOM     12  N   UNL     1       1.149   9.244  22.719  0.00  0.00    +0.000 NA
ATOM     13  O   UNL     1       0.407  10.295  23.256  0.00  0.00    +0.000 OA
ATOM     14  C   UNL     1      -0.291  10.884  22.263  0.00  0.00    +0.000 A 
ATOM     15  C   UNL     1      -0.012  10.291  21.062  0.00  0.00    +0.000 A 
ATOM     16  C   UNL     1      -0.665  10.713  19.795  0.00  0.00    +0.000 C 
ATOM     17  C   UNL     1      -1.406  12.060  19.977  0.00  0.00    +0.000 C 
ATOM     18  C   UNL     1      -2.169  12.147  21.318  0.00  0.00    +0.000 C 
ATOM     19  C   UNL     1      -1.230  11.992  22.536  0.00  0.00    +0.000 C 
ENDBRANCH   8  11
ENDBRANCH   1   9
BRANCH   5  20
ATOM     20  S   UNL     1       4.603   4.821  17.438  0.00  0.00    +0.000 S 
ATOM     21  O   UNL     1       5.069   3.471  17.168  0.00  0.00    +0.000 OA
ATOM     22  O   UNL     1       3.955   5.587  16.384  0.00  0.00    +0.000 OA
BRANCH  20  23
ATOM     23  C   UNL     1       6.014   5.762  17.983  0.00  0.00    +0.000 A 
ATOM     24  C   UNL     1       6.774   5.312  19.069  0.00  0.00    +0.000 A 
ATOM     25  C   UNL     1       7.935   5.999  19.430  0.00  0.00    +0.000 A 
ATOM     26  C   UNL     1       8.341   7.119  18.702  0.00  0.00    +0.000 A 
ATOM     27  C   UNL     1       7.591   7.554  17.609  0.00  0.00    +0.000 A 
ATOM     28  C   UNL     1       6.428   6.873  17.242  0.00  0.00    +0.000 A 
ENDBRANCH  20  23
ENDBRANCH   5  20
TORSDOF 4
ENDMDL
