MODEL 1
REMARK VINA RESULT:      -9.1      0.000      0.000
REMARK  Name = 
REMARK  6 active torsions:
REMARK  status: ('A' for Active; 'I' for Inactive)
REMARK    1  A    between atoms: C_2  and  C_3
REMARK    2  A    between atoms: C_6  and  N_7
REMARK    3  A    between atoms: C_8  and  C_10
REMARK    4  A    between atoms: C_14  and  S_15
REMARK    5  A    between atoms: S_15  and  N_18
REMARK    6  A    between atoms: N_18  and  C_19
REMARK                            x       y       z     vdW  Elec       q    Type
REMARK                         _______ _______ _______ _____ _____    ______ ____
ROOT
ATOM      1  C   UNL     1       7.939   7.860  18.192  0.00  0.00    +0.000 A 
ATOM      2  C   UNL     1       8.469   6.960  19.132  0.00  0.00    +0.000 A 
ATOM      3  C   UNL     1       8.007   5.645  19.203  0.00  0.00    +0.000 A 
ATOM      4  C   UNL     1       6.979   5.226  18.360  0.00  0.00    +0.000 A 
ATOM      5  C   UNL     1       6.423   6.136  17.452  0.00  0.00    +0.000 A 
ATOM      6  C   UNL     1       6.928   7.437  17.328  0.00  0.00    +0.000 A 
ENDROOT
BRANCH   1   8
ATOM      7  N   UNL     1       9.327   9.604  19.215  0.00  0.00    +0.000 N 
ATOM      8  C   UNL     1       8.378   9.280  18.259  0.00  0.00    +0.000 C 
ATOM      9  O   UNL     1       7.861  10.051  17.455  0.00  0.00    +0.000 OA
ATOM     10  H   UNL     1       9.591   8.888  19.883  0.00  0.00    +0.000 HD
BRANCH   7  14
ATOM     11  C   UNL     1      11.159  13.403  19.678  0.00  0.00    +0.000 A 
ATOM     12  C   UNL     1      10.374  12.885  20.707  0.00  0.00    +0.000 A 
ATOM     13  C   UNL     1       9.760  11.636  20.566  0.00  0.00    +0.000 A 
ATOM     14  C   UNL     1       9.919  10.878  19.402  0.00  0.00    +0.000 A 
ATOM     15  C   UNL     1      10.699  11.408  18.366  0.00  0.00    +0.000 A 
ATOM     16  C   UNL     1      11.318  12.663  18.503  0.00  0.00    +0.000 A 
BRANCH  11  18
ATOM     17  N   UNL     1      12.314  15.713  19.953  0.00  0.00    +0.000 NA
ATOM     18  C   UNL     1      11.796  14.678  19.829  0.00  0.00    +0.000 C 
ENDBRANCH  11  18
ENDBRANCH   7  14
ENDBRANCH   1   8
BRANCH   5  19
ATOM     19  S   UNL     1       5.035   5.652  16.446  0.00  0.00    +0.000 S 
ATOM     20  O   UNL     1       5.155   6.356  15.187  0.00  0.00    +0.000 OA
ATOM     21  O   UNL     1       4.943   4.209  16.497  0.00  0.00    +0.000 OA
BRANCH  19  22
ATOM     22  N   UNL     1       3.704   6.244  17.295  0.00  0.00    +0.000 N 
ATOM     23  H   UNL     1       3.270   7.071  16.893  0.00  0.00    +0.000 HD
BRANCH  22  24
ATOM     24  C   UNL     1       2.931   5.368  18.101  0.00  0.00    +0.000 A 
ATOM     25  C   UNL     1       1.976   4.522  17.506  0.00  0.00    +0.000 A 
ATOM     26  C   UNL     1       1.288   3.579  18.280  0.00  0.00    +0.000 A 
ATOM     27  C   UNL     1       1.576   3.522  19.627  0.00  0.00    +0.000 A 
ATOM     28  C   UNL     1       2.490   4.369  20.209  0.00  0.00    +0.000 A 
ATOM     29  C   UNL     1       3.184   5.306  19.473  0.00  0.00    +0.000 A 
ATOM     30  O   UNL     1       2.627   4.144  21.543  0.00  0.00    +0.000 OA
ATOM     31  C   UNL     1       1.767   2.999  21.715  0.00  0.00    +0.000 C 
ATOM     32  O   UNL     1       1.035   2.652  20.521  0.00  0.00    +0.000 OA
ENDBRANCH  22  24
ENDBRANCH  19  22
ENDBRANCH   5  19
TORSDOF 6
ENDMDL
MODEL 2
REMARK VINA RESULT:      -9.1      1.253      1.692
REMARK  Name = 
REMARK  6 active torsions:
REMARK  status: ('A' for Active; 'I' for Inactive)
REMARK    1  A    between atoms: C_2  and  C_3
REMARK    2  A    between atoms: C_6  and  N_7
REMARK    3  A    between atoms: C_8  and  C_10
REMARK    4  A    between atoms: C_14  and  S_15
REMARK    5  A    between atoms: S_15  and  N_18
REMARK    6  A    between atoms: N_18  and  C_19
REMARK                            x       y       z     vdW  Elec       q    Type
REMARK                         _______ _______ _______ _____ _____    ______ ____
ROOT
ATOM      1  C   UNL     1       7.942   7.490  18.028  0.00  0.00    +0.000 A 
ATOM      2  C   UNL     1       8.249   6.609  19.079  0.00  0.00    +0.000 A 
ATOM      3  C   UNL     1       7.911   5.257  19.001  0.00  0.00    +0.000 A 
ATOM      4  C   UNL     1       7.223   4.778  17.887  0.00  0.00    +0.000 A 
ATOM      5  C   UNL     1       6.880   5.666  16.859  0.00  0.00    +0.000 A 
ATOM      6  C   UNL     1       7.277   7.010  16.898  0.00  0.00    +0.000 A 
ENDROOT
BRANCH   1   8
ATOM      7  N   UNL     1       9.151   9.281  19.187  0.00  0.00    +0.000 N 
ATOM      8  C   UNL     1       8.207   8.940  18.231  0.00  0.00    +0.000 C 
ATOM      9  O   UNL     1       7.567   9.717  17.529  0.00  0.00    +0.000 OA
ATOM     10  H   UNL     1       9.528   8.541  19.767  0.00  0.00    +0.000 HD
BRANCH   7  14
ATOM     11  C   UNL     1      10.413  13.207  20.187  0.00  0.00    +0.000 A 
ATOM     12  C   UNL     1      10.671  12.703  18.914  0.00  0.00    +0.000 A 
ATOM     13  C   UNL     1      10.265  11.408  18.572  0.00  0.00    +0.000 A 
ATOM     14  C   UNL     1       9.591  10.594  19.489  0.00  0.00    +0.000 A 
ATOM     15  C   UNL     1       9.346  11.101  20.771  0.00  0.00    +0.000 A 
ATOM     16  C   UNL     1       9.752  12.401  21.119  0.00  0.00    +0.000 A 
BRANCH  11  18
ATOM     17  N   UNL     1      11.154  15.617  20.812  0.00  0.00    +0.000 NA
ATOM     18  C   UNL     1      10.821  14.537  20.532  0.00  0.00    +0.000 C 
ENDBRANCH  11  18
ENDBRANCH   7  14
ENDBRANCH   1   8
BRANCH   5  19
ATOM     19  S   UNL     1       5.905   5.097  15.481  0.00  0.00    +0.000 S 
ATOM     20  O   UNL     1       5.250   6.257  14.914  0.00  0.00    +0.000 OA
ATOM     21  O   UNL     1       6.749   4.240  14.677  0.00  0.00    +0.000 OA
BRANCH  19  22
ATOM     22  N   UNL     1       4.753   4.095  16.197  0.00  0.00    +0.000 N 
ATOM     23  H   UNL     1       4.845   3.106  15.975  0.00  0.00    +0.000 HD
BRANCH  22  24
ATOM     24  C   UNL     1       4.129   4.487  17.410  0.00  0.00    +0.000 A 
ATOM     25  C   UNL     1       3.618   5.791  17.550  0.00  0.00    +0.000 A 
ATOM     26  C   UNL     1       2.905   6.150  18.700  0.00  0.00    +0.000 A 
ATOM     27  C   UNL     1       2.737   5.191  19.676  0.00  0.00    +0.000 A 
ATOM     28  C   UNL     1       3.262   3.927  19.547  0.00  0.00    +0.000 A 
ATOM     29  C   UNL     1       3.966   3.543  18.426  0.00  0.00    +0.000 A 
ATOM     30  O   UNL     1       2.978   3.137  20.618  0.00  0.00    +0.000 OA
ATOM     31  C   UNL     1       2.136   4.019  21.389  0.00  0.00    +0.000 C 
ATOM     32  O   UNL     1       2.047   5.349  20.837  0.00  0.00    +0.000 OA
ENDBRANCH  22  24
ENDBRANCH  19  22
ENDBRANCH   5  19
TORSDOF 6
ENDMDL
MODEL 3
REMARK VINA RESULT:      -8.6      0.894      1.253
REMARK  Name = 
REMARK  6 active torsions:
REMARK  status: ('A' for Active; 'I' for Inactive)
REMARK    1  A    between atoms: C_2  and  C_3
REMARK    2  A    between atoms: C_6  and  N_7
REMARK    3  A    between atoms: C_8  and  C_10
REMARK    4  A    between atoms: C_14  and  S_15
REMARK    5  A    between atoms: S_15  and  N_18
REMARK    6  A    between atoms: N_18  and  C_19
REMARK                            x       y       z     vdW  Elec       q    Type
REMARK                         _______ _______ _______ _____ _____    ______ ____
ROOT
ATOM      1  C   UNL     1       8.033   7.594  18.211  0.00  0.00    +0.000 A 
ATOM      2  C   UNL     1       8.346   6.774  19.309  0.00  0.00    +0.000 A 
ATOM      3  C   UNL     1       7.963   5.432  19.331  0.00  0.00    +0.000 A 
ATOM      4  C   UNL     1       7.225   4.905  18.272  0.00  0.00    +0.000 A 
ATOM      5  C   UNL     1       6.878   5.734  17.198  0.00  0.00    +0.000 A 
ATOM      6  C   UNL     1       7.318   7.063  17.136  0.00  0.00    +0.000 A 
ENDROOT
BRANCH   1   8
ATOM      7  N   UNL     1       9.287   9.423  19.258  0.00  0.00    +0.000 N 
ATOM      8  C   UNL     1       8.351   9.044  18.308  0.00  0.00    +0.000 C 
ATOM      9  O   UNL     1       7.757   9.788  17.534  0.00  0.00    +0.000 OA
ATOM     10  H   UNL     1       9.622   8.716  19.903  0.00  0.00    +0.000 HD
BRANCH   7  14
ATOM     11  C   UNL     1      10.681  13.364  19.986  0.00  0.00    +0.000 A 
ATOM     12  C   UNL     1      10.936  12.758  18.757  0.00  0.00    +0.000 A 
ATOM     13  C   UNL     1      10.486  11.457  18.505  0.00  0.00    +0.000 A 
ATOM     14  C   UNL     1       9.772  10.738  19.469  0.00  0.00    +0.000 A 
ATOM     15  C   UNL     1       9.530  11.346  20.707  0.00  0.00    +0.000 A 
ATOM     16  C   UNL     1       9.980  12.653  20.965  0.00  0.00    +0.000 A 
BRANCH  11  18
ATOM     17  N   UNL     1      11.503  15.785  20.444  0.00  0.00    +0.000 NA
ATOM     18  C   UNL     1      11.134  14.700  20.238  0.00  0.00    +0.000 C 
ENDBRANCH  11  18
ENDBRANCH   7  14
ENDBRANCH   1   8
BRANCH   5  19
ATOM     19  S   UNL     1       5.842   5.109  15.891  0.00  0.00    +0.000 S 
ATOM     20  O   UNL     1       6.153   5.871  14.700  0.00  0.00    +0.000 OA
ATOM     21  O   UNL     1       5.941   3.666  15.910  0.00  0.00    +0.000 OA
BRANCH  19  22
ATOM     22  N   UNL     1       4.281   5.485  16.407  0.00  0.00    +0.000 N 
ATOM     23  H   UNL     1       3.706   5.970  15.721  0.00  0.00    +0.000 HD
BRANCH  22  24
ATOM     24  C   UNL     1       3.661   4.705  17.417  0.00  0.00    +0.000 A 
ATOM     25  C   UNL     1       3.420   3.335  17.199  0.00  0.00    +0.000 A 
ATOM     26  C   UNL     1       2.910   2.535  18.229  0.00  0.00    +0.000 A 
ATOM     27  C   UNL     1       2.650   3.140  19.441  0.00  0.00    +0.000 A 
ATOM     28  C   UNL     1       2.862   4.484  19.641  0.00  0.00    +0.000 A 
ATOM     29  C   UNL     1       3.365   5.295  18.647  0.00  0.00    +0.000 A 
ATOM     30  O   UNL     1       2.546   4.875  20.905  0.00  0.00    +0.000 OA
ATOM     31  C   UNL     1       2.204   3.608  21.503  0.00  0.00    +0.000 C 
ATOM     32  O   UNL     1       2.188   2.517  20.558  0.00  0.00    +0.000 OA
ENDBRANCH  22  24
ENDBRANCH  19  22
ENDBRANCH   5  19
TORSDOF 6
ENDMDL
MODEL 4
REMARK VINA RESULT:      -8.6      1.440      1.900
REMARK  Name = 
REMARK  6 active torsions:
REMARK  status: ('A' for Active; 'I' for Inactive)
REMARK    1  A    between atoms: C_2  and  C_3
REMARK    2  A    between atoms: C_6  and  N_7
REMARK    3  A    between atoms: C_8  and  C_10
REMARK    4  A    between atoms: C_14  and  S_15
REMARK    5  A    between atoms: S_15  and  N_18
REMARK    6  A    between atoms: N_18  and  C_19
REMARK                            x       y       z     vdW  Elec       q    Type
REMARK                         _______ _______ _______ _____ _____    ______ ____
ROOT
ATOM      1  C   UNL     1       8.011   7.618  18.085  0.00  0.00    +0.000 A 
ATOM      2  C   UNL     1       8.309   6.747  19.147  0.00  0.00    +0.000 A 
ATOM      3  C   UNL     1       7.940   5.402  19.093  0.00  0.00    +0.000 A 
ATOM      4  C   UNL     1       7.232   4.921  17.993  0.00  0.00    +0.000 A 
ATOM      5  C   UNL     1       6.900   5.800  16.954  0.00  0.00    +0.000 A 
ATOM      6  C   UNL     1       7.326   7.135  16.969  0.00  0.00    +0.000 A 
ENDROOT
BRANCH   1   8
ATOM      7  N   UNL     1       9.223   9.405  19.248  0.00  0.00    +0.000 N 
ATOM      8  C   UNL     1       8.311   9.065  18.262  0.00  0.00    +0.000 C 
ATOM      9  O   UNL     1       7.723   9.840  17.514  0.00  0.00    +0.000 OA
ATOM     10  H   UNL     1       9.554   8.669  19.863  0.00  0.00    +0.000 HD
BRANCH   7  14
ATOM     11  C   UNL     1      10.673  13.320  20.008  0.00  0.00    +0.000 A 
ATOM     12  C   UNL     1      10.001  12.625  21.013  0.00  0.00    +0.000 A 
ATOM     13  C   UNL     1       9.513  11.336  20.774  0.00  0.00    +0.000 A 
ATOM     14  C   UNL     1       9.689  10.712  19.535  0.00  0.00    +0.000 A 
ATOM     15  C   UNL     1      10.353  11.419  18.524  0.00  0.00    +0.000 A 
ATOM     16  C   UNL     1      10.845  12.715  18.759  0.00  0.00    +0.000 A 
BRANCH  11  18
ATOM     17  N   UNL     1      11.595  15.705  20.461  0.00  0.00    +0.000 NA
ATOM     18  C   UNL     1      11.181  14.636  20.258  0.00  0.00    +0.000 C 
ENDBRANCH  11  18
ENDBRANCH   7  14
ENDBRANCH   1   8
BRANCH   5  19
ATOM     19  S   UNL     1       5.900   5.230  15.594  0.00  0.00    +0.000 S 
ATOM     20  O   UNL     1       5.220   6.387  15.052  0.00  0.00    +0.000 OA
ATOM     21  O   UNL     1       6.735   4.389  14.764  0.00  0.00    +0.000 OA
BRANCH  19  22
ATOM     22  N   UNL     1       4.777   4.210  16.327  0.00  0.00    +0.000 N 
ATOM     23  H   UNL     1       4.991   3.217  16.265  0.00  0.00    +0.000 HD
BRANCH  22  24
ATOM     24  C   UNL     1       3.978   4.688  17.398  0.00  0.00    +0.000 A 
ATOM     25  C   UNL     1       3.665   3.840  18.477  0.00  0.00    +0.000 A 
ATOM     26  C   UNL     1       2.972   4.336  19.588  0.00  0.00    +0.000 A 
ATOM     27  C   UNL     1       2.607   5.666  19.574  0.00  0.00    +0.000 A 
ATOM     28  C   UNL     1       2.890   6.484  18.506  0.00  0.00    +0.000 A 
ATOM     29  C   UNL     1       3.574   6.025  17.400  0.00  0.00    +0.000 A 
ATOM     30  O   UNL     1       2.448   7.756  18.697  0.00  0.00    +0.000 OA
ATOM     31  C   UNL     1       1.939   7.667  20.044  0.00  0.00    +0.000 C 
ATOM     32  O   UNL     1       1.962   6.325  20.574  0.00  0.00    +0.000 OA
ENDBRANCH  22  24
ENDBRANCH  19  22
ENDBRANCH   5  19
TORSDOF 6
ENDMDL
MODEL 5
REMARK VINA RESULT:      -8.5      0.966      1.039
REMARK  Name = 
REMARK  6 active torsions:
REMARK  status: ('A' for Active; 'I' for Inactive)
REMARK    1  A    between atoms: C_2  and  C_3
REMARK    2  A    between atoms: C_6  and  N_7
REMARK    3  A    between atoms: C_8  and  C_10
REMARK    4  A    between atoms: C_14  and  S_15
REMARK    5  A    between atoms: S_15  and  N_18
REMARK    6  A    between atoms: N_18  and  C_19
REMARK                            x       y       z     vdW  Elec       q    Type
REMARK                         _______ _______ _______ _____ _____    ______ ____
ROOT
ATOM      1  C   UNL     1       7.993   7.897  18.189  0.00  0.00    +0.000 A 
ATOM      2  C   UNL     1       8.507   6.994  19.135  0.00  0.00    +0.000 A 
ATOM      3  C   UNL     1       8.058   5.673  19.181  0.00  0.00    +0.000 A 
ATOM      4  C   UNL     1       7.057   5.251  18.306  0.00  0.00    +0.000 A 
ATOM      5  C   UNL     1       6.516   6.164  17.393  0.00  0.00    +0.000 A 
ATOM      6  C   UNL     1       7.010   7.472  17.294  0.00  0.00    +0.000 A 
ENDROOT
BRANCH   1   8
ATOM      7  N   UNL     1       9.388   9.632  19.217  0.00  0.00    +0.000 N 
ATOM      8  C   UNL     1       8.414   9.321  18.281  0.00  0.00    +0.000 C 
ATOM      9  O   UNL     1       7.862  10.105  17.516  0.00  0.00    +0.000 OA
ATOM     10  H   UNL     1       9.683   8.903  19.856  0.00  0.00    +0.000 HD
BRANCH   7  14
ATOM     11  C   UNL     1      11.182  13.444  19.726  0.00  0.00    +0.000 A 
ATOM     12  C   UNL     1      10.439  12.886  20.765  0.00  0.00    +0.000 A 
ATOM     13  C   UNL     1       9.838  11.632  20.609  0.00  0.00    +0.000 A 
ATOM     14  C   UNL     1       9.969  10.909  19.419  0.00  0.00    +0.000 A 
ATOM     15  C   UNL     1      10.705  11.480  18.373  0.00  0.00    +0.000 A 
ATOM     16  C   UNL     1      11.311  12.739  18.526  0.00  0.00    +0.000 A 
BRANCH  11  18
ATOM     17  N   UNL     1      12.310  15.764  20.026  0.00  0.00    +0.000 NA
ATOM     18  C   UNL     1      11.805  14.724  19.892  0.00  0.00    +0.000 C 
ENDBRANCH  11  18
ENDBRANCH   7  14
ENDBRANCH   1   8
BRANCH   5  19
ATOM     19  S   UNL     1       5.161   5.675  16.344  0.00  0.00    +0.000 S 
ATOM     20  O   UNL     1       3.999   6.423  16.773  0.00  0.00    +0.000 OA
ATOM     21  O   UNL     1       5.630   5.728  14.977  0.00  0.00    +0.000 OA
BRANCH  19  22
ATOM     22  N   UNL     1       4.945   4.043  16.711  0.00  0.00    +0.000 N 
ATOM     23  H   UNL     1       5.769   3.460  16.581  0.00  0.00    +0.000 HD
BRANCH  22  24
ATOM     24  C   UNL     1       3.949   3.652  17.643  0.00  0.00    +0.000 A 
ATOM     25  C   UNL     1       3.128   2.542  17.371  0.00  0.00    +0.000 A 
ATOM     26  C   UNL     1       2.219   2.083  18.332  0.00  0.00    +0.000 A 
ATOM     27  C   UNL     1       2.158   2.761  19.532  0.00  0.00    +0.000 A 
ATOM     28  C   UNL     1       2.944   3.861  19.783  0.00  0.00    +0.000 A 
ATOM     29  C   UNL     1       3.849   4.334  18.857  0.00  0.00    +0.000 A 
ATOM     30  O   UNL     1       2.732   4.376  21.024  0.00  0.00    +0.000 OA
ATOM     31  C   UNL     1       1.795   3.418  21.558  0.00  0.00    +0.000 C 
ATOM     32  O   UNL     1       1.365   2.439  20.588  0.00  0.00    +0.000 OA
ENDBRANCH  22  24
ENDBRANCH  19  22
ENDBRANCH   5  19
TORSDOF 6
ENDMDL
MODEL 6
REMARK VINA RESULT:      -8.2      4.597      7.406
REMARK  Name = 
REMARK  6 active torsions:
REMARK  status: ('A' for Active; 'I' for Inactive)
REMARK    1  A    between atoms: C_2  and  C_3
REMARK    2  A    between atoms: C_6  and  N_7
REMARK    3  A    between atoms: C_8  and  C_10
REMARK    4  A    between atoms: C_14  and  S_15
REMARK    5  A    between atoms: S_15  and  N_18
REMARK    6  A    between atoms: N_18  and  C_19
REMARK                            x       y       z     vdW  Elec       q    Type
REMARK                         _______ _______ _______ _____ _____    ______ ____
ROOT
ATOM      1  C   UNL     1       2.153   6.793  19.275  0.00  0.00    +0.000 A 
ATOM      2  C   UNL     1       2.022   6.526  20.649  0.00  0.00    +0.000 A 
ATOM      3  C   UNL     1       2.148   5.226  21.140  0.00  0.00    +0.000 A 
ATOM      4  C   UNL     1       2.366   4.170  20.257  0.00  0.00    +0.000 A 
ATOM      5  C   UNL     1       2.454   4.431  18.884  0.00  0.00    +0.000 A 
ATOM      6  C   UNL     1       2.398   5.742  18.389  0.00  0.00    +0.000 A 
ENDROOT
BRANCH   1   8
ATOM      7  N   UNL     1       1.097   8.979  19.621  0.00  0.00    +0.000 N 
ATOM      8  C   UNL     1       1.874   8.175  18.801  0.00  0.00    +0.000 C 
ATOM      9  O   UNL     1       2.359   8.491  17.720  0.00  0.00    +0.000 OA
ATOM     10  H   UNL     1       0.674   8.555  20.439  0.00  0.00    +0.000 HD
BRANCH   7  14
ATOM     11  C   UNL     1       0.190  13.076  18.991  0.00  0.00    +0.000 A 
ATOM     12  C   UNL     1      -0.593  12.095  18.385  0.00  0.00    +0.000 A 
ATOM     13  C   UNL     1      -0.302  10.740  18.579  0.00  0.00    +0.000 A 
ATOM     14  C   UNL     1       0.769  10.337  19.384  0.00  0.00    +0.000 A 
ATOM     15  C   UNL     1       1.560  11.327  19.981  0.00  0.00    +0.000 A 
ATOM     16  C   UNL     1       1.272  12.690  19.788  0.00  0.00    +0.000 A 
BRANCH  11  18
ATOM     17  N   UNL     1      -0.363  15.590  18.642  0.00  0.00    +0.000 NA
ATOM     18  C   UNL     1      -0.116  14.463  18.798  0.00  0.00    +0.000 C 
ENDBRANCH  11  18
ENDBRANCH   7  14
ENDBRANCH   1   8
BRANCH   5  19
ATOM     19  S   UNL     1       2.621   3.084  17.731  0.00  0.00    +0.000 S 
ATOM     20  O   UNL     1       2.027   1.918  18.349  0.00  0.00    +0.000 OA
ATOM     21  O   UNL     1       2.179   3.561  16.439  0.00  0.00    +0.000 OA
BRANCH  19  22
ATOM     22  N   UNL     1       4.290   2.868  17.612  0.00  0.00    +0.000 N 
ATOM     23  H   UNL     1       4.585   1.930  17.351  0.00  0.00    +0.000 HD
BRANCH  22  24
ATOM     24  C   UNL     1       5.128   3.974  17.318  0.00  0.00    +0.000 A 
ATOM     25  C   UNL     1       5.048   4.604  16.062  0.00  0.00    +0.000 A 
ATOM     26  C   UNL     1       5.792   5.762  15.803  0.00  0.00    +0.000 A 
ATOM     27  C   UNL     1       6.599   6.244  16.812  0.00  0.00    +0.000 A 
ATOM     28  C   UNL     1       6.695   5.610  18.029  0.00  0.00    +0.000 A 
ATOM     29  C   UNL     1       5.973   4.470  18.313  0.00  0.00    +0.000 A 
ATOM     30  O   UNL     1       7.540   6.250  18.881  0.00  0.00    +0.000 OA
ATOM     31  C   UNL     1       7.889   7.409  18.096  0.00  0.00    +0.000 C 
ATOM     32  O   UNL     1       7.361   7.368  16.753  0.00  0.00    +0.000 OA
ENDBRANCH  22  24
ENDBRANCH  19  22
ENDBRANCH   5  19
TORSDOF 6
ENDMDL
MODEL 7
REMARK VINA RESULT:      -8.1      4.689      7.503
REMARK  Name = 
REMARK  6 active torsions:
REMARK  status: ('A' for Active; 'I' for Inactive)
REMARK    1  A    between atoms: C_2  and  C_3
REMARK    2  A    between atoms: C_6  and  N_7
REMARK    3  A    between atoms: C_8  and  C_10
REMARK    4  A    between atoms: C_14  and  S_15
REMARK    5  A    between atoms: S_15  and  N_18
REMARK    6  A    between atoms: N_18  and  C_19
REMARK                            x       y       z     vdW  Elec       q    Type
REMARK                         _______ _______ _______ _____ _____    ______ ____
ROOT
ATOM      1  C   UNL     1       2.140   7.239  19.039  0.00  0.00    +0.000 A 
ATOM      2  C   UNL     1       1.815   6.894  20.363  0.00  0.00    +0.000 A 
ATOM      3  C   UNL     1       1.984   5.588  20.823  0.00  0.00    +0.000 A 
ATOM      4  C   UNL     1       2.443   4.600  19.953  0.00  0.00    +0.000 A 
ATOM      5  C   UNL     1       2.727   4.936  18.623  0.00  0.00    +0.000 A 
ATOM      6  C   UNL     1       2.625   6.260  18.171  0.00  0.00    +0.000 A 
ENDROOT
BRANCH   1   8
ATOM      7  N   UNL     1       1.143   9.439  19.465  0.00  0.00    +0.000 N 
ATOM      8  C   UNL     1       1.809   8.613  18.573  0.00  0.00    +0.000 C 
ATOM      9  O   UNL     1       2.157   8.902  17.433  0.00  0.00    +0.000 OA
ATOM     10  H   UNL     1       0.824   9.036  20.339  0.00  0.00    +0.000 HD
BRANCH   7  14
ATOM     11  C   UNL     1       0.182  13.528  18.860  0.00  0.00    +0.000 A 
ATOM     12  C   UNL     1      -0.684  12.539  18.396  0.00  0.00    +0.000 A 
ATOM     13  C   UNL     1      -0.377  11.187  18.584  0.00  0.00    +0.000 A 
ATOM     14  C   UNL     1       0.794  10.794  19.241  0.00  0.00    +0.000 A 
ATOM     15  C   UNL     1       1.667  11.791  19.694  0.00  0.00    +0.000 A 
ATOM     16  C   UNL     1       1.363  13.151  19.507  0.00  0.00    +0.000 A 
BRANCH  11  18
ATOM     17  N   UNL     1      -0.401  16.036  18.524  0.00  0.00    +0.000 NA
ATOM     18  C   UNL     1      -0.139  14.912  18.675  0.00  0.00    +0.000 C 
ENDBRANCH  11  18
ENDBRANCH   7  14
ENDBRANCH   1   8
BRANCH   5  19
ATOM     19  S   UNL     1       3.207   3.668  17.468  0.00  0.00    +0.000 S 
ATOM     20  O   UNL     1       3.765   2.578  18.240  0.00  0.00    +0.000 OA
ATOM     21  O   UNL     1       2.096   3.461  16.565  0.00  0.00    +0.000 OA
BRANCH  19  22
ATOM     22  N   UNL     1       4.428   4.398  16.563  0.00  0.00    +0.000 N 
ATOM     23  H   UNL     1       4.184   4.601  15.596  0.00  0.00    +0.000 HD
BRANCH  22  24
ATOM     24  C   UNL     1       5.426   5.170  17.212  0.00  0.00    +0.000 A 
ATOM     25  C   UNL     1       6.245   4.581  18.193  0.00  0.00    +0.000 A 
ATOM     26  C   UNL     1       7.302   5.304  18.758  0.00  0.00    +0.000 A 
ATOM     27  C   UNL     1       7.497   6.599  18.325  0.00  0.00    +0.000 A 
ATOM     28  C   UNL     1       6.677   7.179  17.386  0.00  0.00    +0.000 A 
ATOM     29  C   UNL     1       5.630   6.492  16.811  0.00  0.00    +0.000 A 
ATOM     30  O   UNL     1       7.045   8.457  17.098  0.00  0.00    +0.000 OA
ATOM     31  C   UNL     1       8.243   8.580  17.891  0.00  0.00    +0.000 C 
ATOM     32  O   UNL     1       8.488   7.434  18.734  0.00  0.00    +0.000 OA
ENDBRANCH  22  24
ENDBRANCH  19  22
ENDBRANCH   5  19
TORSDOF 6
ENDMDL
MODEL 8
REMARK VINA RESULT:      -8.0      1.330      1.771
REMARK  Name = 
REMARK  6 active torsions:
REMARK  status: ('A' for Active; 'I' for Inactive)
REMARK    1  A    between atoms: C_2  and  C_3
REMARK    2  A    between atoms: C_6  and  N_7
REMARK    3  A    between atoms: C_8  and  C_10
REMARK    4  A    between atoms: C_14  and  S_15
REMARK    5  A    between atoms: S_15  and  N_18
REMARK    6  A    between atoms: N_18  and  C_19
REMARK                            x       y       z     vdW  Elec       q    Type
REMARK                         _______ _______ _______ _____ _____    ______ ____
ROOT
ATOM      1  C   UNL     1       8.031   8.233  18.184  0.00  0.00    +0.000 A 
ATOM      2  C   UNL     1       8.544   7.346  19.147  0.00  0.00    +0.000 A 
ATOM      3  C   UNL     1       8.101   6.023  19.209  0.00  0.00    +0.000 A 
ATOM      4  C   UNL     1       7.109   5.584  18.334  0.00  0.00    +0.000 A 
ATOM      5  C   UNL     1       6.569   6.479  17.403  0.00  0.00    +0.000 A 
ATOM      6  C   UNL     1       7.057   7.789  17.288  0.00  0.00    +0.000 A 
ENDROOT
BRANCH   1   8
ATOM      7  N   UNL     1       9.391   9.995  19.213  0.00  0.00    +0.000 N 
ATOM      8  C   UNL     1       8.444   9.660  18.258  0.00  0.00    +0.000 C 
ATOM      9  O   UNL     1       7.911  10.425  17.461  0.00  0.00    +0.000 OA
ATOM     10  H   UNL     1       9.671   9.280  19.876  0.00  0.00    +0.000 HD
BRANCH   7  14
ATOM     11  C   UNL     1      11.199  13.790  19.790  0.00  0.00    +0.000 A 
ATOM     12  C   UNL     1       9.812  13.671  19.844  0.00  0.00    +0.000 A 
ATOM     13  C   UNL     1       9.202  12.427  19.650  0.00  0.00    +0.000 A 
ATOM     14  C   UNL     1       9.961  11.278  19.405  0.00  0.00    +0.000 A 
ATOM     15  C   UNL     1      11.354  11.405  19.339  0.00  0.00    +0.000 A 
ATOM     16  C   UNL     1      11.972  12.653  19.533  0.00  0.00    +0.000 A 
BRANCH  11  18
ATOM     17  N   UNL     1      12.330  16.098  20.168  0.00  0.00    +0.000 NA
ATOM     18  C   UNL     1      11.822  15.064  19.999  0.00  0.00    +0.000 C 
ENDBRANCH  11  18
ENDBRANCH   7  14
ENDBRANCH   1   8
BRANCH   5  19
ATOM     19  S   UNL     1       5.224   5.968  16.353  0.00  0.00    +0.000 S 
ATOM     20  O   UNL     1       4.013   6.537  16.904  0.00  0.00    +0.000 OA
ATOM     21  O   UNL     1       5.621   6.220  14.985  0.00  0.00    +0.000 OA
BRANCH  19  22
ATOM     22  N   UNL     1       5.192   4.292  16.538  0.00  0.00    +0.000 N 
ATOM     23  H   UNL     1       6.046   3.812  16.262  0.00  0.00    +0.000 HD
BRANCH  22  24
ATOM     24  C   UNL     1       4.337   3.702  17.504  0.00  0.00    +0.000 A 
ATOM     25  C   UNL     1       4.814   3.444  18.803  0.00  0.00    +0.000 A 
ATOM     26  C   UNL     1       3.947   2.965  19.793  0.00  0.00    +0.000 A 
ATOM     27  C   UNL     1       2.631   2.752  19.442  0.00  0.00    +0.000 A 
ATOM     28  C   UNL     1       2.175   2.979  18.165  0.00  0.00    +0.000 A 
ATOM     29  C   UNL     1       3.004   3.453  17.171  0.00  0.00    +0.000 A 
ATOM     30  O   UNL     1       0.848   2.710  18.033  0.00  0.00    +0.000 OA
ATOM     31  C   UNL     1       0.503   2.380  19.395  0.00  0.00    +0.000 C 
ATOM     32  O   UNL     1       1.644   2.324  20.275  0.00  0.00    +0.000 OA
ENDBRANCH  22  24
ENDBRANCH  19  22
ENDBRANCH   5  19
TORSDOF 6
ENDMDL
MODEL 9
REMARK VINA RESULT:      -8.0      5.490      8.333
REMARK  Name = 
REMARK  6 active torsions:
REMARK  status: ('A' for Active; 'I' for Inactive)
REMARK    1  A    between atoms: C_2  and  C_3
REMARK    2  A    between atoms: C_6  and  N_7
REMARK    3  A    between atoms: C_8  and  C_10
REMARK    4  A    between atoms: C_14  and  S_15
REMARK    5  A    between atoms: S_15  and  N_18
REMARK    6  A    between atoms: N_18  and  C_19
REMARK                            x       y       z     vdW  Elec       q    Type
REMARK                         _______ _______ _______ _____ _____    ______ ____
ROOT
ATOM      1  C   UNL     1       1.681   8.137  19.948  0.00  0.00    +0.000 A 
ATOM      2  C   UNL     1       1.999   8.622  18.668  0.00  0.00    +0.000 A 
ATOM      3  C   UNL     1       2.530   7.775  17.693  0.00  0.00    +0.000 A 
ATOM      4  C   UNL     1       2.787   6.440  18.002  0.00  0.00    +0.000 A 
ATOM      5  C   UNL     1       2.509   5.968  19.290  0.00  0.00    +0.000 A 
ATOM      6  C   UNL     1       1.912   6.794  20.253  0.00  0.00    +0.000 A 
ENDROOT
BRANCH   1   8
ATOM      7  N   UNL     1       0.567  10.241  20.537  0.00  0.00    +0.000 N 
ATOM      8  C   UNL     1       1.247   9.117  20.980  0.00  0.00    +0.000 C 
ATOM      9  O   UNL     1       1.526   8.846  22.144  0.00  0.00    +0.000 OA
ATOM     10  H   UNL     1       0.496  10.389  19.536  0.00  0.00    +0.000 HD
BRANCH   7  14
ATOM     11  C   UNL     1      -1.152  13.211  23.032  0.00  0.00    +0.000 A 
ATOM     12  C   UNL     1      -0.193  13.573  22.089  0.00  0.00    +0.000 A 
ATOM     13  C   UNL     1       0.387  12.603  21.263  0.00  0.00    +0.000 A 
ATOM     14  C   UNL     1       0.018  11.257  21.357  0.00  0.00    +0.000 A 
ATOM     15  C   UNL     1      -0.937  10.896  22.316  0.00  0.00    +0.000 A 
ATOM     16  C   UNL     1      -1.521  11.867  23.148  0.00  0.00    +0.000 A 
BRANCH  11  18
ATOM     17  N   UNL     1      -2.239  15.017  24.550  0.00  0.00    +0.000 NA
ATOM     18  C   UNL     1      -1.751  14.207  23.870  0.00  0.00    +0.000 C 
ENDBRANCH  11  18
ENDBRANCH   7  14
ENDBRANCH   1   8
BRANCH   5  19
ATOM     19  S   UNL     1       2.934   4.296  19.736  0.00  0.00    +0.000 S 
ATOM     20  O   UNL     1       2.461   4.082  21.088  0.00  0.00    +0.000 OA
ATOM     21  O   UNL     1       2.520   3.438  18.648  0.00  0.00    +0.000 OA
BRANCH  19  22
ATOM     22  N   UNL     1       4.620   4.300  19.724  0.00  0.00    +0.000 N 
ATOM     23  H   UNL     1       5.056   3.635  20.360  0.00  0.00    +0.000 HD
BRANCH  22  24
ATOM     24  C   UNL     1       5.320   4.725  18.565  0.00  0.00    +0.000 A 
ATOM     25  C   UNL     1       6.254   5.774  18.652  0.00  0.00    +0.000 A 
ATOM     26  C   UNL     1       7.027   6.125  17.539  0.00  0.00    +0.000 A 
ATOM     27  C   UNL     1       6.830   5.417  16.372  0.00  0.00    +0.000 A 
ATOM     28  C   UNL     1       5.897   4.411  16.284  0.00  0.00    +0.000 A 
ATOM     29  C   UNL     1       5.123   4.041  17.363  0.00  0.00    +0.000 A 
ATOM     30  O   UNL     1       5.866   3.840  15.050  0.00  0.00    +0.000 OA
ATOM     31  C   UNL     1       6.950   4.538  14.402  0.00  0.00    +0.000 C 
ATOM     32  O   UNL     1       7.510   5.595  15.209  0.00  0.00    +0.000 OA
ENDBRANCH  22  24
ENDBRANCH  19  22
ENDBRANCH   5  19
TORSDOF 6
ENDMDL
