MODEL 1
REMARK VINA RESULT:      -8.6      0.000      0.000
REMARK  Name = 
REMARK  5 active torsions:
REMARK  status: ('A' for Active; 'I' for Inactive)
REMARK    1  A    between atoms: C_1  and  C_2
REMARK    2  A    between atoms: C_5  and  O_6
REMARK    3  A    between atoms: O_6  and  C_7
REMARK    4  A    between atoms: C_10  and  N_11
REMARK    5  A    between atoms: C_17  and  C_18
REMARK                            x       y       z     vdW  Elec       q    Type
REMARK                         _______ _______ _______ _____ _____    ______ ____
ROOT
ATOM      1  N   UNL     1       0.929   8.253  21.295  0.00  0.00    +0.000 N 
ATOM      2  C   UNL     1       1.552   7.978  20.099  0.00  0.00    +0.000 C 
ATOM      3  O   UNL     1       1.820   8.819  19.249  0.00  0.00    +0.000 OA
ATOM      4  N   UNL     1       1.877   6.631  19.909  0.00  0.00    +0.000 N 
ATOM      5  C   UNL     1       2.740   6.287  18.777  0.00  0.00    +0.000 C 
ATOM      6  C   UNL     1       2.221   5.068  18.020  0.00  0.00    +0.000 C 
ATOM      7  C   UNL     1       1.939   3.875  18.945  0.00  0.00    +0.000 C 
ATOM      8  C   UNL     1       1.034   4.327  20.099  0.00  0.00    +0.000 C 
ATOM      9  C   UNL     1       1.604   5.533  20.835  0.00  0.00    +0.000 C 
ATOM     10  H   UNL     1       1.017   7.567  22.020  0.00  0.00    +0.000 HD
ENDROOT
BRANCH   1  14
ATOM     11  C   UNL     1      -0.868  11.837  22.576  0.00  0.00    +0.000 A 
ATOM     12  C   UNL     1       0.065  11.869  21.538  0.00  0.00    +0.000 A 
ATOM     13  C   UNL     1       0.651  10.692  21.080  0.00  0.00    +0.000 A 
ATOM     14  C   UNL     1       0.381   9.481  21.711  0.00  0.00    +0.000 A 
ATOM     15  C   UNL     1      -0.489   9.462  22.810  0.00  0.00    +0.000 A 
ATOM     16  C   UNL     1      -1.109  10.637  23.243  0.00  0.00    +0.000 A 
BRANCH  11  17
ATOM     17  O   UNL     1      -1.561  12.940  23.016  0.00  0.00    +0.000 OA
BRANCH  17  22
ATOM     18  C   UNL     1      -7.233  12.802  22.669  0.00  0.00    +0.000 C 
ATOM     19  C   UNL     1      -5.740  12.848  22.790  0.00  0.00    +0.000 A 
ATOM     20  C   UNL     1      -5.130  12.913  24.047  0.00  0.00    +0.000 A 
ATOM     21  C   UNL     1      -3.740  12.986  24.153  0.00  0.00    +0.000 A 
ATOM     22  C   UNL     1      -2.940  12.924  23.007  0.00  0.00    +0.000 A 
ATOM     23  C   UNL     1      -3.544  12.886  21.751  0.00  0.00    +0.000 A 
ATOM     24  C   UNL     1      -4.937  12.852  21.642  0.00  0.00    +0.000 A 
ENDBRANCH  17  22
ENDBRANCH  11  17
ENDBRANCH   1  14
BRANCH   7  25
ATOM     25  C   UNL     1       3.194   3.193  19.423  0.00  0.00    +0.000 A 
ATOM     26  C   UNL     1       4.415   3.094  18.792  0.00  0.00    +0.000 A 
ATOM     27  N   UNL     1       5.200   2.360  19.635  0.00  0.00    +0.000 N 
ATOM     28  C   UNL     1       4.443   2.034  20.723  0.00  0.00    +0.000 A 
ATOM     29  N   UNL     1       3.230   2.518  20.620  0.00  0.00    +0.000 NA
ATOM     30  H   UNL     1       6.162   2.096  19.484  0.00  0.00    +0.000 HD
ENDBRANCH   7  25
TORSDOF 4
ENDMDL
MODEL 2
REMARK VINA RESULT:      -8.1      3.098     10.452
REMARK  Name = 
REMARK  5 active torsions:
REMARK  status: ('A' for Active; 'I' for Inactive)
REMARK    1  A    between atoms: C_1  and  C_2
REMARK    2  A    between atoms: C_5  and  O_6
REMARK    3  A    between atoms: O_6  and  C_7
REMARK    4  A    between atoms: C_10  and  N_11
REMARK    5  A    between atoms: C_17  and  C_18
REMARK                            x       y       z     vdW  Elec       q    Type
REMARK                         _______ _______ _______ _____ _____    ______ ____
ROOT
ATOM      1  N   UNL     1      -0.138  10.156  20.491  0.00  0.00    +0.000 N 
ATOM      2  C   UNL     1      -1.007  11.116  20.024  0.00  0.00    +0.000 C 
ATOM      3  O   UNL     1      -1.186  11.370  18.838  0.00  0.00    +0.000 OA
ATOM      4  N   UNL     1      -1.701  11.807  21.021  0.00  0.00    +0.000 N 
ATOM      5  C   UNL     1      -2.805  12.677  20.612  0.00  0.00    +0.000 C 
ATOM      6  C   UNL     1      -2.761  14.023  21.331  0.00  0.00    +0.000 C 
ATOM      7  C   UNL     1      -2.648  13.873  22.856  0.00  0.00    +0.000 C 
ATOM      8  C   UNL     1      -1.473  12.945  23.192  0.00  0.00    +0.000 C 
ATOM      9  C   UNL     1      -1.572  11.610  22.465  0.00  0.00    +0.000 C 
ATOM     10  H   UNL     1      -0.278   9.837  21.431  0.00  0.00    +0.000 HD
ENDROOT
BRANCH   1  14
ATOM     11  C   UNL     1       2.695   7.847  18.402  0.00  0.00    +0.000 A 
ATOM     12  C   UNL     1       2.052   8.902  17.750  0.00  0.00    +0.000 A 
ATOM     13  C   UNL     1       1.132   9.696  18.430  0.00  0.00    +0.000 A 
ATOM     14  C   UNL     1       0.775   9.392  19.741  0.00  0.00    +0.000 A 
ATOM     15  C   UNL     1       1.355   8.280  20.367  0.00  0.00    +0.000 A 
ATOM     16  C   UNL     1       2.310   7.508  19.698  0.00  0.00    +0.000 A 
BRANCH  11  17
ATOM     17  O   UNL     1       3.684   7.083  17.829  0.00  0.00    +0.000 OA
BRANCH  17  22
ATOM     18  C   UNL     1       3.502   1.446  18.540  0.00  0.00    +0.000 C 
ATOM     19  C   UNL     1       3.573   2.933  18.373  0.00  0.00    +0.000 A 
ATOM     20  C   UNL     1       4.688   3.647  18.824  0.00  0.00    +0.000 A 
ATOM     21  C   UNL     1       4.736   5.036  18.694  0.00  0.00    +0.000 A 
ATOM     22  C   UNL     1       3.701   5.722  18.048  0.00  0.00    +0.000 A 
ATOM     23  C   UNL     1       2.576   5.018  17.619  0.00  0.00    +0.000 A 
ATOM     24  C   UNL     1       2.510   3.631  17.784  0.00  0.00    +0.000 A 
ENDBRANCH  17  22
ENDBRANCH  11  17
ENDBRANCH   1  14
BRANCH   7  25
ATOM     25  C   UNL     1      -3.937  13.435  23.500  0.00  0.00    +0.000 A 
ATOM     26  C   UNL     1      -4.122  12.563  24.551  0.00  0.00    +0.000 A 
ATOM     27  N   UNL     1      -5.474  12.492  24.730  0.00  0.00    +0.000 N 
ATOM     28  C   UNL     1      -6.056  13.297  23.793  0.00  0.00    +0.000 A 
ATOM     29  N   UNL     1      -5.155  13.873  23.037  0.00  0.00    +0.000 NA
ATOM     30  H   UNL     1      -5.962  11.941  25.420  0.00  0.00    +0.000 HD
ENDBRANCH   7  25
TORSDOF 4
ENDMDL
MODEL 3
REMARK VINA RESULT:      -8.1      3.188      4.705
REMARK  Name = 
REMARK  5 active torsions:
REMARK  status: ('A' for Active; 'I' for Inactive)
REMARK    1  A    between atoms: C_1  and  C_2
REMARK    2  A    between atoms: C_5  and  O_6
REMARK    3  A    between atoms: O_6  and  C_7
REMARK    4  A    between atoms: C_10  and  N_11
REMARK    5  A    between atoms: C_17  and  C_18
REMARK                            x       y       z     vdW  Elec       q    Type
REMARK                         _______ _______ _______ _____ _____    ______ ____
ROOT
ATOM      1  N   UNL     1       2.540   8.051  18.313  0.00  0.00    +0.000 N 
ATOM      2  C   UNL     1       2.844   6.726  18.527  0.00  0.00    +0.000 C 
ATOM      3  O   UNL     1       2.194   5.974  19.244  0.00  0.00    +0.000 OA
ATOM      4  N   UNL     1       3.978   6.272  17.848  0.00  0.00    +0.000 N 
ATOM      5  C   UNL     1       4.240   4.831  17.836  0.00  0.00    +0.000 C 
ATOM      6  C   UNL     1       5.707   4.520  18.116  0.00  0.00    +0.000 C 
ATOM      7  C   UNL     1       6.662   5.311  17.209  0.00  0.00    +0.000 C 
ATOM      8  C   UNL     1       6.313   6.805  17.281  0.00  0.00    +0.000 C 
ATOM      9  C   UNL     1       4.843   7.064  16.976  0.00  0.00    +0.000 C 
ATOM     10  H   UNL     1       2.950   8.485  17.508  0.00  0.00    +0.000 HD
ENDROOT
BRANCH   1  14
ATOM     11  C   UNL     1      -0.424  10.463  20.079  0.00  0.00    +0.000 A 
ATOM     12  C   UNL     1       0.361   9.636  20.886  0.00  0.00    +0.000 A 
ATOM     13  C   UNL     1       1.366   8.851  20.326  0.00  0.00    +0.000 A 
ATOM     14  C   UNL     1       1.540   8.812  18.946  0.00  0.00    +0.000 A 
ATOM     15  C   UNL     1       0.694   9.575  18.128  0.00  0.00    +0.000 A 
ATOM     16  C   UNL     1      -0.287  10.395  18.693  0.00  0.00    +0.000 A 
BRANCH  11  17
ATOM     17  O   UNL     1      -1.366  11.337  20.567  0.00  0.00    +0.000 OA
BRANCH  17  22
ATOM     18  C   UNL     1       0.435  16.135  23.027  0.00  0.00    +0.000 C 
ATOM     19  C   UNL     1      -0.048  14.859  22.407  0.00  0.00    +0.000 A 
ATOM     20  C   UNL     1      -0.879  13.991  23.121  0.00  0.00    +0.000 A 
ATOM     21  C   UNL     1      -1.301  12.790  22.549  0.00  0.00    +0.000 A 
ATOM     22  C   UNL     1      -0.956  12.474  21.231  0.00  0.00    +0.000 A 
ATOM     23  C   UNL     1      -0.107  13.324  20.523  0.00  0.00    +0.000 A 
ATOM     24  C   UNL     1       0.348  14.509  21.109  0.00  0.00    +0.000 A 
ENDBRANCH  17  22
ENDBRANCH  11  17
ENDBRANCH   1  14
BRANCH   7  25
ATOM     25  C   UNL     1       6.696   4.790  15.796  0.00  0.00    +0.000 A 
ATOM     26  C   UNL     1       6.105   3.657  15.282  0.00  0.00    +0.000 A 
ATOM     27  N   UNL     1       6.460   3.630  13.963  0.00  0.00    +0.000 N 
ATOM     28  C   UNL     1       7.249   4.719  13.726  0.00  0.00    +0.000 A 
ATOM     29  N   UNL     1       7.411   5.433  14.814  0.00  0.00    +0.000 NA
ATOM     30  H   UNL     1       6.197   2.933  13.283  0.00  0.00    +0.000 HD
ENDBRANCH   7  25
TORSDOF 4
ENDMDL
MODEL 4
REMARK VINA RESULT:      -8.1      8.493     11.827
REMARK  Name = 
REMARK  5 active torsions:
REMARK  status: ('A' for Active; 'I' for Inactive)
REMARK    1  A    between atoms: C_1  and  C_2
REMARK    2  A    between atoms: C_5  and  O_6
REMARK    3  A    between atoms: O_6  and  C_7
REMARK    4  A    between atoms: C_10  and  N_11
REMARK    5  A    between atoms: C_17  and  C_18
REMARK                            x       y       z     vdW  Elec       q    Type
REMARK                         _______ _______ _______ _____ _____    ______ ____
ROOT
ATOM      1  N   UNL     1       7.970   9.537  17.742  0.00  0.00    +0.000 N 
ATOM      2  C   UNL     1       8.846  10.071  18.660  0.00  0.00    +0.000 C 
ATOM      3  O   UNL     1       9.382   9.432  19.558  0.00  0.00    +0.000 OA
ATOM      4  N   UNL     1       9.100  11.436  18.495  0.00  0.00    +0.000 N 
ATOM      5  C   UNL     1      10.187  12.030  19.276  0.00  0.00    +0.000 C 
ATOM      6  C   UNL     1       9.776  13.365  19.892  0.00  0.00    +0.000 C 
ATOM      7  C   UNL     1       9.180  14.333  18.858  0.00  0.00    +0.000 C 
ATOM      8  C   UNL     1       8.056  13.627  18.087  0.00  0.00    +0.000 C 
ATOM      9  C   UNL     1       8.521  12.310  17.477  0.00  0.00    +0.000 C 
ATOM     10  H   UNL     1       7.821  10.060  16.900  0.00  0.00    +0.000 HD
ENDROOT
BRANCH   1  14
ATOM     11  C   UNL     1       6.547   5.576  17.693  0.00  0.00    +0.000 A 
ATOM     12  C   UNL     1       5.816   6.577  17.050  0.00  0.00    +0.000 A 
ATOM     13  C   UNL     1       6.283   7.889  17.030  0.00  0.00    +0.000 A 
ATOM     14  C   UNL     1       7.436   8.235  17.727  0.00  0.00    +0.000 A 
ATOM     15  C   UNL     1       8.123   7.246  18.446  0.00  0.00    +0.000 A 
ATOM     16  C   UNL     1       7.678   5.922  18.431  0.00  0.00    +0.000 A 
BRANCH  11  17
ATOM     17  O   UNL     1       6.204   4.244  17.672  0.00  0.00    +0.000 OA
BRANCH  17  22
ATOM     18  C   UNL     1       0.886   2.630  18.869  0.00  0.00    +0.000 C 
ATOM     19  C   UNL     1       2.292   3.064  18.583  0.00  0.00    +0.000 A 
ATOM     20  C   UNL     1       3.203   3.256  19.627  0.00  0.00    +0.000 A 
ATOM     21  C   UNL     1       4.502   3.689  19.357  0.00  0.00    +0.000 A 
ATOM     22  C   UNL     1       4.929   3.867  18.037  0.00  0.00    +0.000 A 
ATOM     23  C   UNL     1       4.017   3.701  16.994  0.00  0.00    +0.000 A 
ATOM     24  C   UNL     1       2.705   3.305  17.266  0.00  0.00    +0.000 A 
ENDBRANCH  17  22
ENDBRANCH  11  17
ENDBRANCH   1  14
BRANCH   7  25
ATOM     25  C   UNL     1      10.219  14.935  17.949  0.00  0.00    +0.000 A 
ATOM     26  C   UNL     1      11.446  14.422  17.585  0.00  0.00    +0.000 A 
ATOM     27  N   UNL     1      12.004  15.364  16.768  0.00  0.00    +0.000 N 
ATOM     28  C   UNL     1      11.122  16.402  16.673  0.00  0.00    +0.000 A 
ATOM     29  N   UNL     1      10.041  16.172  17.378  0.00  0.00    +0.000 NA
ATOM     30  H   UNL     1      12.906  15.313  16.319  0.00  0.00    +0.000 HD
ENDBRANCH   7  25
TORSDOF 4
ENDMDL
MODEL 5
REMARK VINA RESULT:      -8.1      3.180      4.674
REMARK  Name = 
REMARK  5 active torsions:
REMARK  status: ('A' for Active; 'I' for Inactive)
REMARK    1  A    between atoms: C_1  and  C_2
REMARK    2  A    between atoms: C_5  and  O_6
REMARK    3  A    between atoms: O_6  and  C_7
REMARK    4  A    between atoms: C_10  and  N_11
REMARK    5  A    between atoms: C_17  and  C_18
REMARK                            x       y       z     vdW  Elec       q    Type
REMARK                         _______ _______ _______ _____ _____    ______ ____
ROOT
ATOM      1  N   UNL     1       2.784   7.843  18.349  0.00  0.00    +0.000 N 
ATOM      2  C   UNL     1       3.002   6.484  18.390  0.00  0.00    +0.000 C 
ATOM      3  O   UNL     1       2.298   5.688  19.000  0.00  0.00    +0.000 OA
ATOM      4  N   UNL     1       4.116   6.051  17.664  0.00  0.00    +0.000 N 
ATOM      5  C   UNL     1       4.288   4.611  17.466  0.00  0.00    +0.000 C 
ATOM      6  C   UNL     1       5.730   4.174  17.711  0.00  0.00    +0.000 C 
ATOM      7  C   UNL     1       6.743   5.014  16.919  0.00  0.00    +0.000 C 
ATOM      8  C   UNL     1       6.487   6.505  17.183  0.00  0.00    +0.000 C 
ATOM      9  C   UNL     1       5.040   6.894  16.907  0.00  0.00    +0.000 C 
ATOM     10  H   UNL     1       3.231   8.351  17.609  0.00  0.00    +0.000 HD
ENDROOT
BRANCH   1  14
ATOM     11  C   UNL     1      -0.121   9.885  20.608  0.00  0.00    +0.000 A 
ATOM     12  C   UNL     1       0.050  10.204  19.258  0.00  0.00    +0.000 A 
ATOM     13  C   UNL     1       0.986   9.521  18.485  0.00  0.00    +0.000 A 
ATOM     14  C   UNL     1       1.825   8.577  19.070  0.00  0.00    +0.000 A 
ATOM     15  C   UNL     1       1.713   8.320  20.444  0.00  0.00    +0.000 A 
ATOM     16  C   UNL     1       0.745   8.975  21.210  0.00  0.00    +0.000 A 
BRANCH  11  17
ATOM     17  O   UNL     1      -1.089  10.444  21.408  0.00  0.00    +0.000 OA
BRANCH  17  22
ATOM     18  C   UNL     1      -0.622  15.691  23.546  0.00  0.00    +0.000 C 
ATOM     19  C   UNL     1      -0.728  14.316  22.958  0.00  0.00    +0.000 A 
ATOM     20  C   UNL     1       0.156  13.901  21.957  0.00  0.00    +0.000 A 
ATOM     21  C   UNL     1       0.034  12.631  21.392  0.00  0.00    +0.000 A 
ATOM     22  C   UNL     1      -0.927  11.733  21.870  0.00  0.00    +0.000 A 
ATOM     23  C   UNL     1      -1.826  12.151  22.851  0.00  0.00    +0.000 A 
ATOM     24  C   UNL     1      -1.730  13.437  23.390  0.00  0.00    +0.000 A 
ENDBRANCH  17  22
ENDBRANCH  11  17
ENDBRANCH   1  14
BRANCH   7  25
ATOM     25  C   UNL     1       6.765   4.680  15.451  0.00  0.00    +0.000 A 
ATOM     26  C   UNL     1       6.092   3.678  14.786  0.00  0.00    +0.000 A 
ATOM     27  N   UNL     1       6.472   3.792  13.479  0.00  0.00    +0.000 N 
ATOM     28  C   UNL     1       7.353   4.831  13.395  0.00  0.00    +0.000 A 
ATOM     29  N   UNL     1       7.551   5.381  14.568  0.00  0.00    +0.000 NA
ATOM     30  H   UNL     1       6.166   3.213  12.711  0.00  0.00    +0.000 HD
ENDBRANCH   7  25
TORSDOF 4
ENDMDL
MODEL 6
REMARK VINA RESULT:      -8.0      8.446     11.935
REMARK  Name = 
REMARK  5 active torsions:
REMARK  status: ('A' for Active; 'I' for Inactive)
REMARK    1  A    between atoms: C_1  and  C_2
REMARK    2  A    between atoms: C_5  and  O_6
REMARK    3  A    between atoms: O_6  and  C_7
REMARK    4  A    between atoms: C_10  and  N_11
REMARK    5  A    between atoms: C_17  and  C_18
REMARK                            x       y       z     vdW  Elec       q    Type
REMARK                         _______ _______ _______ _____ _____    ______ ____
ROOT
ATOM      1  N   UNL     1       8.111   9.697  17.787  0.00  0.00    +0.000 N 
ATOM      2  C   UNL     1       8.953  10.250  18.725  0.00  0.00    +0.000 C 
ATOM      3  O   UNL     1       9.468   9.627  19.646  0.00  0.00    +0.000 OA
ATOM      4  N   UNL     1       9.198  11.615  18.552  0.00  0.00    +0.000 N 
ATOM      5  C   UNL     1      10.254  12.230  19.359  0.00  0.00    +0.000 C 
ATOM      6  C   UNL     1       9.812  13.567  19.947  0.00  0.00    +0.000 C 
ATOM      7  C   UNL     1       9.238  14.517  18.885  0.00  0.00    +0.000 C 
ATOM      8  C   UNL     1       8.145  13.791  18.088  0.00  0.00    +0.000 C 
ATOM      9  C   UNL     1       8.641  12.473  17.507  0.00  0.00    +0.000 C 
ATOM     10  H   UNL     1       7.982  10.209  16.935  0.00  0.00    +0.000 HD
ENDROOT
BRANCH   1  14
ATOM     11  C   UNL     1       6.730   5.721  17.746  0.00  0.00    +0.000 A 
ATOM     12  C   UNL     1       6.028   6.699  17.038  0.00  0.00    +0.000 A 
ATOM     13  C   UNL     1       6.483   8.016  17.015  0.00  0.00    +0.000 A 
ATOM     14  C   UNL     1       7.590   8.389  17.771  0.00  0.00    +0.000 A 
ATOM     15  C   UNL     1       8.242   7.425  18.552  0.00  0.00    +0.000 A 
ATOM     16  C   UNL     1       7.811   6.095  18.541  0.00  0.00    +0.000 A 
BRANCH  11  17
ATOM     17  O   UNL     1       6.400   4.386  17.736  0.00  0.00    +0.000 OA
BRANCH  17  22
ATOM     18  C   UNL     1       1.043   2.893  18.916  0.00  0.00    +0.000 C 
ATOM     19  C   UNL     1       2.451   3.277  18.575  0.00  0.00    +0.000 A 
ATOM     20  C   UNL     1       2.844   3.429  17.242  0.00  0.00    +0.000 A 
ATOM     21  C   UNL     1       4.165   3.758  16.929  0.00  0.00    +0.000 A 
ATOM     22  C   UNL     1       5.091   4.009  17.947  0.00  0.00    +0.000 A 
ATOM     23  C   UNL     1       4.710   3.834  19.278  0.00  0.00    +0.000 A 
ATOM     24  C   UNL     1       3.399   3.467  19.590  0.00  0.00    +0.000 A 
ENDBRANCH  17  22
ENDBRANCH  11  17
ENDBRANCH   1  14
BRANCH   7  25
ATOM     25  C   UNL     1      10.298  15.120  18.001  0.00  0.00    +0.000 A 
ATOM     26  C   UNL     1      10.155  16.057  17.001  0.00  0.00    +0.000 A 
ATOM     27  N   UNL     1      11.411  16.243  16.497  0.00  0.00    +0.000 N 
ATOM     28  C   UNL     1      12.258  15.423  17.186  0.00  0.00    +0.000 A 
ATOM     29  N   UNL     1      11.614  14.731  18.094  0.00  0.00    +0.000 NA
ATOM     30  H   UNL     1      11.673  16.867  15.749  0.00  0.00    +0.000 HD
ENDBRANCH   7  25
TORSDOF 4
ENDMDL
MODEL 7
REMARK VINA RESULT:      -8.0      3.587      5.243
REMARK  Name = 
REMARK  5 active torsions:
REMARK  status: ('A' for Active; 'I' for Inactive)
REMARK    1  A    between atoms: C_1  and  C_2
REMARK    2  A    between atoms: C_5  and  O_6
REMARK    3  A    between atoms: O_6  and  C_7
REMARK    4  A    between atoms: C_10  and  N_11
REMARK    5  A    between atoms: C_17  and  C_18
REMARK                            x       y       z     vdW  Elec       q    Type
REMARK                         _______ _______ _______ _____ _____    ______ ____
ROOT
ATOM      1  N   UNL     1       2.965   7.637  18.055  0.00  0.00    +0.000 N 
ATOM      2  C   UNL     1       3.122   6.276  17.919  0.00  0.00    +0.000 C 
ATOM      3  O   UNL     1       2.350   5.441  18.377  0.00  0.00    +0.000 OA
ATOM      4  N   UNL     1       4.255   5.890  17.197  0.00  0.00    +0.000 N 
ATOM      5  C   UNL     1       4.375   4.483  16.810  0.00  0.00    +0.000 C 
ATOM      6  C   UNL     1       5.781   3.945  17.063  0.00  0.00    +0.000 C 
ATOM      7  C   UNL     1       6.873   4.833  16.447  0.00  0.00    +0.000 C 
ATOM      8  C   UNL     1       6.666   6.285  16.902  0.00  0.00    +0.000 C 
ATOM      9  C   UNL     1       5.256   6.781  16.610  0.00  0.00    +0.000 C 
ATOM     10  H   UNL     1       3.475   8.217  17.417  0.00  0.00    +0.000 HD
ENDROOT
BRANCH   1  14
ATOM     11  C   UNL     1       0.118   9.818  20.258  0.00  0.00    +0.000 A 
ATOM     12  C   UNL     1       0.807   8.770  20.873  0.00  0.00    +0.000 A 
ATOM     13  C   UNL     1       1.773   8.053  20.171  0.00  0.00    +0.000 A 
ATOM     14  C   UNL     1       1.999   8.314  18.822  0.00  0.00    +0.000 A 
ATOM     15  C   UNL     1       1.245   9.307  18.182  0.00  0.00    +0.000 A 
ATOM     16  C   UNL     1       0.305  10.054  18.897  0.00  0.00    +0.000 A 
BRANCH  11  17
ATOM     17  O   UNL     1      -0.776  10.633  20.912  0.00  0.00    +0.000 OA
BRANCH  17  22
ATOM     18  C   UNL     1       0.097  16.241  20.597  0.00  0.00    +0.000 C 
ATOM     19  C   UNL     1      -0.164  14.767  20.676  0.00  0.00    +0.000 A 
ATOM     20  C   UNL     1      -1.383  14.237  20.246  0.00  0.00    +0.000 A 
ATOM     21  C   UNL     1      -1.633  12.867  20.350  0.00  0.00    +0.000 A 
ATOM     22  C   UNL     1      -0.639  12.002  20.820  0.00  0.00    +0.000 A 
ATOM     23  C   UNL     1       0.570  12.529  21.274  0.00  0.00    +0.000 A 
ATOM     24  C   UNL     1       0.805  13.904  21.206  0.00  0.00    +0.000 A 
ENDBRANCH  17  22
ENDBRANCH  11  17
ENDBRANCH   1  14
BRANCH   7  25
ATOM     25  C   UNL     1       6.962   4.701  14.950  0.00  0.00    +0.000 A 
ATOM     26  C   UNL     1       6.283   3.836  14.120  0.00  0.00    +0.000 A 
ATOM     27  N   UNL     1       6.742   4.106  12.862  0.00  0.00    +0.000 N 
ATOM     28  C   UNL     1       7.674   5.099  12.967  0.00  0.00    +0.000 A 
ATOM     29  N   UNL     1       7.830   5.472  14.213  0.00  0.00    +0.000 NA
ATOM     30  H   UNL     1       6.455   3.655  12.006  0.00  0.00    +0.000 HD
ENDBRANCH   7  25
TORSDOF 4
ENDMDL
MODEL 8
REMARK VINA RESULT:      -8.0      0.559      1.211
REMARK  Name = 
REMARK  5 active torsions:
REMARK  status: ('A' for Active; 'I' for Inactive)
REMARK    1  A    between atoms: C_1  and  C_2
REMARK    2  A    between atoms: C_5  and  O_6
REMARK    3  A    between atoms: O_6  and  C_7
REMARK    4  A    between atoms: C_10  and  N_11
REMARK    5  A    between atoms: C_17  and  C_18
REMARK                            x       y       z     vdW  Elec       q    Type
REMARK                         _______ _______ _______ _____ _____    ______ ____
ROOT
ATOM      1  N   UNL     1       0.961   8.378  21.211  0.00  0.00    +0.000 N 
ATOM      2  C   UNL     1       1.441   8.126  19.946  0.00  0.00    +0.000 C 
ATOM      3  O   UNL     1       1.514   8.963  19.054  0.00  0.00    +0.000 OA
ATOM      4  N   UNL     1       1.860   6.809  19.735  0.00  0.00    +0.000 N 
ATOM      5  C   UNL     1       2.592   6.511  18.502  0.00  0.00    +0.000 C 
ATOM      6  C   UNL     1       2.090   5.230  17.842  0.00  0.00    +0.000 C 
ATOM      7  C   UNL     1       2.046   4.042  18.815  0.00  0.00    +0.000 C 
ATOM      8  C   UNL     1       1.266   4.445  20.075  0.00  0.00    +0.000 C 
ATOM      9  C   UNL     1       1.816   5.717  20.707  0.00  0.00    +0.000 C 
ATOM     10  H   UNL     1       1.208   7.723  21.928  0.00  0.00    +0.000 HD
ENDROOT
BRANCH   1  14
ATOM     11  C   UNL     1      -0.980  11.826  22.648  0.00  0.00    +0.000 A 
ATOM     12  C   UNL     1      -0.089  11.934  21.578  0.00  0.00    +0.000 A 
ATOM     13  C   UNL     1       0.543  10.802  21.069  0.00  0.00    +0.000 A 
ATOM     14  C   UNL     1       0.363   9.564  21.678  0.00  0.00    +0.000 A 
ATOM     15  C   UNL     1      -0.463   9.470  22.807  0.00  0.00    +0.000 A 
ATOM     16  C   UNL     1      -1.130  10.599  23.292  0.00  0.00    +0.000 A 
BRANCH  11  17
ATOM     17  O   UNL     1      -1.714  12.879  23.141  0.00  0.00    +0.000 OA
BRANCH  17  22
ATOM     18  C   UNL     1      -7.398  12.794  23.071  0.00  0.00    +0.000 C 
ATOM     19  C   UNL     1      -5.899  12.810  23.059  0.00  0.00    +0.000 A 
ATOM     20  C   UNL     1      -5.199  12.902  21.853  0.00  0.00    +0.000 A 
ATOM     21  C   UNL     1      -3.803  12.886  21.845  0.00  0.00    +0.000 A 
ATOM     22  C   UNL     1      -3.089  12.849  23.048  0.00  0.00    +0.000 A 
ATOM     23  C   UNL     1      -3.783  12.731  24.252  0.00  0.00    +0.000 A 
ATOM     24  C   UNL     1      -5.181  12.708  24.258  0.00  0.00    +0.000 A 
ENDBRANCH  17  22
ENDBRANCH  11  17
ENDBRANCH   1  14
BRANCH   7  25
ATOM     25  C   UNL     1       3.411   3.489  19.129  0.00  0.00    +0.000 A 
ATOM     26  C   UNL     1       3.748   2.462  19.983  0.00  0.00    +0.000 A 
ATOM     27  N   UNL     1       5.110   2.373  19.924  0.00  0.00    +0.000 N 
ATOM     28  C   UNL     1       5.548   3.337  19.062  0.00  0.00    +0.000 A 
ATOM     29  N   UNL     1       4.547   4.027  18.573  0.00  0.00    +0.000 NA
ATOM     30  H   UNL     1       5.693   1.722  20.427  0.00  0.00    +0.000 HD
ENDBRANCH   7  25
TORSDOF 4
ENDMDL
MODEL 9
REMARK VINA RESULT:      -8.0      7.699     11.575
REMARK  Name = 
REMARK  5 active torsions:
REMARK  status: ('A' for Active; 'I' for Inactive)
REMARK    1  A    between atoms: C_1  and  C_2
REMARK    2  A    between atoms: C_5  and  O_6
REMARK    3  A    between atoms: O_6  and  C_7
REMARK    4  A    between atoms: C_10  and  N_11
REMARK    5  A    between atoms: C_17  and  C_18
REMARK                            x       y       z     vdW  Elec       q    Type
REMARK                         _______ _______ _______ _____ _____    ______ ____
ROOT
ATOM      1  N   UNL     1       7.873   9.466  17.590  0.00  0.00    +0.000 N 
ATOM      2  C   UNL     1       8.701  10.057  18.518  0.00  0.00    +0.000 C 
ATOM      3  O   UNL     1       9.262   9.456  19.427  0.00  0.00    +0.000 OA
ATOM      4  N   UNL     1       8.873  11.434  18.351  0.00  0.00    +0.000 N 
ATOM      5  C   UNL     1       9.909  12.098  19.145  0.00  0.00    +0.000 C 
ATOM      6  C   UNL     1       9.407  13.407  19.748  0.00  0.00    +0.000 C 
ATOM      7  C   UNL     1       8.768  14.333  18.701  0.00  0.00    +0.000 C 
ATOM      8  C   UNL     1       7.702  13.555  17.917  0.00  0.00    +0.000 C 
ATOM      9  C   UNL     1       8.256  12.268  17.320  0.00  0.00    +0.000 C 
ATOM     10  H   UNL     1       7.705   9.976  16.744  0.00  0.00    +0.000 HD
ENDROOT
BRANCH   1  14
ATOM     11  C   UNL     1       6.345   5.545  17.532  0.00  0.00    +0.000 A 
ATOM     12  C   UNL     1       7.497   5.823  18.271  0.00  0.00    +0.000 A 
ATOM     13  C   UNL     1       8.005   7.119  18.326  0.00  0.00    +0.000 A 
ATOM     14  C   UNL     1       7.421   8.134  17.574  0.00  0.00    +0.000 A 
ATOM     15  C   UNL     1       6.316   7.836  16.764  0.00  0.00    +0.000 A 
ATOM     16  C   UNL     1       5.782   6.545  16.741  0.00  0.00    +0.000 A 
BRANCH  11  17
ATOM     17  O   UNL     1       5.730   4.315  17.508  0.00  0.00    +0.000 OA
BRANCH  17  22
ATOM     18  C   UNL     1       0.709   3.779  20.120  0.00  0.00    +0.000 C 
ATOM     19  C   UNL     1       2.019   3.912  19.405  0.00  0.00    +0.000 A 
ATOM     20  C   UNL     1       2.064   3.973  18.009  0.00  0.00    +0.000 A 
ATOM     21  C   UNL     1       3.290   4.066  17.346  0.00  0.00    +0.000 A 
ATOM     22  C   UNL     1       4.480   4.171  18.073  0.00  0.00    +0.000 A 
ATOM     23  C   UNL     1       4.443   4.085  19.465  0.00  0.00    +0.000 A 
ATOM     24  C   UNL     1       3.219   3.952  20.127  0.00  0.00    +0.000 A 
ENDBRANCH  17  22
ENDBRANCH  11  17
ENDBRANCH   1  14
BRANCH   7  25
ATOM     25  C   UNL     1       9.782  14.994  17.805  0.00  0.00    +0.000 A 
ATOM     26  C   UNL     1      10.944  14.468  17.283  0.00  0.00    +0.000 A 
ATOM     27  N   UNL     1      11.507  15.480  16.560  0.00  0.00    +0.000 N 
ATOM     28  C   UNL     1      10.692  16.570  16.672  0.00  0.00    +0.000 A 
ATOM     29  N   UNL     1       9.648  16.307  17.419  0.00  0.00    +0.000 NA
ATOM     30  H   UNL     1      12.371  15.440  16.040  0.00  0.00    +0.000 HD
ENDBRANCH   7  25
TORSDOF 4
ENDMDL
