MODEL 1
REMARK VINA RESULT:      -8.7      0.000      0.000
REMARK  Name = 
REMARK  3 active torsions:
REMARK  status: ('A' for Active; 'I' for Inactive)
REMARK    1  A    between atoms: C_1  and  N_2
REMARK    2  A    between atoms: C_8  and  N_9
REMARK    3  A    between atoms: C_16  and  C_17
REMARK                            x       y       z     vdW  Elec       q    Type
REMARK                         _______ _______ _______ _____ _____    ______ ____
ROOT
ATOM      1  N   UNL     1       1.937   7.629  19.044  0.00  0.00    +0.000 N 
ATOM      2  C   UNL     1       1.983   6.456  19.768  0.00  0.00    +0.000 C 
ATOM      3  O   UNL     1       1.534   6.334  20.906  0.00  0.00    +0.000 OA
ATOM      4  N   UNL     1       2.553   5.373  19.112  0.00  0.00    +0.000 N 
ATOM      5  C   UNL     1       2.471   4.054  19.742  0.00  0.00    +0.000 C 
ATOM      6  C   UNL     1       3.861   3.504  20.042  0.00  0.00    +0.000 C 
ATOM      7  C   UNL     1       4.722   3.478  18.783  0.00  0.00    +0.000 C 
ATOM      8  C   UNL     1       4.748   4.852  18.088  0.00  0.00    +0.000 C 
ATOM      9  C   UNL     1       3.329   5.412  17.873  0.00  0.00    +0.000 C 
ATOM     10  H   UNL     1       2.011   7.540  18.045  0.00  0.00    +0.000 HD
ENDROOT
BRANCH   1  18
ATOM     11  C   UNL     1      -0.380  13.683  20.382  0.00  0.00    +0.000 C 
ATOM     12  N   UNL     1      -0.098  12.393  20.939  0.00  0.00    +0.000 N 
ATOM     13  C   UNL     1      -0.336  11.990  22.238  0.00  0.00    +0.000 A 
ATOM     14  O   UNL     1      -0.823  12.673  23.129  0.00  0.00    +0.000 OA
ATOM     15  O   UNL     1       0.058  10.658  22.428  0.00  0.00    +0.000 OA
ATOM     16  C   UNL     1       0.531  10.306  21.175  0.00  0.00    +0.000 A 
ATOM     17  C   UNL     1       1.030   9.070  20.832  0.00  0.00    +0.000 A 
ATOM     18  C   UNL     1       1.447   8.872  19.509  0.00  0.00    +0.000 A 
ATOM     19  C   UNL     1       1.386   9.942  18.586  0.00  0.00    +0.000 A 
ATOM     20  C   UNL     1       0.875  11.194  18.959  0.00  0.00    +0.000 A 
ATOM     21  C   UNL     1       0.452  11.333  20.262  0.00  0.00    +0.000 A 
ENDBRANCH   1  18
BRANCH   8  22
ATOM     22  C   UNL     1       5.507   4.807  16.779  0.00  0.00    +0.000 A 
ATOM     23  C   UNL     1       4.866   4.408  15.596  0.00  0.00    +0.000 A 
ATOM     24  C   UNL     1       5.584   4.344  14.405  0.00  0.00    +0.000 A 
ATOM     25  F   UNL     1       4.964   3.950  13.286  0.00  0.00    +0.000 F 
ATOM     26  C   UNL     1       6.934   4.672  14.355  0.00  0.00    +0.000 A 
ATOM     27  C   UNL     1       7.583   5.074  15.521  0.00  0.00    +0.000 A 
ATOM     28  C   UNL     1       6.870   5.134  16.716  0.00  0.00    +0.000 A 
ATOM     29  F   UNL     1       7.526   5.498  17.824  0.00  0.00    +0.000 F 
ENDBRANCH   8  22
TORSDOF 2
ENDMDL
MODEL 2
REMARK VINA RESULT:      -8.4      5.302     10.910
REMARK  Name = 
REMARK  3 active torsions:
REMARK  status: ('A' for Active; 'I' for Inactive)
REMARK    1  A    between atoms: C_1  and  N_2
REMARK    2  A    between atoms: C_8  and  N_9
REMARK    3  A    between atoms: C_16  and  C_17
REMARK                            x       y       z     vdW  Elec       q    Type
REMARK                         _______ _______ _______ _____ _____    ______ ____
ROOT
ATOM      1  N   UNL     1      -0.144  10.737  20.601  0.00  0.00    +0.000 N 
ATOM      2  C   UNL     1       0.305  11.944  21.097  0.00  0.00    +0.000 C 
ATOM      3  O   UNL     1       1.492  12.220  21.260  0.00  0.00    +0.000 OA
ATOM      4  N   UNL     1      -0.685  12.875  21.383  0.00  0.00    +0.000 N 
ATOM      5  C   UNL     1      -0.279  14.237  21.735  0.00  0.00    +0.000 C 
ATOM      6  C   UNL     1      -0.736  14.597  23.145  0.00  0.00    +0.000 C 
ATOM      7  C   UNL     1      -2.241  14.396  23.298  0.00  0.00    +0.000 C 
ATOM      8  C   UNL     1      -2.670  12.983  22.860  0.00  0.00    +0.000 C 
ATOM      9  C   UNL     1      -2.123  12.625  21.466  0.00  0.00    +0.000 C 
ATOM     10  H   UNL     1      -1.065  10.737  20.197  0.00  0.00    +0.000 HD
ENDROOT
BRANCH   1  18
ATOM     11  C   UNL     1       3.290   5.136  19.798  0.00  0.00    +0.000 C 
ATOM     12  N   UNL     1       2.938   6.386  19.191  0.00  0.00    +0.000 N 
ATOM     13  C   UNL     1       3.314   6.823  17.936  0.00  0.00    +0.000 A 
ATOM     14  O   UNL     1       4.016   6.214  17.139  0.00  0.00    +0.000 OA
ATOM     15  O   UNL     1       2.780   8.091  17.668  0.00  0.00    +0.000 OA
ATOM     16  C   UNL     1       2.072   8.367  18.826  0.00  0.00    +0.000 A 
ATOM     17  C   UNL     1       1.343   9.511  19.059  0.00  0.00    +0.000 A 
ATOM     18  C   UNL     1       0.663   9.622  20.279  0.00  0.00    +0.000 A 
ATOM     19  C   UNL     1       0.777   8.591  21.242  0.00  0.00    +0.000 A 
ATOM     20  C   UNL     1       1.527   7.435  20.982  0.00  0.00    +0.000 A 
ATOM     21  C   UNL     1       2.154   7.359  19.760  0.00  0.00    +0.000 A 
ENDBRANCH   1  18
BRANCH   8  22
ATOM     22  C   UNL     1      -4.174  12.812  22.903  0.00  0.00    +0.000 A 
ATOM     23  C   UNL     1      -4.928  12.837  21.720  0.00  0.00    +0.000 A 
ATOM     24  C   UNL     1      -6.313  12.708  21.777  0.00  0.00    +0.000 A 
ATOM     25  F   UNL     1      -7.022  12.745  20.641  0.00  0.00    +0.000 F 
ATOM     26  C   UNL     1      -6.976  12.548  22.988  0.00  0.00    +0.000 A 
ATOM     27  C   UNL     1      -6.240  12.518  24.170  0.00  0.00    +0.000 A 
ATOM     28  C   UNL     1      -4.854  12.652  24.119  0.00  0.00    +0.000 A 
ATOM     29  F   UNL     1      -4.176  12.646  25.273  0.00  0.00    +0.000 F 
ENDBRANCH   8  22
TORSDOF 2
ENDMDL
MODEL 3
REMARK VINA RESULT:      -8.3      5.767      7.440
REMARK  Name = 
REMARK  3 active torsions:
REMARK  status: ('A' for Active; 'I' for Inactive)
REMARK    1  A    between atoms: C_1  and  N_2
REMARK    2  A    between atoms: C_8  and  N_9
REMARK    3  A    between atoms: C_16  and  C_17
REMARK                            x       y       z     vdW  Elec       q    Type
REMARK                         _______ _______ _______ _____ _____    ______ ____
ROOT
ATOM      1  N   UNL     1       7.455   7.831  18.247  0.00  0.00    +0.000 N 
ATOM      2  C   UNL     1       7.517   6.926  17.207  0.00  0.00    +0.000 C 
ATOM      3  O   UNL     1       8.199   7.087  16.197  0.00  0.00    +0.000 OA
ATOM      4  N   UNL     1       6.768   5.770  17.380  0.00  0.00    +0.000 N 
ATOM      5  C   UNL     1       6.927   4.686  16.409  0.00  0.00    +0.000 C 
ATOM      6  C   UNL     1       5.614   4.399  15.689  0.00  0.00    +0.000 C 
ATOM      7  C   UNL     1       4.496   4.108  16.687  0.00  0.00    +0.000 C 
ATOM      8  C   UNL     1       4.380   5.219  17.746  0.00  0.00    +0.000 C 
ATOM      9  C   UNL     1       5.741   5.536  18.394  0.00  0.00    +0.000 C 
ATOM     10  H   UNL     1       7.159   7.468  19.137  0.00  0.00    +0.000 HD
ENDROOT
BRANCH   1  18
ATOM     11  C   UNL     1       9.778  14.021  17.923  0.00  0.00    +0.000 C 
ATOM     12  N   UNL     1       9.934  12.748  18.564  0.00  0.00    +0.000 N 
ATOM     13  C   UNL     1      10.837  12.438  19.562  0.00  0.00    +0.000 A 
ATOM     14  O   UNL     1      11.657  13.199  20.057  0.00  0.00    +0.000 OA
ATOM     15  O   UNL     1      10.702  11.099  19.958  0.00  0.00    +0.000 OA
ATOM     16  C   UNL     1       9.674  10.650  19.146  0.00  0.00    +0.000 A 
ATOM     17  C   UNL     1       9.150   9.378  19.159  0.00  0.00    +0.000 A 
ATOM     18  C   UNL     1       8.091   9.094  18.286  0.00  0.00    +0.000 A 
ATOM     19  C   UNL     1       7.627  10.092  17.397  0.00  0.00    +0.000 A 
ATOM     20  C   UNL     1       8.179  11.381  17.402  0.00  0.00    +0.000 A 
ATOM     21  C   UNL     1       9.197  11.622  18.295  0.00  0.00    +0.000 A 
ENDBRANCH   1  18
BRANCH   8  22
ATOM     22  C   UNL     1       3.350   4.885  18.803  0.00  0.00    +0.000 A 
ATOM     23  C   UNL     1       3.014   3.550  19.074  0.00  0.00    +0.000 A 
ATOM     24  C   UNL     1       2.044   3.258  20.028  0.00  0.00    +0.000 A 
ATOM     25  F   UNL     1       1.724   1.980  20.268  0.00  0.00    +0.000 F 
ATOM     26  C   UNL     1       1.395   4.266  20.733  0.00  0.00    +0.000 A 
ATOM     27  C   UNL     1       1.721   5.596  20.477  0.00  0.00    +0.000 A 
ATOM     28  C   UNL     1       2.687   5.893  19.519  0.00  0.00    +0.000 A 
ATOM     29  F   UNL     1       2.961   7.181  19.277  0.00  0.00    +0.000 F 
ENDBRANCH   8  22
TORSDOF 2
ENDMDL
MODEL 4
REMARK VINA RESULT:      -8.3      1.174      1.596
REMARK  Name = 
REMARK  3 active torsions:
REMARK  status: ('A' for Active; 'I' for Inactive)
REMARK    1  A    between atoms: C_1  and  N_2
REMARK    2  A    between atoms: C_8  and  N_9
REMARK    3  A    between atoms: C_16  and  C_17
REMARK                            x       y       z     vdW  Elec       q    Type
REMARK                         _______ _______ _______ _____ _____    ______ ____
ROOT
ATOM      1  N   UNL     1       1.942   7.601  19.064  0.00  0.00    +0.000 N 
ATOM      2  C   UNL     1       1.986   6.427  19.790  0.00  0.00    +0.000 C 
ATOM      3  O   UNL     1       1.536   6.306  20.927  0.00  0.00    +0.000 OA
ATOM      4  N   UNL     1       2.556   5.344  19.134  0.00  0.00    +0.000 N 
ATOM      5  C   UNL     1       2.472   4.026  19.765  0.00  0.00    +0.000 C 
ATOM      6  C   UNL     1       3.861   3.475  20.066  0.00  0.00    +0.000 C 
ATOM      7  C   UNL     1       4.724   3.447  18.807  0.00  0.00    +0.000 C 
ATOM      8  C   UNL     1       4.751   4.821  18.111  0.00  0.00    +0.000 C 
ATOM      9  C   UNL     1       3.333   5.381  17.896  0.00  0.00    +0.000 C 
ATOM     10  H   UNL     1       2.016   7.510  18.065  0.00  0.00    +0.000 HD
ENDROOT
BRANCH   1  18
ATOM     11  C   UNL     1      -0.212  13.106  22.042  0.00  0.00    +0.000 C 
ATOM     12  N   UNL     1       0.145  12.525  20.781  0.00  0.00    +0.000 N 
ATOM     13  C   UNL     1       0.156  13.164  19.557  0.00  0.00    +0.000 A 
ATOM     14  O   UNL     1      -0.147  14.332  19.348  0.00  0.00    +0.000 OA
ATOM     15  O   UNL     1       0.567  12.290  18.541  0.00  0.00    +0.000 OA
ATOM     16  C   UNL     1       0.800  11.115  19.235  0.00  0.00    +0.000 A 
ATOM     17  C   UNL     1       1.242   9.936  18.677  0.00  0.00    +0.000 A 
ATOM     18  C   UNL     1       1.452   8.844  19.528  0.00  0.00    +0.000 A 
ATOM     19  C   UNL     1       1.166   8.964  20.909  0.00  0.00    +0.000 A 
ATOM     20  C   UNL     1       0.715  10.175  21.454  0.00  0.00    +0.000 A 
ATOM     21  C   UNL     1       0.551  11.228  20.584  0.00  0.00    +0.000 A 
ENDBRANCH   1  18
BRANCH   8  22
ATOM     22  C   UNL     1       5.511   4.775  16.803  0.00  0.00    +0.000 A 
ATOM     23  C   UNL     1       4.865   4.398  15.616  0.00  0.00    +0.000 A 
ATOM     24  C   UNL     1       5.583   4.332  14.425  0.00  0.00    +0.000 A 
ATOM     25  F   UNL     1       4.957   3.959  13.302  0.00  0.00    +0.000 F 
ATOM     26  C   UNL     1       6.939   4.637  14.380  0.00  0.00    +0.000 A 
ATOM     27  C   UNL     1       7.593   5.016  15.550  0.00  0.00    +0.000 A 
ATOM     28  C   UNL     1       6.880   5.078  16.745  0.00  0.00    +0.000 A 
ATOM     29  F   UNL     1       7.541   5.420  17.857  0.00  0.00    +0.000 F 
ENDBRANCH   8  22
TORSDOF 2
ENDMDL
MODEL 5
REMARK VINA RESULT:      -8.3      1.379      1.450
REMARK  Name = 
REMARK  3 active torsions:
REMARK  status: ('A' for Active; 'I' for Inactive)
REMARK    1  A    between atoms: C_1  and  N_2
REMARK    2  A    between atoms: C_8  and  N_9
REMARK    3  A    between atoms: C_16  and  C_17
REMARK                            x       y       z     vdW  Elec       q    Type
REMARK                         _______ _______ _______ _____ _____    ______ ____
ROOT
ATOM      1  N   UNL     1       1.985   8.315  18.386  0.00  0.00    +0.000 N 
ATOM      2  C   UNL     1       2.099   7.313  19.328  0.00  0.00    +0.000 C 
ATOM      3  O   UNL     1       1.701   7.412  20.487  0.00  0.00    +0.000 OA
ATOM      4  N   UNL     1       2.675   6.133  18.875  0.00  0.00    +0.000 N 
ATOM      5  C   UNL     1       2.661   4.967  19.759  0.00  0.00    +0.000 C 
ATOM      6  C   UNL     1       4.078   4.520  20.098  0.00  0.00    +0.000 C 
ATOM      7  C   UNL     1       4.887   4.261  18.829  0.00  0.00    +0.000 C 
ATOM      8  C   UNL     1       4.840   5.466  17.873  0.00  0.00    +0.000 C 
ATOM      9  C   UNL     1       3.397   5.939  17.618  0.00  0.00    +0.000 C 
ATOM     10  H   UNL     1       2.020   8.027  17.422  0.00  0.00    +0.000 HD
ENDROOT
BRANCH   1  18
ATOM     11  C   UNL     1       0.242  14.676  18.941  0.00  0.00    +0.000 C 
ATOM     12  N   UNL     1      -0.152  13.329  19.231  0.00  0.00    +0.000 N 
ATOM     13  C   UNL     1      -1.329  12.931  19.835  0.00  0.00    +0.000 A 
ATOM     14  O   UNL     1      -2.224  13.666  20.228  0.00  0.00    +0.000 OA
ATOM     15  O   UNL     1      -1.382  11.534  19.951  0.00  0.00    +0.000 OA
ATOM     16  C   UNL     1      -0.183  11.142  19.381  0.00  0.00    +0.000 A 
ATOM     17  C   UNL     1       0.242   9.840  19.240  0.00  0.00    +0.000 A 
ATOM     18  C   UNL     1       1.476   9.614  18.616  0.00  0.00    +0.000 A 
ATOM     19  C   UNL     1       2.260  10.713  18.193  0.00  0.00    +0.000 A 
ATOM     20  C   UNL     1       1.807  12.031  18.349  0.00  0.00    +0.000 A 
ATOM     21  C   UNL     1       0.577  12.202  18.943  0.00  0.00    +0.000 A 
ENDBRANCH   1  18
BRANCH   8  22
ATOM     22  C   UNL     1       5.545   5.176  16.565  0.00  0.00    +0.000 A 
ATOM     23  C   UNL     1       4.836   4.653  15.474  0.00  0.00    +0.000 A 
ATOM     24  C   UNL     1       5.503   4.363  14.287  0.00  0.00    +0.000 A 
ATOM     25  F   UNL     1       4.816   3.852  13.257  0.00  0.00    +0.000 F 
ATOM     26  C   UNL     1       6.868   4.586  14.151  0.00  0.00    +0.000 A 
ATOM     27  C   UNL     1       7.585   5.109  15.225  0.00  0.00    +0.000 A 
ATOM     28  C   UNL     1       6.923   5.395  16.417  0.00  0.00    +0.000 A 
ATOM     29  F   UNL     1       7.642   5.871  17.440  0.00  0.00    +0.000 F 
ENDBRANCH   8  22
TORSDOF 2
ENDMDL
MODEL 6
REMARK VINA RESULT:      -8.3      5.215     10.813
REMARK  Name = 
REMARK  3 active torsions:
REMARK  status: ('A' for Active; 'I' for Inactive)
REMARK    1  A    between atoms: C_1  and  N_2
REMARK    2  A    between atoms: C_8  and  N_9
REMARK    3  A    between atoms: C_16  and  C_17
REMARK                            x       y       z     vdW  Elec       q    Type
REMARK                         _______ _______ _______ _____ _____    ______ ____
ROOT
ATOM      1  N   UNL     1      -0.196  10.953  20.383  0.00  0.00    +0.000 N 
ATOM      2  C   UNL     1       0.277  12.080  21.025  0.00  0.00    +0.000 C 
ATOM      3  O   UNL     1       1.469  12.309  21.220  0.00  0.00    +0.000 OA
ATOM      4  N   UNL     1      -0.695  12.987  21.425  0.00  0.00    +0.000 N 
ATOM      5  C   UNL     1      -0.262  14.286  21.945  0.00  0.00    +0.000 C 
ATOM      6  C   UNL     1      -0.715  14.476  23.388  0.00  0.00    +0.000 C 
ATOM      7  C   UNL     1      -2.225  14.288  23.516  0.00  0.00    +0.000 C 
ATOM      8  C   UNL     1      -2.681  12.951  22.905  0.00  0.00    +0.000 C 
ATOM      9  C   UNL     1      -2.138  12.759  21.477  0.00  0.00    +0.000 C 
ATOM     10  H   UNL     1      -1.116  11.022  19.982  0.00  0.00    +0.000 HD
ENDROOT
BRANCH   1  18
ATOM     11  C   UNL     1       3.740   6.422  17.592  0.00  0.00    +0.000 C 
ATOM     12  N   UNL     1       2.938   6.721  18.742  0.00  0.00    +0.000 N 
ATOM     13  C   UNL     1       2.779   5.927  19.861  0.00  0.00    +0.000 A 
ATOM     14  O   UNL     1       3.292   4.832  20.048  0.00  0.00    +0.000 OA
ATOM     15  O   UNL     1       1.929   6.541  20.792  0.00  0.00    +0.000 OA
ATOM     16  C   UNL     1       1.608   7.731  20.162  0.00  0.00    +0.000 A 
ATOM     17  C   UNL     1       0.793   8.711  20.683  0.00  0.00    +0.000 A 
ATOM     18  C   UNL     1       0.590   9.871  19.923  0.00  0.00    +0.000 A 
ATOM     19  C   UNL     1       1.181   9.984  18.643  0.00  0.00    +0.000 A 
ATOM     20  C   UNL     1       2.006   8.971  18.133  0.00  0.00    +0.000 A 
ATOM     21  C   UNL     1       2.199   7.863  18.926  0.00  0.00    +0.000 A 
ENDBRANCH   1  18
BRANCH   8  22
ATOM     22  C   UNL     1      -4.188  12.806  22.927  0.00  0.00    +0.000 A 
ATOM     23  C   UNL     1      -4.928  12.880  21.737  0.00  0.00    +0.000 A 
ATOM     24  C   UNL     1      -6.316  12.775  21.775  0.00  0.00    +0.000 A 
ATOM     25  F   UNL     1      -7.011  12.859  20.634  0.00  0.00    +0.000 F 
ATOM     26  C   UNL     1      -6.995  12.591  22.974  0.00  0.00    +0.000 A 
ATOM     27  C   UNL     1      -6.273  12.512  24.163  0.00  0.00    +0.000 A 
ATOM     28  C   UNL     1      -4.885  12.623  24.131  0.00  0.00    +0.000 A 
ATOM     29  F   UNL     1      -4.220  12.570  25.291  0.00  0.00    +0.000 F 
ENDBRANCH   8  22
TORSDOF 2
ENDMDL
MODEL 7
REMARK VINA RESULT:      -8.3      1.895      2.234
REMARK  Name = 
REMARK  3 active torsions:
REMARK  status: ('A' for Active; 'I' for Inactive)
REMARK    1  A    between atoms: C_1  and  N_2
REMARK    2  A    between atoms: C_8  and  N_9
REMARK    3  A    between atoms: C_16  and  C_17
REMARK                            x       y       z     vdW  Elec       q    Type
REMARK                         _______ _______ _______ _____ _____    ______ ____
ROOT
ATOM      1  N   UNL     1       2.054   8.555  18.281  0.00  0.00    +0.000 N 
ATOM      2  C   UNL     1       2.115   7.568  19.245  0.00  0.00    +0.000 C 
ATOM      3  O   UNL     1       1.699   7.704  20.393  0.00  0.00    +0.000 OA
ATOM      4  N   UNL     1       2.659   6.361  18.826  0.00  0.00    +0.000 N 
ATOM      5  C   UNL     1       2.588   5.214  19.732  0.00  0.00    +0.000 C 
ATOM      6  C   UNL     1       3.983   4.727  20.108  0.00  0.00    +0.000 C 
ATOM      7  C   UNL     1       4.806   4.415  18.861  0.00  0.00    +0.000 C 
ATOM      8  C   UNL     1       4.819   5.602  17.881  0.00  0.00    +0.000 C 
ATOM      9  C   UNL     1       3.398   6.118  17.588  0.00  0.00    +0.000 C 
ATOM     10  H   UNL     1       2.097   8.247  17.325  0.00  0.00    +0.000 HD
ENDROOT
BRANCH   1  18
ATOM     11  C   UNL     1      -0.810  14.369  19.626  0.00  0.00    +0.000 C 
ATOM     12  N   UNL     1       0.371  13.742  19.107  0.00  0.00    +0.000 N 
ATOM     13  C   UNL     1       1.517  14.381  18.675  0.00  0.00    +0.000 A 
ATOM     14  O   UNL     1       1.707  15.590  18.657  0.00  0.00    +0.000 OA
ATOM     15  O   UNL     1       2.473  13.451  18.241  0.00  0.00    +0.000 OA
ATOM     16  C   UNL     1       1.829  12.243  18.448  0.00  0.00    +0.000 A 
ATOM     17  C   UNL     1       2.364  11.002  18.185  0.00  0.00    +0.000 A 
ATOM     18  C   UNL     1       1.585   9.875  18.476  0.00  0.00    +0.000 A 
ATOM     19  C   UNL     1       0.273  10.039  18.982  0.00  0.00    +0.000 A 
ATOM     20  C   UNL     1      -0.250  11.314  19.240  0.00  0.00    +0.000 A 
ATOM     21  C   UNL     1       0.562  12.390  18.965  0.00  0.00    +0.000 A 
ENDBRANCH   1  18
BRANCH   8  22
ATOM     22  C   UNL     1       5.539   5.262  16.594  0.00  0.00    +0.000 A 
ATOM     23  C   UNL     1       4.835   4.738  15.500  0.00  0.00    +0.000 A 
ATOM     24  C   UNL     1       5.514   4.402  14.332  0.00  0.00    +0.000 A 
ATOM     25  F   UNL     1       4.831   3.891  13.300  0.00  0.00    +0.000 F 
ATOM     26  C   UNL     1       6.888   4.580  14.218  0.00  0.00    +0.000 A 
ATOM     27  C   UNL     1       7.601   5.103  15.295  0.00  0.00    +0.000 A 
ATOM     28  C   UNL     1       6.926   5.435  16.467  0.00  0.00    +0.000 A 
ATOM     29  F   UNL     1       7.641   5.911  17.494  0.00  0.00    +0.000 F 
ENDBRANCH   8  22
TORSDOF 2
ENDMDL
MODEL 8
REMARK VINA RESULT:      -8.1      4.259      8.908
REMARK  Name = 
REMARK  3 active torsions:
REMARK  status: ('A' for Active; 'I' for Inactive)
REMARK    1  A    between atoms: C_1  and  N_2
REMARK    2  A    between atoms: C_8  and  N_9
REMARK    3  A    between atoms: C_16  and  C_17
REMARK                            x       y       z     vdW  Elec       q    Type
REMARK                         _______ _______ _______ _____ _____    ______ ____
ROOT
ATOM      1  N   UNL     1       1.368   7.866  19.311  0.00  0.00    +0.000 N 
ATOM      2  C   UNL     1       1.366   8.922  20.200  0.00  0.00    +0.000 C 
ATOM      3  O   UNL     1       1.934   8.903  21.290  0.00  0.00    +0.000 OA
ATOM      4  N   UNL     1       0.695  10.059  19.770  0.00  0.00    +0.000 N 
ATOM      5  C   UNL     1       0.806  11.279  20.573  0.00  0.00    +0.000 C 
ATOM      6  C   UNL     1      -0.559  11.716  21.093  0.00  0.00    +0.000 C 
ATOM      7  C   UNL     1      -1.553  11.881  19.948  0.00  0.00    +0.000 C 
ATOM      8  C   UNL     1      -1.614  10.619  19.067  0.00  0.00    +0.000 C 
ATOM      9  C   UNL     1      -0.211  10.161  18.627  0.00  0.00    +0.000 C 
ATOM     10  H   UNL     1       1.182   8.093  18.349  0.00  0.00    +0.000 HD
ENDROOT
BRANCH   1  18
ATOM     11  C   UNL     1       4.643   2.131  19.753  0.00  0.00    +0.000 C 
ATOM     12  N   UNL     1       3.628   2.944  20.355  0.00  0.00    +0.000 N 
ATOM     13  C   UNL     1       2.920   2.655  21.506  0.00  0.00    +0.000 A 
ATOM     14  O   UNL     1       3.040   1.650  22.195  0.00  0.00    +0.000 OA
ATOM     15  O   UNL     1       2.013   3.681  21.805  0.00  0.00    +0.000 OA
ATOM     16  C   UNL     1       2.233   4.582  20.778  0.00  0.00    +0.000 A 
ATOM     17  C   UNL     1       1.584   5.787  20.624  0.00  0.00    +0.000 A 
ATOM     18  C   UNL     1       1.944   6.594  19.537  0.00  0.00    +0.000 A 
ATOM     19  C   UNL     1       2.917   6.139  18.616  0.00  0.00    +0.000 A 
ATOM     20  C   UNL     1       3.563   4.907  18.793  0.00  0.00    +0.000 A 
ATOM     21  C   UNL     1       3.197   4.161  19.889  0.00  0.00    +0.000 A 
ENDBRANCH   1  18
BRANCH   8  22
ATOM     22  C   UNL     1      -2.513  10.813  17.865  0.00  0.00    +0.000 A 
ATOM     23  C   UNL     1      -2.108  10.380  16.594  0.00  0.00    +0.000 A 
ATOM     24  C   UNL     1      -2.932  10.592  15.492  0.00  0.00    +0.000 A 
ATOM     25  F   UNL     1      -2.528  10.184  14.282  0.00  0.00    +0.000 F 
ATOM     26  C   UNL     1      -4.164  11.224  15.621  0.00  0.00    +0.000 A 
ATOM     27  C   UNL     1      -4.581  11.656  16.878  0.00  0.00    +0.000 A 
ATOM     28  C   UNL     1      -3.757  11.452  17.982  0.00  0.00    +0.000 A 
ATOM     29  F   UNL     1      -4.173  11.901  19.172  0.00  0.00    +0.000 F 
ENDBRANCH   8  22
TORSDOF 2
ENDMDL
MODEL 9
REMARK VINA RESULT:      -8.1      5.782      7.491
REMARK  Name = 
REMARK  3 active torsions:
REMARK  status: ('A' for Active; 'I' for Inactive)
REMARK    1  A    between atoms: C_1  and  N_2
REMARK    2  A    between atoms: C_8  and  N_9
REMARK    3  A    between atoms: C_16  and  C_17
REMARK                            x       y       z     vdW  Elec       q    Type
REMARK                         _______ _______ _______ _____ _____    ______ ____
ROOT
ATOM      1  N   UNL     1       7.574   7.803  18.313  0.00  0.00    +0.000 N 
ATOM      2  C   UNL     1       7.594   6.920  17.252  0.00  0.00    +0.000 C 
ATOM      3  O   UNL     1       8.201   7.122  16.202  0.00  0.00    +0.000 OA
ATOM      4  N   UNL     1       6.894   5.737  17.449  0.00  0.00    +0.000 N 
ATOM      5  C   UNL     1       7.022   4.677  16.447  0.00  0.00    +0.000 C 
ATOM      6  C   UNL     1       5.673   4.362  15.810  0.00  0.00    +0.000 C 
ATOM      7  C   UNL     1       4.635   4.015  16.873  0.00  0.00    +0.000 C 
ATOM      8  C   UNL     1       4.556   5.102  17.961  0.00  0.00    +0.000 C 
ATOM      9  C   UNL     1       5.946   5.450  18.524  0.00  0.00    +0.000 C 
ATOM     10  H   UNL     1       7.350   7.413  19.213  0.00  0.00    +0.000 HD
ENDROOT
BRANCH   1  18
ATOM     11  C   UNL     1       9.695  14.061  17.931  0.00  0.00    +0.000 C 
ATOM     12  N   UNL     1       9.905  12.795  18.569  0.00  0.00    +0.000 N 
ATOM     13  C   UNL     1      10.840  12.514  19.547  0.00  0.00    +0.000 A 
ATOM     14  O   UNL     1      11.647  13.301  20.022  0.00  0.00    +0.000 OA
ATOM     15  O   UNL     1      10.756  11.172  19.946  0.00  0.00    +0.000 OA
ATOM     16  C   UNL     1       9.725  10.690  19.159  0.00  0.00    +0.000 A 
ATOM     17  C   UNL     1       9.240   9.402  19.184  0.00  0.00    +0.000 A 
ATOM     18  C   UNL     1       8.171   9.084  18.336  0.00  0.00    +0.000 A 
ATOM     19  C   UNL     1       7.656  10.066  17.457  0.00  0.00    +0.000 A 
ATOM     20  C   UNL     1       8.168  11.372  17.448  0.00  0.00    +0.000 A 
ATOM     21  C   UNL     1       9.198  11.645  18.318  0.00  0.00    +0.000 A 
ENDBRANCH   1  18
BRANCH   8  22
ATOM     22  C   UNL     1       3.610   4.713  19.078  0.00  0.00    +0.000 A 
ATOM     23  C   UNL     1       2.626   5.609  19.523  0.00  0.00    +0.000 A 
ATOM     24  C   UNL     1       1.782   5.250  20.570  0.00  0.00    +0.000 A 
ATOM     25  F   UNL     1       0.856   6.119  20.993  0.00  0.00    +0.000 F 
ATOM     26  C   UNL     1       1.887   4.011  21.191  0.00  0.00    +0.000 A 
ATOM     27  C   UNL     1       2.856   3.109  20.757  0.00  0.00    +0.000 A 
ATOM     28  C   UNL     1       3.707   3.466  19.714  0.00  0.00    +0.000 A 
ATOM     29  F   UNL     1       4.645   2.590  19.336  0.00  0.00    +0.000 F 
ENDBRANCH   8  22
TORSDOF 2
ENDMDL
