MODEL 1
REMARK VINA RESULT:      -9.3      0.000      0.000
REMARK  Name = 
REMARK  6 active torsions:
REMARK  status: ('A' for Active; 'I' for Inactive)
REMARK    1  A    between atoms: C_1  and  C_2
REMARK    2  A    between atoms: C_4  and  C_5
REMARK    3  A    between atoms: C_8  and  C_9
REMARK    4  A    between atoms: C_9  and  N_10
REMARK    5  A    between atoms: C_11  and  C_13
REMARK    6  A    between atoms: N_17  and  C_18
REMARK                            x       y       z     vdW  Elec       q    Type
REMARK                         _______ _______ _______ _____ _____    ______ ____
ROOT
ATOM      1  N   UNL     1       8.173   8.206  17.990  0.00  0.00    +0.000 N 
ATOM      2  C   UNL     1       7.365   7.225  17.469  0.00  0.00    +0.000 C 
ATOM      3  O   UNL     1       6.438   7.472  16.699  0.00  0.00    +0.000 OA
ATOM      4  H   UNL     1       9.001   7.967  18.523  0.00  0.00    +0.000 HD
ENDROOT
BRANCH   2   5
ATOM      5  C   UNL     1       7.626   5.795  17.927  0.00  0.00    +0.000 C 
ATOM      6  C   UNL     1       7.545   4.789  16.792  0.00  0.00    +0.000 C 
ATOM      7  C   UNL     1       6.147   4.230  16.900  0.00  0.00    +0.000 C 
ATOM      8  O   UNL     1       5.635   3.555  16.023  0.00  0.00    +0.000 OA
ATOM      9  N   UNL     1       5.626   4.603  18.146  0.00  0.00    +0.000 N 
ATOM     10  C   UNL     1       6.616   5.305  18.936  0.00  0.00    +0.000 C 
BRANCH   9  11
ATOM     11  C   UNL     1       4.330   4.299  18.645  0.00  0.00    +0.000 A 
ATOM     12  C   UNL     1       3.165   4.819  18.037  0.00  0.00    +0.000 A 
ATOM     13  C   UNL     1       1.889   4.577  18.566  0.00  0.00    +0.000 A 
ATOM     14  C   UNL     1       1.801   3.812  19.704  0.00  0.00    +0.000 A 
ATOM     15  C   UNL     1       2.920   3.283  20.295  0.00  0.00    +0.000 A 
ATOM     16  C   UNL     1       4.186   3.498  19.792  0.00  0.00    +0.000 A 
ATOM     17  O   UNL     1       2.625   2.558  21.408  0.00  0.00    +0.000 OA
ATOM     18  C   UNL     1       1.201   2.770  21.495  0.00  0.00    +0.000 C 
ATOM     19  O   UNL     1       0.661   3.496  20.370  0.00  0.00    +0.000 OA
ENDBRANCH   9  11
ENDBRANCH   2   5
BRANCH   1  20
ATOM     20  C   UNL     1       7.976   9.605  17.674  0.00  0.00    +0.000 C 
BRANCH  20  24
ATOM     21  C   UNL     1       9.834  12.341  19.090  0.00  0.00    +0.000 A 
ATOM     22  C   UNL     1      10.207  11.397  20.028  0.00  0.00    +0.000 A 
ATOM     23  C   UNL     1       9.525  10.203  19.702  0.00  0.00    +0.000 A 
ATOM     24  C   UNL     1       8.791  10.470  18.567  0.00  0.00    +0.000 A 
ATOM     25  O   UNL     1       8.948  11.781  18.207  0.00  0.00    +0.000 OA
BRANCH  21  29
ATOM     26  C   UNL     1      11.156  16.652  17.000  0.00  0.00    +0.000 C 
ATOM     27  C   UNL     1      10.937  15.635  18.067  0.00  0.00    +0.000 A 
ATOM     28  N   UNL     1      10.510  14.412  17.845  0.00  0.00    +0.000 NA
ATOM     29  C   UNL     1      10.358  13.738  19.047  0.00  0.00    +0.000 A 
ATOM     30  C   UNL     1      10.703  14.457  20.171  0.00  0.00    +0.000 A 
ATOM     31  S   UNL     1      11.236  16.024  19.715  0.00  0.00    +0.000 S 
ENDBRANCH  21  29
ENDBRANCH  20  24
ENDBRANCH   1  20
TORSDOF 5
ENDMDL
MODEL 2
REMARK VINA RESULT:      -9.0      0.885      1.074
REMARK  Name = 
REMARK  6 active torsions:
REMARK  status: ('A' for Active; 'I' for Inactive)
REMARK    1  A    between atoms: C_1  and  C_2
REMARK    2  A    between atoms: C_4  and  C_5
REMARK    3  A    between atoms: C_8  and  C_9
REMARK    4  A    between atoms: C_9  and  N_10
REMARK    5  A    between atoms: C_11  and  C_13
REMARK    6  A    between atoms: N_17  and  C_18
REMARK                            x       y       z     vdW  Elec       q    Type
REMARK                         _______ _______ _______ _____ _____    ______ ____
ROOT
ATOM      1  N   UNL     1       8.283   8.172  18.105  0.00  0.00    +0.000 N 
ATOM      2  C   UNL     1       7.503   7.169  17.581  0.00  0.00    +0.000 C 
ATOM      3  O   UNL     1       6.637   7.381  16.734  0.00  0.00    +0.000 OA
ATOM      4  H   UNL     1       9.068   7.956  18.710  0.00  0.00    +0.000 HD
ENDROOT
BRANCH   2   5
ATOM      5  C   UNL     1       7.713   5.765  18.135  0.00  0.00    +0.000 C 
ATOM      6  C   UNL     1       7.598   4.689  17.070  0.00  0.00    +0.000 C 
ATOM      7  C   UNL     1       6.180   4.188  17.210  0.00  0.00    +0.000 C 
ATOM      8  O   UNL     1       5.646   3.475  16.378  0.00  0.00    +0.000 OA
ATOM      9  N   UNL     1       5.671   4.662  18.426  0.00  0.00    +0.000 N 
ATOM     10  C   UNL     1       6.684   5.380  19.171  0.00  0.00    +0.000 C 
BRANCH   9  11
ATOM     11  C   UNL     1       4.364   4.438  18.939  0.00  0.00    +0.000 A 
ATOM     12  C   UNL     1       3.279   5.272  18.584  0.00  0.00    +0.000 A 
ATOM     13  C   UNL     1       2.004   5.095  19.139  0.00  0.00    +0.000 A 
ATOM     14  C   UNL     1       1.836   4.080  20.049  0.00  0.00    +0.000 A 
ATOM     15  C   UNL     1       2.873   3.249  20.390  0.00  0.00    +0.000 A 
ATOM     16  C   UNL     1       4.135   3.394  19.853  0.00  0.00    +0.000 A 
ATOM     17  O   UNL     1       2.506   2.310  21.303  0.00  0.00    +0.000 OA
ATOM     18  C   UNL     1       1.143   2.706  21.561  0.00  0.00    +0.000 C 
ATOM     19  O   UNL     1       0.688   3.776  20.707  0.00  0.00    +0.000 OA
ENDBRANCH   9  11
ENDBRANCH   2   5
BRANCH   1  20
ATOM     20  C   UNL     1       8.127   9.552  17.700  0.00  0.00    +0.000 C 
BRANCH  20  24
ATOM     21  C   UNL     1      10.118  12.278  18.946  0.00  0.00    +0.000 A 
ATOM     22  C   UNL     1      10.316  11.435  20.023  0.00  0.00    +0.000 A 
ATOM     23  C   UNL     1       9.551  10.271  19.780  0.00  0.00    +0.000 A 
ATOM     24  C   UNL     1       8.944  10.452  18.555  0.00  0.00    +0.000 A 
ATOM     25  O   UNL     1       9.258  11.687  18.056  0.00  0.00    +0.000 OA
BRANCH  21  29
ATOM     26  C   UNL     1      12.327  16.479  20.419  0.00  0.00    +0.000 C 
ATOM     27  C   UNL     1      11.750  15.464  19.494  0.00  0.00    +0.000 A 
ATOM     28  N   UNL     1      11.148  14.363  19.887  0.00  0.00    +0.000 NA
ATOM     29  C   UNL     1      10.777  13.608  18.785  0.00  0.00    +0.000 A 
ATOM     30  C   UNL     1      11.080  14.165  17.561  0.00  0.00    +0.000 A 
ATOM     31  S   UNL     1      11.851  15.682  17.791  0.00  0.00    +0.000 S 
ENDBRANCH  21  29
ENDBRANCH  20  24
ENDBRANCH   1  20
TORSDOF 5
ENDMDL
MODEL 3
REMARK VINA RESULT:      -9.0      5.980      8.104
REMARK  Name = 
REMARK  6 active torsions:
REMARK  status: ('A' for Active; 'I' for Inactive)
REMARK    1  A    between atoms: C_1  and  C_2
REMARK    2  A    between atoms: C_4  and  C_5
REMARK    3  A    between atoms: C_8  and  C_9
REMARK    4  A    between atoms: C_9  and  N_10
REMARK    5  A    between atoms: C_11  and  C_13
REMARK    6  A    between atoms: N_17  and  C_18
REMARK                            x       y       z     vdW  Elec       q    Type
REMARK                         _______ _______ _______ _____ _____    ______ ____
ROOT
ATOM      1  N   UNL     1       2.218   5.677  19.497  0.00  0.00    +0.000 N 
ATOM      2  C   UNL     1       1.527   4.527  19.793  0.00  0.00    +0.000 C 
ATOM      3  O   UNL     1       0.767   4.442  20.756  0.00  0.00    +0.000 OA
ATOM      4  H   UNL     1       2.742   5.760  18.632  0.00  0.00    +0.000 HD
ENDROOT
BRANCH   2   5
ATOM      5  C   UNL     1       1.780   3.317  18.901  0.00  0.00    +0.000 C 
ATOM      6  C   UNL     1       2.645   2.263  19.570  0.00  0.00    +0.000 C 
ATOM      7  C   UNL     1       4.032   2.542  19.043  0.00  0.00    +0.000 C 
ATOM      8  O   UNL     1       5.035   2.042  19.524  0.00  0.00    +0.000 OA
ATOM      9  N   UNL     1       3.914   3.407  17.947  0.00  0.00    +0.000 N 
ATOM     10  C   UNL     1       2.523   3.664  17.634  0.00  0.00    +0.000 C 
BRANCH   9  11
ATOM     11  C   UNL     1       4.980   3.935  17.169  0.00  0.00    +0.000 A 
ATOM     12  C   UNL     1       5.898   4.864  17.710  0.00  0.00    +0.000 A 
ATOM     13  C   UNL     1       6.909   5.438  16.927  0.00  0.00    +0.000 A 
ATOM     14  C   UNL     1       6.984   5.070  15.606  0.00  0.00    +0.000 A 
ATOM     15  C   UNL     1       6.115   4.155  15.070  0.00  0.00    +0.000 A 
ATOM     16  C   UNL     1       5.116   3.568  15.818  0.00  0.00    +0.000 A 
ATOM     17  O   UNL     1       6.352   3.924  13.751  0.00  0.00    +0.000 OA
ATOM     18  C   UNL     1       7.414   4.869  13.501  0.00  0.00    +0.000 C 
ATOM     19  O   UNL     1       7.875   5.538  14.693  0.00  0.00    +0.000 OA
ENDBRANCH   9  11
ENDBRANCH   2   5
BRANCH   1  20
ATOM     20  C   UNL     1       2.104   6.868  20.311  0.00  0.00    +0.000 C 
BRANCH  20  24
ATOM     21  C   UNL     1       1.026  10.043  19.007  0.00  0.00    +0.000 A 
ATOM     22  C   UNL     1       1.659   9.608  17.858  0.00  0.00    +0.000 A 
ATOM     23  C   UNL     1       2.237   8.354  18.156  0.00  0.00    +0.000 A 
ATOM     24  C   UNL     1       1.906   8.073  19.464  0.00  0.00    +0.000 A 
ATOM     25  O   UNL     1       1.196   9.114  20.000  0.00  0.00    +0.000 OA
BRANCH  21  29
ATOM     26  C   UNL     1      -2.785  12.970  20.274  0.00  0.00    +0.000 C 
ATOM     27  C   UNL     1      -1.471  12.574  19.694  0.00  0.00    +0.000 A 
ATOM     28  N   UNL     1      -1.018  11.340  19.666  0.00  0.00    +0.000 NA
ATOM     29  C   UNL     1       0.253  11.315  19.113  0.00  0.00    +0.000 A 
ATOM     30  C   UNL     1       0.738  12.538  18.700  0.00  0.00    +0.000 A 
ATOM     31  S   UNL     1      -0.430  13.758  19.010  0.00  0.00    +0.000 S 
ENDBRANCH  21  29
ENDBRANCH  20  24
ENDBRANCH   1  20
TORSDOF 5
ENDMDL
MODEL 4
REMARK VINA RESULT:      -8.9      3.264      4.676
REMARK  Name = 
REMARK  6 active torsions:
REMARK  status: ('A' for Active; 'I' for Inactive)
REMARK    1  A    between atoms: C_1  and  C_2
REMARK    2  A    between atoms: C_4  and  C_5
REMARK    3  A    between atoms: C_8  and  C_9
REMARK    4  A    between atoms: C_9  and  N_10
REMARK    5  A    between atoms: C_11  and  C_13
REMARK    6  A    between atoms: N_17  and  C_18
REMARK                            x       y       z     vdW  Elec       q    Type
REMARK                         _______ _______ _______ _____ _____    ______ ____
ROOT
ATOM      1  N   UNL     1       6.558   5.019  19.287  0.00  0.00    +0.000 N 
ATOM      2  C   UNL     1       5.536   4.391  18.617  0.00  0.00    +0.000 C 
ATOM      3  O   UNL     1       5.614   4.089  17.427  0.00  0.00    +0.000 OA
ATOM      4  H   UNL     1       6.518   5.147  20.292  0.00  0.00    +0.000 HD
ENDROOT
BRANCH   2   5
ATOM      5  C   UNL     1       4.256   4.123  19.398  0.00  0.00    +0.000 C 
ATOM      6  C   UNL     1       3.137   3.579  18.527  0.00  0.00    +0.000 C 
ATOM      7  C   UNL     1       2.305   4.796  18.199  0.00  0.00    +0.000 C 
ATOM      8  O   UNL     1       1.444   4.795  17.336  0.00  0.00    +0.000 OA
ATOM      9  N   UNL     1       2.692   5.831  19.061  0.00  0.00    +0.000 N 
ATOM     10  C   UNL     1       3.674   5.369  20.021  0.00  0.00    +0.000 C 
BRANCH   9  11
ATOM     11  C   UNL     1       2.173   7.153  19.079  0.00  0.00    +0.000 A 
ATOM     12  C   UNL     1       2.216   7.978  17.931  0.00  0.00    +0.000 A 
ATOM     13  C   UNL     1       1.767   9.305  17.963  0.00  0.00    +0.000 A 
ATOM     14  C   UNL     1       1.280   9.789  19.152  0.00  0.00    +0.000 A 
ATOM     15  C   UNL     1       1.212   8.998  20.270  0.00  0.00    +0.000 A 
ATOM     16  C   UNL     1       1.639   7.686  20.266  0.00  0.00    +0.000 A 
ATOM     17  O   UNL     1       0.702   9.658  21.344  0.00  0.00    +0.000 OA
ATOM     18  C   UNL     1       0.541  10.981  20.792  0.00  0.00    +0.000 C 
ATOM     19  O   UNL     1       0.827  11.050  19.380  0.00  0.00    +0.000 OA
ENDBRANCH   9  11
ENDBRANCH   2   5
BRANCH   1  20
ATOM     20  C   UNL     1       7.796   5.378  18.629  0.00  0.00    +0.000 C 
BRANCH  20  24
ATOM     21  C   UNL     1       8.331   8.922  18.310  0.00  0.00    +0.000 A 
ATOM     22  C   UNL     1       7.308   8.834  17.385  0.00  0.00    +0.000 A 
ATOM     23  C   UNL     1       6.957   7.469  17.288  0.00  0.00    +0.000 A 
ATOM     24  C   UNL     1       7.765   6.794  18.178  0.00  0.00    +0.000 A 
ATOM     25  O   UNL     1       8.629   7.669  18.781  0.00  0.00    +0.000 OA
BRANCH  21  29
ATOM     26  C   UNL     1       9.705  13.683  17.933  0.00  0.00    +0.000 C 
ATOM     27  C   UNL     1       9.563  12.320  18.519  0.00  0.00    +0.000 A 
ATOM     28  N   UNL     1       8.992  11.308  17.905  0.00  0.00    +0.000 NA
ATOM     29  C   UNL     1       8.971  10.200  18.739  0.00  0.00    +0.000 A 
ATOM     30  C   UNL     1       9.556  10.383  19.973  0.00  0.00    +0.000 A 
ATOM     31  S   UNL     1      10.156  11.987  20.098  0.00  0.00    +0.000 S 
ENDBRANCH  21  29
ENDBRANCH  20  24
ENDBRANCH   1  20
TORSDOF 5
ENDMDL
MODEL 5
REMARK VINA RESULT:      -8.8      6.123      8.589
REMARK  Name = 
REMARK  6 active torsions:
REMARK  status: ('A' for Active; 'I' for Inactive)
REMARK    1  A    between atoms: C_1  and  C_2
REMARK    2  A    between atoms: C_4  and  C_5
REMARK    3  A    between atoms: C_8  and  C_9
REMARK    4  A    between atoms: C_9  and  N_10
REMARK    5  A    between atoms: C_11  and  C_13
REMARK    6  A    between atoms: N_17  and  C_18
REMARK                            x       y       z     vdW  Elec       q    Type
REMARK                         _______ _______ _______ _____ _____    ______ ____
ROOT
ATOM      1  N   UNL     1       2.460   5.853  19.720  0.00  0.00    +0.000 N 
ATOM      2  C   UNL     1       1.596   4.802  19.912  0.00  0.00    +0.000 C 
ATOM      3  O   UNL     1       0.665   4.851  20.714  0.00  0.00    +0.000 OA
ATOM      4  H   UNL     1       3.142   5.833  18.970  0.00  0.00    +0.000 HD
ENDROOT
BRANCH   2   5
ATOM      5  C   UNL     1       1.868   3.528  19.123  0.00  0.00    +0.000 C 
ATOM      6  C   UNL     1       2.762   2.552  19.869  0.00  0.00    +0.000 C 
ATOM      7  C   UNL     1       4.138   2.815  19.306  0.00  0.00    +0.000 C 
ATOM      8  O   UNL     1       5.156   2.380  19.817  0.00  0.00    +0.000 OA
ATOM      9  N   UNL     1       3.991   3.582  18.142  0.00  0.00    +0.000 N 
ATOM     10  C   UNL     1       2.593   3.782  17.823  0.00  0.00    +0.000 C 
BRANCH   9  11
ATOM     11  C   UNL     1       5.039   4.065  17.312  0.00  0.00    +0.000 A 
ATOM     12  C   UNL     1       5.974   5.016  17.782  0.00  0.00    +0.000 A 
ATOM     13  C   UNL     1       6.967   5.545  16.946  0.00  0.00    +0.000 A 
ATOM     14  C   UNL     1       7.006   5.112  15.643  0.00  0.00    +0.000 A 
ATOM     15  C   UNL     1       6.120   4.175  15.176  0.00  0.00    +0.000 A 
ATOM     16  C   UNL     1       5.138   3.632  15.978  0.00  0.00    +0.000 A 
ATOM     17  O   UNL     1       6.322   3.878  13.864  0.00  0.00    +0.000 OA
ATOM     18  C   UNL     1       7.381   4.804  13.541  0.00  0.00    +0.000 C 
ATOM     19  O   UNL     1       7.875   5.529  14.686  0.00  0.00    +0.000 OA
ENDBRANCH   9  11
ENDBRANCH   2   5
BRANCH   1  20
ATOM     20  C   UNL     1       2.336   7.090  20.461  0.00  0.00    +0.000 C 
BRANCH  20  24
ATOM     21  C   UNL     1       0.312   9.750  19.128  0.00  0.00    +0.000 A 
ATOM     22  C   UNL     1       1.065   9.539  17.988  0.00  0.00    +0.000 A 
ATOM     23  C   UNL     1       2.011   8.536  18.299  0.00  0.00    +0.000 A 
ATOM     24  C   UNL     1       1.772   8.167  19.605  0.00  0.00    +0.000 A 
ATOM     25  O   UNL     1       0.760   8.926  20.128  0.00  0.00    +0.000 OA
BRANCH  21  29
ATOM     26  C   UNL     1      -4.131  11.668  17.999  0.00  0.00    +0.000 C 
ATOM     27  C   UNL     1      -2.811  11.525  18.675  0.00  0.00    +0.000 A 
ATOM     28  N   UNL     1      -1.921  10.606  18.371  0.00  0.00    +0.000 NA
ATOM     29  C   UNL     1      -0.828  10.708  19.219  0.00  0.00    +0.000 A 
ATOM     30  C   UNL     1      -0.893  11.730  20.142  0.00  0.00    +0.000 A 
ATOM     31  S   UNL     1      -2.365  12.593  19.946  0.00  0.00    +0.000 S 
ENDBRANCH  21  29
ENDBRANCH  20  24
ENDBRANCH   1  20
TORSDOF 5
ENDMDL
MODEL 6
REMARK VINA RESULT:      -8.6      5.662      7.638
REMARK  Name = 
REMARK  6 active torsions:
REMARK  status: ('A' for Active; 'I' for Inactive)
REMARK    1  A    between atoms: C_1  and  C_2
REMARK    2  A    between atoms: C_4  and  C_5
REMARK    3  A    between atoms: C_8  and  C_9
REMARK    4  A    between atoms: C_9  and  N_10
REMARK    5  A    between atoms: C_11  and  C_13
REMARK    6  A    between atoms: N_17  and  C_18
REMARK                            x       y       z     vdW  Elec       q    Type
REMARK                         _______ _______ _______ _____ _____    ______ ____
ROOT
ATOM      1  N   UNL     1       2.100   5.688  19.489  0.00  0.00    +0.000 N 
ATOM      2  C   UNL     1       1.457   4.517  19.813  0.00  0.00    +0.000 C 
ATOM      3  O   UNL     1       0.723   4.417  20.794  0.00  0.00    +0.000 OA
ATOM      4  H   UNL     1       2.600   5.779  18.612  0.00  0.00    +0.000 HD
ENDROOT
BRANCH   2   5
ATOM      5  C   UNL     1       1.732   3.307  18.928  0.00  0.00    +0.000 C 
ATOM      6  C   UNL     1       2.602   2.265  19.610  0.00  0.00    +0.000 C 
ATOM      7  C   UNL     1       3.991   2.557  19.096  0.00  0.00    +0.000 C 
ATOM      8  O   UNL     1       4.994   2.070  19.589  0.00  0.00    +0.000 OA
ATOM      9  N   UNL     1       3.875   3.417  17.995  0.00  0.00    +0.000 N 
ATOM     10  C   UNL     1       2.485   3.658  17.667  0.00  0.00    +0.000 C 
BRANCH   9  11
ATOM     11  C   UNL     1       4.943   3.954  17.227  0.00  0.00    +0.000 A 
ATOM     12  C   UNL     1       5.861   4.875  17.782  0.00  0.00    +0.000 A 
ATOM     13  C   UNL     1       6.875   5.458  17.009  0.00  0.00    +0.000 A 
ATOM     14  C   UNL     1       6.952   5.108  15.683  0.00  0.00    +0.000 A 
ATOM     15  C   UNL     1       6.083   4.201  15.133  0.00  0.00    +0.000 A 
ATOM     16  C   UNL     1       5.081   3.605  15.872  0.00  0.00    +0.000 A 
ATOM     17  O   UNL     1       6.322   3.988  13.811  0.00  0.00    +0.000 OA
ATOM     18  C   UNL     1       7.386   4.934  13.577  0.00  0.00    +0.000 C 
ATOM     19  O   UNL     1       7.845   5.586  14.778  0.00  0.00    +0.000 OA
ENDBRANCH   9  11
ENDBRANCH   2   5
BRANCH   1  20
ATOM     20  C   UNL     1       1.962   6.883  20.294  0.00  0.00    +0.000 C 
BRANCH  20  24
ATOM     21  C   UNL     1       1.355  10.195  19.026  0.00  0.00    +0.000 A 
ATOM     22  C   UNL     1       1.730   9.632  17.820  0.00  0.00    +0.000 A 
ATOM     23  C   UNL     1       2.088   8.291  18.087  0.00  0.00    +0.000 A 
ATOM     24  C   UNL     1       1.889   8.094  19.436  0.00  0.00    +0.000 A 
ATOM     25  O   UNL     1       1.474   9.260  20.022  0.00  0.00    +0.000 OA
BRANCH  21  29
ATOM     26  C   UNL     1       1.401  14.877  20.690  0.00  0.00    +0.000 C 
ATOM     27  C   UNL     1       0.930  13.668  19.958  0.00  0.00    +0.000 A 
ATOM     28  N   UNL     1       1.513  12.491  20.023  0.00  0.00    +0.000 NA
ATOM     29  C   UNL     1       0.866  11.596  19.185  0.00  0.00    +0.000 A 
ATOM     30  C   UNL     1      -0.226  12.103  18.513  0.00  0.00    +0.000 A 
ATOM     31  S   UNL     1      -0.455  13.750  18.941  0.00  0.00    +0.000 S 
ENDBRANCH  21  29
ENDBRANCH  20  24
ENDBRANCH   1  20
TORSDOF 5
ENDMDL
MODEL 7
REMARK VINA RESULT:      -8.6      3.120      4.953
REMARK  Name = 
REMARK  6 active torsions:
REMARK  status: ('A' for Active; 'I' for Inactive)
REMARK    1  A    between atoms: C_1  and  C_2
REMARK    2  A    between atoms: C_4  and  C_5
REMARK    3  A    between atoms: C_8  and  C_9
REMARK    4  A    between atoms: C_9  and  N_10
REMARK    5  A    between atoms: C_11  and  C_13
REMARK    6  A    between atoms: N_17  and  C_18
REMARK                            x       y       z     vdW  Elec       q    Type
REMARK                         _______ _______ _______ _____ _____    ______ ____
ROOT
ATOM      1  N   UNL     1       6.587   4.735  19.051  0.00  0.00    +0.000 N 
ATOM      2  C   UNL     1       5.536   4.161  18.378  0.00  0.00    +0.000 C 
ATOM      3  O   UNL     1       5.545   3.992  17.160  0.00  0.00    +0.000 OA
ATOM      4  H   UNL     1       6.606   4.752  20.065  0.00  0.00    +0.000 HD
ENDROOT
BRANCH   2   5
ATOM      5  C   UNL     1       4.310   3.780  19.199  0.00  0.00    +0.000 C 
ATOM      6  C   UNL     1       3.127   3.375  18.338  0.00  0.00    +0.000 C 
ATOM      7  C   UNL     1       2.289   4.628  18.257  0.00  0.00    +0.000 C 
ATOM      8  O   UNL     1       1.369   4.759  17.467  0.00  0.00    +0.000 OA
ATOM      9  N   UNL     1       2.748   5.521  19.235  0.00  0.00    +0.000 N 
ATOM     10  C   UNL     1       3.788   4.919  20.042  0.00  0.00    +0.000 C 
BRANCH   9  11
ATOM     11  C   UNL     1       2.247   6.827  19.487  0.00  0.00    +0.000 A 
ATOM     12  C   UNL     1       1.614   7.150  20.709  0.00  0.00    +0.000 A 
ATOM     13  C   UNL     1       1.059   8.418  20.936  0.00  0.00    +0.000 A 
ATOM     14  C   UNL     1       1.147   9.346  19.927  0.00  0.00    +0.000 A 
ATOM     15  C   UNL     1       1.775   9.056  18.743  0.00  0.00    +0.000 A 
ATOM     16  C   UNL     1       2.337   7.820  18.496  0.00  0.00    +0.000 A 
ATOM     17  O   UNL     1       1.757  10.103  17.876  0.00  0.00    +0.000 OA
ATOM     18  C   UNL     1       0.966  11.053  18.619  0.00  0.00    +0.000 C 
ATOM     19  O   UNL     1       0.647  10.609  19.955  0.00  0.00    +0.000 OA
ENDBRANCH   9  11
ENDBRANCH   2   5
BRANCH   1  20
ATOM     20  C   UNL     1       7.775   5.192  18.364  0.00  0.00    +0.000 C 
BRANCH  20  24
ATOM     21  C   UNL     1       8.248   8.758  18.286  0.00  0.00    +0.000 A 
ATOM     22  C   UNL     1       7.113   8.733  17.497  0.00  0.00    +0.000 A 
ATOM     23  C   UNL     1       6.759   7.375  17.330  0.00  0.00    +0.000 A 
ATOM     24  C   UNL     1       7.679   6.641  18.045  0.00  0.00    +0.000 A 
ATOM     25  O   UNL     1       8.611   7.475  18.603  0.00  0.00    +0.000 OA
BRANCH  21  29
ATOM     26  C   UNL     1       9.924  12.117  21.542  0.00  0.00    +0.000 C 
ATOM     27  C   UNL     1       9.654  11.473  20.226  0.00  0.00    +0.000 A 
ATOM     28  N   UNL     1       8.952  10.372  20.073  0.00  0.00    +0.000 NA
ATOM     29  C   UNL     1       8.934  10.005  18.736  0.00  0.00    +0.000 A 
ATOM     30  C   UNL     1       9.603  10.857  17.884  0.00  0.00    +0.000 A 
ATOM     31  S   UNL     1      10.276  12.159  18.778  0.00  0.00    +0.000 S 
ENDBRANCH  21  29
ENDBRANCH  20  24
ENDBRANCH   1  20
TORSDOF 5
ENDMDL
MODEL 8
REMARK VINA RESULT:      -8.6      6.321      8.353
REMARK  Name = 
REMARK  6 active torsions:
REMARK  status: ('A' for Active; 'I' for Inactive)
REMARK    1  A    between atoms: C_1  and  C_2
REMARK    2  A    between atoms: C_4  and  C_5
REMARK    3  A    between atoms: C_8  and  C_9
REMARK    4  A    between atoms: C_9  and  N_10
REMARK    5  A    between atoms: C_11  and  C_13
REMARK    6  A    between atoms: N_17  and  C_18
REMARK                            x       y       z     vdW  Elec       q    Type
REMARK                         _______ _______ _______ _____ _____    ______ ____
ROOT
ATOM      1  N   UNL     1       2.139   5.515  19.507  0.00  0.00    +0.000 N 
ATOM      2  C   UNL     1       1.365   4.390  19.660  0.00  0.00    +0.000 C 
ATOM      3  O   UNL     1       0.657   4.205  20.649  0.00  0.00    +0.000 OA
ATOM      4  H   UNL     1       2.617   5.701  18.632  0.00  0.00    +0.000 HD
ENDROOT
BRANCH   2   5
ATOM      5  C   UNL     1       1.453   3.333  18.566  0.00  0.00    +0.000 C 
ATOM      6  C   UNL     1       2.148   2.064  19.029  0.00  0.00    +0.000 C 
ATOM      7  C   UNL     1       3.568   2.228  18.544  0.00  0.00    +0.000 C 
ATOM      8  O   UNL     1       4.481   1.512  18.919  0.00  0.00    +0.000 OA
ATOM      9  N   UNL     1       3.592   3.281  17.619  0.00  0.00    +0.000 N 
ATOM     10  C   UNL     1       2.258   3.787  17.372  0.00  0.00    +0.000 C 
BRANCH   9  11
ATOM     11  C   UNL     1       4.734   3.778  16.935  0.00  0.00    +0.000 A 
ATOM     12  C   UNL     1       5.734   4.516  17.608  0.00  0.00    +0.000 A 
ATOM     13  C   UNL     1       6.827   5.066  16.925  0.00  0.00    +0.000 A 
ATOM     14  C   UNL     1       6.901   4.866  15.568  0.00  0.00    +0.000 A 
ATOM     15  C   UNL     1       5.951   4.135  14.902  0.00  0.00    +0.000 A 
ATOM     16  C   UNL     1       4.870   3.576  15.550  0.00  0.00    +0.000 A 
ATOM     17  O   UNL     1       6.202   4.051  13.568  0.00  0.00    +0.000 OA
ATOM     18  C   UNL     1       7.370   4.890  13.462  0.00  0.00    +0.000 C 
ATOM     19  O   UNL     1       7.867   5.342  14.739  0.00  0.00    +0.000 OA
ENDBRANCH   9  11
ENDBRANCH   2   5
BRANCH   1  20
ATOM     20  C   UNL     1       2.182   6.555  20.512  0.00  0.00    +0.000 C 
BRANCH  20  24
ATOM     21  C   UNL     1       0.675   9.773  19.945  0.00  0.00    +0.000 A 
ATOM     22  C   UNL     1       1.227   9.635  18.685  0.00  0.00    +0.000 A 
ATOM     23  C   UNL     1       1.951   8.421  18.685  0.00  0.00    +0.000 A 
ATOM     24  C   UNL     1       1.783   7.866  19.936  0.00  0.00    +0.000 A 
ATOM     25  O   UNL     1       1.034   8.701  20.721  0.00  0.00    +0.000 OA
BRANCH  21  29
ATOM     26  C   UNL     1      -1.287  13.118  23.053  0.00  0.00    +0.000 C 
ATOM     27  C   UNL     1      -1.048  12.373  21.785  0.00  0.00    +0.000 A 
ATOM     28  N   UNL     1      -0.247  11.336  21.678  0.00  0.00    +0.000 NA
ATOM     29  C   UNL     1      -0.202  10.907  20.360  0.00  0.00    +0.000 A 
ATOM     30  C   UNL     1      -0.999  11.613  19.485  0.00  0.00    +0.000 A 
ATOM     31  S   UNL     1      -1.834  12.851  20.333  0.00  0.00    +0.000 S 
ENDBRANCH  21  29
ENDBRANCH  20  24
ENDBRANCH   1  20
TORSDOF 5
ENDMDL
MODEL 9
REMARK VINA RESULT:      -8.5      2.194      2.554
REMARK  Name = 
REMARK  6 active torsions:
REMARK  status: ('A' for Active; 'I' for Inactive)
REMARK    1  A    between atoms: C_1  and  C_2
REMARK    2  A    between atoms: C_4  and  C_5
REMARK    3  A    between atoms: C_8  and  C_9
REMARK    4  A    between atoms: C_9  and  N_10
REMARK    5  A    between atoms: C_11  and  C_13
REMARK    6  A    between atoms: N_17  and  C_18
REMARK                            x       y       z     vdW  Elec       q    Type
REMARK                         _______ _______ _______ _____ _____    ______ ____
ROOT
ATOM      1  N   UNL     1       8.632   8.350  18.538  0.00  0.00    +0.000 N 
ATOM      2  C   UNL     1       7.786   7.435  17.960  0.00  0.00    +0.000 C 
ATOM      3  O   UNL     1       6.933   7.754  17.134  0.00  0.00    +0.000 OA
ATOM      4  H   UNL     1       9.404   8.046  19.122  0.00  0.00    +0.000 HD
ENDROOT
BRANCH   2   5
ATOM      5  C   UNL     1       7.907   5.988  18.423  0.00  0.00    +0.000 C 
ATOM      6  C   UNL     1       7.777   4.992  17.285  0.00  0.00    +0.000 C 
ATOM      7  C   UNL     1       6.332   4.556  17.345  0.00  0.00    +0.000 C 
ATOM      8  O   UNL     1       5.793   3.928  16.450  0.00  0.00    +0.000 OA
ATOM      9  N   UNL     1       5.804   4.975  18.574  0.00  0.00    +0.000 N 
ATOM     10  C   UNL     1       6.825   5.589  19.398  0.00  0.00    +0.000 C 
BRANCH   9  11
ATOM     11  C   UNL     1       4.471   4.785  19.028  0.00  0.00    +0.000 A 
ATOM     12  C   UNL     1       3.499   5.804  18.908  0.00  0.00    +0.000 A 
ATOM     13  C   UNL     1       2.202   5.646  19.416  0.00  0.00    +0.000 A 
ATOM     14  C   UNL     1       1.898   4.461  20.042  0.00  0.00    +0.000 A 
ATOM     15  C   UNL     1       2.823   3.454  20.149  0.00  0.00    +0.000 A 
ATOM     16  C   UNL     1       4.103   3.579  19.652  0.00  0.00    +0.000 A 
ATOM     17  O   UNL     1       2.331   2.365  20.799  0.00  0.00    +0.000 OA
ATOM     18  C   UNL     1       1.020   2.842  21.165  0.00  0.00    +0.000 C 
ATOM     19  O   UNL     1       0.709   4.139  20.615  0.00  0.00    +0.000 OA
ENDBRANCH   9  11
ENDBRANCH   2   5
BRANCH   1  20
ATOM     20  C   UNL     1       8.565   9.760  18.220  0.00  0.00    +0.000 C 
BRANCH  20  24
ATOM     21  C   UNL     1       9.477  11.883  20.978  0.00  0.00    +0.000 A 
ATOM     22  C   UNL     1      10.725  11.853  20.384  0.00  0.00    +0.000 A 
ATOM     23  C   UNL     1      10.627  10.995  19.265  0.00  0.00    +0.000 A 
ATOM     24  C   UNL     1       9.318  10.565  19.217  0.00  0.00    +0.000 A 
ATOM     25  O   UNL     1       8.619  11.076  20.277  0.00  0.00    +0.000 OA
BRANCH  21  29
ATOM     26  C   UNL     1       9.195  15.991  23.760  0.00  0.00    +0.000 C 
ATOM     27  C   UNL     1       9.039  14.560  23.377  0.00  0.00    +0.000 A 
ATOM     28  N   UNL     1       9.491  14.042  22.256  0.00  0.00    +0.000 NA
ATOM     29  C   UNL     1       9.135  12.704  22.176  0.00  0.00    +0.000 A 
ATOM     30  C   UNL     1       8.437  12.216  23.260  0.00  0.00    +0.000 A 
ATOM     31  S   UNL     1       8.219  13.465  24.418  0.00  0.00    +0.000 S 
ENDBRANCH  21  29
ENDBRANCH  20  24
ENDBRANCH   1  20
TORSDOF 5
ENDMDL
