MODEL 1
REMARK VINA RESULT:      -8.7      0.000      0.000
REMARK  Name = 
REMARK  3 active torsions:
REMARK  status: ('A' for Active; 'I' for Inactive)
REMARK    1  A    between atoms: C_1  and  C_2
REMARK    2  A    between atoms: C_9  and  C_10
REMARK    3  A    between atoms: N_12  and  C_13
REMARK                            x       y       z     vdW  Elec       q    Type
REMARK                         _______ _______ _______ _____ _____    ______ ____
ROOT
ATOM      1  C   UNL     1       2.042   8.434  18.318  0.00  0.00    +0.000 C 
ATOM      2  O   UNL     1       2.203   8.844  17.173  0.00  0.00    +0.000 OA
ATOM      3  N   UNL     1       2.478   7.221  18.829  0.00  0.00    +0.000 N 
ATOM      4  H   UNL     1       2.090   6.917  19.712  0.00  0.00    +0.000 HD
ENDROOT
BRANCH   1  13
ATOM      5  C   UNL     1      -2.374  13.097  20.903  0.00  0.00    +0.000 C 
ATOM      6  C   UNL     1      -2.050  12.298  22.134  0.00  0.00    +0.000 C 
ATOM      7  O   UNL     1      -2.618  12.572  23.195  0.00  0.00    +0.000 OA
ATOM      8  N   UNL     1      -1.152  11.257  22.050  0.00  0.00    +0.000 N 
ATOM      9  C   UNL     1      -0.974  10.383  23.222  0.00  0.00    +0.000 C 
ATOM     10  C   UNL     1       0.115   9.368  22.884  0.00  0.00    +0.000 C 
ATOM     11  C   UNL     1       0.314   9.616  21.423  0.00  0.00    +0.000 A 
ATOM     12  C   UNL     1       1.114   8.876  20.564  0.00  0.00    +0.000 A 
ATOM     13  C   UNL     1       1.239   9.289  19.232  0.00  0.00    +0.000 A 
ATOM     14  C   UNL     1       0.569  10.441  18.791  0.00  0.00    +0.000 A 
ATOM     15  C   UNL     1      -0.247  11.170  19.674  0.00  0.00    +0.000 A 
ATOM     16  C   UNL     1      -0.385  10.745  20.985  0.00  0.00    +0.000 A 
ENDBRANCH   1  13
BRANCH   3  17
ATOM     17  C   UNL     1       3.211   6.250  18.101  0.00  0.00    +0.000 A 
ATOM     18  C   UNL     1       2.729   4.960  17.868  0.00  0.00    +0.000 A 
ATOM     19  C   UNL     1       3.501   3.986  17.226  0.00  0.00    +0.000 A 
ATOM     20  C   UNL     1       4.788   4.345  16.828  0.00  0.00    +0.000 A 
ATOM     21  N   UNL     1       5.773   3.591  16.232  0.00  0.00    +0.000 N 
ATOM     22  C   UNL     1       6.894   4.352  16.037  0.00  0.00    +0.000 A 
ATOM     23  C   UNL     1       6.624   5.623  16.491  0.00  0.00    +0.000 A 
ATOM     24  C   UNL     1       5.295   5.632  17.003  0.00  0.00    +0.000 A 
ATOM     25  C   UNL     1       4.482   6.608  17.622  0.00  0.00    +0.000 A 
ATOM     26  H   UNL     1       5.680   2.612  16.001  0.00  0.00    +0.000 HD
ENDBRANCH   3  17
TORSDOF 2
ENDMDL
MODEL 2
REMARK VINA RESULT:      -8.4      1.120      1.167
REMARK  Name = 
REMARK  3 active torsions:
REMARK  status: ('A' for Active; 'I' for Inactive)
REMARK    1  A    between atoms: C_1  and  C_2
REMARK    2  A    between atoms: C_9  and  C_10
REMARK    3  A    between atoms: N_12  and  C_13
REMARK                            x       y       z     vdW  Elec       q    Type
REMARK                         _______ _______ _______ _____ _____    ______ ____
ROOT
ATOM      1  C   UNL     1       2.195   7.178  19.631  0.00  0.00    +0.000 C 
ATOM      2  O   UNL     1       2.469   6.324  20.469  0.00  0.00    +0.000 OA
ATOM      3  N   UNL     1       2.577   7.177  18.299  0.00  0.00    +0.000 N 
ATOM      4  H   UNL     1       2.473   8.039  17.781  0.00  0.00    +0.000 HD
ENDROOT
BRANCH   1  13
ATOM      5  C   UNL     1      -1.551  12.991  19.943  0.00  0.00    +0.000 C 
ATOM      6  C   UNL     1      -1.621  12.529  21.371  0.00  0.00    +0.000 C 
ATOM      7  O   UNL     1      -2.299  13.172  22.178  0.00  0.00    +0.000 OA
ATOM      8  N   UNL     1      -0.956  11.383  21.747  0.00  0.00    +0.000 N 
ATOM      9  C   UNL     1      -1.173  10.856  23.105  0.00  0.00    +0.000 C 
ATOM     10  C   UNL     1      -0.274   9.634  23.278  0.00  0.00    +0.000 C 
ATOM     11  C   UNL     1       0.227   9.430  21.884  0.00  0.00    +0.000 A 
ATOM     12  C   UNL     1       0.997   8.367  21.434  0.00  0.00    +0.000 A 
ATOM     13  C   UNL     1       1.438   8.366  20.105  0.00  0.00    +0.000 A 
ATOM     14  C   UNL     1       1.108   9.436  19.258  0.00  0.00    +0.000 A 
ATOM     15  C   UNL     1       0.317  10.498  19.730  0.00  0.00    +0.000 A 
ATOM     16  C   UNL     1      -0.135  10.483  21.040  0.00  0.00    +0.000 A 
ENDBRANCH   1  13
BRANCH   3  17
ATOM     17  C   UNL     1       3.344   6.161  17.674  0.00  0.00    +0.000 A 
ATOM     18  C   UNL     1       2.954   4.820  17.667  0.00  0.00    +0.000 A 
ATOM     19  C   UNL     1       3.765   3.816  17.126  0.00  0.00    +0.000 A 
ATOM     20  C   UNL     1       4.995   4.201  16.594  0.00  0.00    +0.000 A 
ATOM     21  N   UNL     1       6.002   3.436  16.053  0.00  0.00    +0.000 N 
ATOM     22  C   UNL     1       7.047   4.235  15.673  0.00  0.00    +0.000 A 
ATOM     23  C   UNL     1       6.702   5.539  15.952  0.00  0.00    +0.000 A 
ATOM     24  C   UNL     1       5.407   5.531  16.544  0.00  0.00    +0.000 A 
ATOM     25  C   UNL     1       4.554   6.530  17.065  0.00  0.00    +0.000 A 
ATOM     26  H   UNL     1       5.976   2.429  15.975  0.00  0.00    +0.000 HD
ENDBRANCH   3  17
TORSDOF 2
ENDMDL
MODEL 3
REMARK VINA RESULT:      -8.3      2.939      8.573
REMARK  Name = 
REMARK  3 active torsions:
REMARK  status: ('A' for Active; 'I' for Inactive)
REMARK    1  A    between atoms: C_1  and  C_2
REMARK    2  A    between atoms: C_9  and  C_10
REMARK    3  A    between atoms: N_12  and  C_13
REMARK                            x       y       z     vdW  Elec       q    Type
REMARK                         _______ _______ _______ _____ _____    ______ ____
ROOT
ATOM      1  C   UNL     1       1.847   9.068  18.364  0.00  0.00    +0.000 C 
ATOM      2  O   UNL     1       2.173   9.526  17.273  0.00  0.00    +0.000 OA
ATOM      3  N   UNL     1       1.086   9.706  19.331  0.00  0.00    +0.000 N 
ATOM      4  H   UNL     1       1.079   9.307  20.261  0.00  0.00    +0.000 HD
ENDROOT
BRANCH   1  13
ATOM      5  C   UNL     1       2.789   2.815  21.180  0.00  0.00    +0.000 C 
ATOM      6  C   UNL     1       3.735   2.748  20.014  0.00  0.00    +0.000 C 
ATOM      7  O   UNL     1       4.354   1.701  19.801  0.00  0.00    +0.000 OA
ATOM      8  N   UNL     1       3.873   3.842  19.189  0.00  0.00    +0.000 N 
ATOM      9  C   UNL     1       4.674   3.702  17.960  0.00  0.00    +0.000 C 
ATOM     10  C   UNL     1       4.717   5.067  17.276  0.00  0.00    +0.000 C 
ATOM     11  C   UNL     1       3.721   5.838  18.081  0.00  0.00    +0.000 A 
ATOM     12  C   UNL     1       3.265   7.122  17.815  0.00  0.00    +0.000 A 
ATOM     13  C   UNL     1       2.376   7.723  18.714  0.00  0.00    +0.000 A 
ATOM     14  C   UNL     1       1.970   7.031  19.866  0.00  0.00    +0.000 A 
ATOM     15  C   UNL     1       2.434   5.726  20.110  0.00  0.00    +0.000 A 
ATOM     16  C   UNL     1       3.296   5.127  19.207  0.00  0.00    +0.000 A 
ENDBRANCH   1  13
BRANCH   3  17
ATOM     17  C   UNL     1       0.537  11.007  19.205  0.00  0.00    +0.000 A 
ATOM     18  C   UNL     1      -0.775  11.234  18.783  0.00  0.00    +0.000 A 
ATOM     19  C   UNL     1      -1.274  12.525  18.576  0.00  0.00    +0.000 A 
ATOM     20  C   UNL     1      -0.405  13.592  18.800  0.00  0.00    +0.000 A 
ATOM     21  N   UNL     1      -0.602  14.943  18.630  0.00  0.00    +0.000 N 
ATOM     22  C   UNL     1       0.538  15.629  18.953  0.00  0.00    +0.000 A 
ATOM     23  C   UNL     1       1.479  14.712  19.359  0.00  0.00    +0.000 A 
ATOM     24  C   UNL     1       0.899  13.415  19.260  0.00  0.00    +0.000 A 
ATOM     25  C   UNL     1       1.367  12.103  19.495  0.00  0.00    +0.000 A 
ATOM     26  H   UNL     1      -1.460  15.357  18.291  0.00  0.00    +0.000 HD
ENDBRANCH   3  17
TORSDOF 2
ENDMDL
MODEL 4
REMARK VINA RESULT:      -8.2      7.212      9.244
REMARK  Name = 
REMARK  3 active torsions:
REMARK  status: ('A' for Active; 'I' for Inactive)
REMARK    1  A    between atoms: C_1  and  C_2
REMARK    2  A    between atoms: C_9  and  C_10
REMARK    3  A    between atoms: N_12  and  C_13
REMARK                            x       y       z     vdW  Elec       q    Type
REMARK                         _______ _______ _______ _____ _____    ______ ____
ROOT
ATOM      1  C   UNL     1       8.802   9.888  18.522  0.00  0.00    +0.000 C 
ATOM      2  O   UNL     1       9.253   9.431  19.567  0.00  0.00    +0.000 OA
ATOM      3  N   UNL     1       7.997   9.222  17.610  0.00  0.00    +0.000 N 
ATOM      4  H   UNL     1       7.881   9.639  16.696  0.00  0.00    +0.000 HD
ENDROOT
BRANCH   1  13
ATOM      5  C   UNL     1       9.119  16.768  17.817  0.00  0.00    +0.000 C 
ATOM      6  C   UNL     1      10.497  16.371  17.369  0.00  0.00    +0.000 C 
ATOM      7  O   UNL     1      11.308  17.252  17.068  0.00  0.00    +0.000 OA
ATOM      8  N   UNL     1      10.841  15.038  17.331  0.00  0.00    +0.000 N 
ATOM      9  C   UNL     1      12.242  14.679  17.052  0.00  0.00    +0.000 C 
ATOM     10  C   UNL     1      12.330  13.155  17.002  0.00  0.00    +0.000 C 
ATOM     11  C   UNL     1      10.974  12.760  17.493  0.00  0.00    +0.000 A 
ATOM     12  C   UNL     1      10.543  11.470  17.769  0.00  0.00    +0.000 A 
ATOM     13  C   UNL     1       9.213  11.271  18.160  0.00  0.00    +0.000 A 
ATOM     14  C   UNL     1       8.341  12.366  18.256  0.00  0.00    +0.000 A 
ATOM     15  C   UNL     1       8.801  13.666  17.984  0.00  0.00    +0.000 A 
ATOM     16  C   UNL     1      10.123  13.861  17.619  0.00  0.00    +0.000 A 
ENDBRANCH   1  13
BRANCH   3  17
ATOM     17  C   UNL     1       7.543   7.887  17.752  0.00  0.00    +0.000 A 
ATOM     18  C   UNL     1       8.161   6.967  18.602  0.00  0.00    +0.000 A 
ATOM     19  C   UNL     1       7.758   5.629  18.663  0.00  0.00    +0.000 A 
ATOM     20  C   UNL     1       6.710   5.235  17.832  0.00  0.00    +0.000 A 
ATOM     21  N   UNL     1       6.147   3.993  17.646  0.00  0.00    +0.000 N 
ATOM     22  C   UNL     1       5.149   4.064  16.711  0.00  0.00    +0.000 A 
ATOM     23  C   UNL     1       5.048   5.375  16.303  0.00  0.00    +0.000 A 
ATOM     24  C   UNL     1       6.037   6.127  16.999  0.00  0.00    +0.000 A 
ATOM     25  C   UNL     1       6.441   7.481  16.982  0.00  0.00    +0.000 A 
ATOM     26  H   UNL     1       6.451   3.152  18.117  0.00  0.00    +0.000 HD
ENDBRANCH   3  17
TORSDOF 2
ENDMDL
MODEL 5
REMARK VINA RESULT:      -8.1      0.837      1.917
REMARK  Name = 
REMARK  3 active torsions:
REMARK  status: ('A' for Active; 'I' for Inactive)
REMARK    1  A    between atoms: C_1  and  C_2
REMARK    2  A    between atoms: C_9  and  C_10
REMARK    3  A    between atoms: N_12  and  C_13
REMARK                            x       y       z     vdW  Elec       q    Type
REMARK                         _______ _______ _______ _____ _____    ______ ____
ROOT
ATOM      1  C   UNL     1       2.039   8.414  18.147  0.00  0.00    +0.000 C 
ATOM      2  O   UNL     1       2.501   8.925  17.132  0.00  0.00    +0.000 OA
ATOM      3  N   UNL     1       2.301   7.137  18.619  0.00  0.00    +0.000 N 
ATOM      4  H   UNL     1       1.691   6.768  19.336  0.00  0.00    +0.000 HD
ENDROOT
BRANCH   1  13
ATOM      5  C   UNL     1      -1.373  11.747  23.164  0.00  0.00    +0.000 C 
ATOM      6  C   UNL     1      -2.066  12.283  21.943  0.00  0.00    +0.000 C 
ATOM      7  O   UNL     1      -2.943  13.141  22.077  0.00  0.00    +0.000 OA
ATOM      8  N   UNL     1      -1.691  11.832  20.697  0.00  0.00    +0.000 N 
ATOM      9  C   UNL     1      -2.261  12.488  19.508  0.00  0.00    +0.000 C 
ATOM     10  C   UNL     1      -1.735  11.756  18.276  0.00  0.00    +0.000 C 
ATOM     11  C   UNL     1      -0.702  10.858  18.878  0.00  0.00    +0.000 A 
ATOM     12  C   UNL     1       0.186  10.046  18.186  0.00  0.00    +0.000 A 
ATOM     13  C   UNL     1       1.048   9.215  18.913  0.00  0.00    +0.000 A 
ATOM     14  C   UNL     1       0.994   9.206  20.315  0.00  0.00    +0.000 A 
ATOM     15  C   UNL     1       0.096  10.046  20.997  0.00  0.00    +0.000 A 
ATOM     16  C   UNL     1      -0.740  10.882  20.275  0.00  0.00    +0.000 A 
ENDBRANCH   1  13
BRANCH   3  17
ATOM     17  C   UNL     1       3.175   6.207  18.002  0.00  0.00    +0.000 A 
ATOM     18  C   UNL     1       2.816   4.878  17.766  0.00  0.00    +0.000 A 
ATOM     19  C   UNL     1       3.721   3.949  17.239  0.00  0.00    +0.000 A 
ATOM     20  C   UNL     1       5.011   4.397  16.959  0.00  0.00    +0.000 A 
ATOM     21  N   UNL     1       6.105   3.705  16.492  0.00  0.00    +0.000 N 
ATOM     22  C   UNL     1       7.181   4.545  16.384  0.00  0.00    +0.000 A 
ATOM     23  C   UNL     1       6.772   5.803  16.765  0.00  0.00    +0.000 A 
ATOM     24  C   UNL     1       5.401   5.722  17.140  0.00  0.00    +0.000 A 
ATOM     25  C   UNL     1       4.459   6.649  17.641  0.00  0.00    +0.000 A 
ATOM     26  H   UNL     1       6.110   2.716  16.287  0.00  0.00    +0.000 HD
ENDBRANCH   3  17
TORSDOF 2
ENDMDL
MODEL 6
REMARK VINA RESULT:      -8.1      1.673      2.372
REMARK  Name = 
REMARK  3 active torsions:
REMARK  status: ('A' for Active; 'I' for Inactive)
REMARK    1  A    between atoms: C_1  and  C_2
REMARK    2  A    between atoms: C_9  and  C_10
REMARK    3  A    between atoms: N_12  and  C_13
REMARK                            x       y       z     vdW  Elec       q    Type
REMARK                         _______ _______ _______ _____ _____    ______ ____
ROOT
ATOM      1  C   UNL     1       1.915   8.032  19.328  0.00  0.00    +0.000 C 
ATOM      2  O   UNL     1       2.146   8.102  18.125  0.00  0.00    +0.000 OA
ATOM      3  N   UNL     1       2.224   6.972  20.166  0.00  0.00    +0.000 N 
ATOM      4  H   UNL     1       1.785   6.951  21.077  0.00  0.00    +0.000 HD
ENDROOT
BRANCH   1  13
ATOM      5  C   UNL     1      -1.667  13.872  20.321  0.00  0.00    +0.000 C 
ATOM      6  C   UNL     1      -1.832  13.205  21.658  0.00  0.00    +0.000 C 
ATOM      7  O   UNL     1      -2.534  13.746  22.517  0.00  0.00    +0.000 OA
ATOM      8  N   UNL     1      -1.223  11.992  21.890  0.00  0.00    +0.000 N 
ATOM      9  C   UNL     1      -1.531  11.277  23.141  0.00  0.00    +0.000 C 
ATOM     10  C   UNL     1      -0.680  10.009  23.173  0.00  0.00    +0.000 C 
ATOM     11  C   UNL     1      -0.108   9.996  21.791  0.00  0.00    +0.000 A 
ATOM     12  C   UNL     1       0.653   8.983  21.226  0.00  0.00    +0.000 A 
ATOM     13  C   UNL     1       1.168   9.164  19.936  0.00  0.00    +0.000 A 
ATOM     14  C   UNL     1       0.918  10.360  19.244  0.00  0.00    +0.000 A 
ATOM     15  C   UNL     1       0.134  11.369  19.831  0.00  0.00    +0.000 A 
ATOM     16  C   UNL     1      -0.391  11.177  21.098  0.00  0.00    +0.000 A 
ENDBRANCH   1  13
BRANCH   3  17
ATOM     17  C   UNL     1       2.886   5.785  19.763  0.00  0.00    +0.000 A 
ATOM     18  C   UNL     1       4.243   5.753  19.434  0.00  0.00    +0.000 A 
ATOM     19  C   UNL     1       4.861   4.594  18.951  0.00  0.00    +0.000 A 
ATOM     20  C   UNL     1       4.067   3.458  18.801  0.00  0.00    +0.000 A 
ATOM     21  N   UNL     1       4.387   2.214  18.308  0.00  0.00    +0.000 N 
ATOM     22  C   UNL     1       3.284   1.403  18.323  0.00  0.00    +0.000 A 
ATOM     23  C   UNL     1       2.240   2.125  18.856  0.00  0.00    +0.000 A 
ATOM     24  C   UNL     1       2.719   3.432  19.156  0.00  0.00    +0.000 A 
ATOM     25  C   UNL     1       2.127   4.606  19.674  0.00  0.00    +0.000 A 
ATOM     26  H   UNL     1       5.301   1.955  17.962  0.00  0.00    +0.000 HD
ENDBRANCH   3  17
TORSDOF 2
ENDMDL
MODEL 7
REMARK VINA RESULT:      -7.9      1.594      2.715
REMARK  Name = 
REMARK  3 active torsions:
REMARK  status: ('A' for Active; 'I' for Inactive)
REMARK    1  A    between atoms: C_1  and  C_2
REMARK    2  A    between atoms: C_9  and  C_10
REMARK    3  A    between atoms: N_12  and  C_13
REMARK                            x       y       z     vdW  Elec       q    Type
REMARK                         _______ _______ _______ _____ _____    ______ ____
ROOT
ATOM      1  C   UNL     1       2.987   6.980  18.977  0.00  0.00    +0.000 C 
ATOM      2  O   UNL     1       3.108   5.892  19.532  0.00  0.00    +0.000 OA
ATOM      3  N   UNL     1       3.750   7.457  17.922  0.00  0.00    +0.000 N 
ATOM      4  H   UNL     1       3.692   8.444  17.710  0.00  0.00    +0.000 HD
ENDROOT
BRANCH   1  13
ATOM      5  C   UNL     1      -1.099  10.595  23.239  0.00  0.00    +0.000 C 
ATOM      6  C   UNL     1      -1.311  11.332  21.947  0.00  0.00    +0.000 C 
ATOM      7  O   UNL     1      -2.031  12.335  21.938  0.00  0.00    +0.000 OA
ATOM      8  N   UNL     1      -0.678  10.895  20.805  0.00  0.00    +0.000 N 
ATOM      9  C   UNL     1      -0.763  11.724  19.590  0.00  0.00    +0.000 C 
ATOM     10  C   UNL     1      -0.039  10.982  18.469  0.00  0.00    +0.000 C 
ATOM     11  C   UNL     1       0.610   9.863  19.220  0.00  0.00    +0.000 A 
ATOM     12  C   UNL     1       1.507   8.938  18.704  0.00  0.00    +0.000 A 
ATOM     13  C   UNL     1       1.969   7.910  19.535  0.00  0.00    +0.000 A 
ATOM     14  C   UNL     1       1.516   7.824  20.860  0.00  0.00    +0.000 A 
ATOM     15  C   UNL     1       0.616   8.778  21.367  0.00  0.00    +0.000 A 
ATOM     16  C   UNL     1       0.178   9.806  20.548  0.00  0.00    +0.000 A 
ENDBRANCH   1  13
BRANCH   3  17
ATOM     17  C   UNL     1       4.799   6.741  17.291  0.00  0.00    +0.000 A 
ATOM     18  C   UNL     1       6.139   6.894  17.652  0.00  0.00    +0.000 A 
ATOM     19  C   UNL     1       7.171   6.250  16.960  0.00  0.00    +0.000 A 
ATOM     20  C   UNL     1       6.814   5.446  15.878  0.00  0.00    +0.000 A 
ATOM     21  N   UNL     1       7.606   4.746  14.998  0.00  0.00    +0.000 N 
ATOM     22  C   UNL     1       6.827   4.106  14.071  0.00  0.00    +0.000 A 
ATOM     23  C   UNL     1       5.511   4.377  14.369  0.00  0.00    +0.000 A 
ATOM     24  C   UNL     1       5.487   5.232  15.507  0.00  0.00    +0.000 A 
ATOM     25  C   UNL     1       4.462   5.867  16.245  0.00  0.00    +0.000 A 
ATOM     26  H   UNL     1       8.616   4.733  15.024  0.00  0.00    +0.000 HD
ENDBRANCH   3  17
TORSDOF 2
ENDMDL
MODEL 8
REMARK VINA RESULT:      -7.8      2.773      8.976
REMARK  Name = 
REMARK  3 active torsions:
REMARK  status: ('A' for Active; 'I' for Inactive)
REMARK    1  A    between atoms: C_1  and  C_2
REMARK    2  A    between atoms: C_9  and  C_10
REMARK    3  A    between atoms: N_12  and  C_13
REMARK                            x       y       z     vdW  Elec       q    Type
REMARK                         _______ _______ _______ _____ _____    ______ ____
ROOT
ATOM      1  C   UNL     1       1.424   8.615  21.026  0.00  0.00    +0.000 C 
ATOM      2  O   UNL     1       1.537   8.618  22.248  0.00  0.00    +0.000 OA
ATOM      3  N   UNL     1       0.970   9.662  20.239  0.00  0.00    +0.000 N 
ATOM      4  H   UNL     1       0.719   9.453  19.281  0.00  0.00    +0.000 HD
ENDROOT
BRANCH   1  13
ATOM      5  C   UNL     1       4.182   3.815  16.870  0.00  0.00    +0.000 C 
ATOM      6  C   UNL     1       3.403   2.954  17.823  0.00  0.00    +0.000 C 
ATOM      7  O   UNL     1       3.464   1.726  17.711  0.00  0.00    +0.000 OA
ATOM      8  N   UNL     1       2.660   3.545  18.820  0.00  0.00    +0.000 N 
ATOM      9  C   UNL     1       2.040   2.685  19.843  0.00  0.00    +0.000 C 
ATOM     10  C   UNL     1       1.230   3.582  20.776  0.00  0.00    +0.000 C 
ATOM     11  C   UNL     1       1.651   4.944  20.324  0.00  0.00    +0.000 A 
ATOM     12  C   UNL     1       1.311   6.150  20.920  0.00  0.00    +0.000 A 
ATOM     13  C   UNL     1       1.739   7.343  20.324  0.00  0.00    +0.000 A 
ATOM     14  C   UNL     1       2.490   7.303  19.139  0.00  0.00    +0.000 A 
ATOM     15  C   UNL     1       2.835   6.070  18.558  0.00  0.00    +0.000 A 
ATOM     16  C   UNL     1       2.427   4.892  19.163  0.00  0.00    +0.000 A 
ENDBRANCH   1  13
BRANCH   3  17
ATOM     17  C   UNL     1       0.573  10.932  20.727  0.00  0.00    +0.000 A 
ATOM     18  C   UNL     1       1.217  12.116  20.358  0.00  0.00    +0.000 A 
ATOM     19  C   UNL     1       0.873  13.351  20.918  0.00  0.00    +0.000 A 
ATOM     20  C   UNL     1      -0.142  13.363  21.873  0.00  0.00    +0.000 A 
ATOM     21  N   UNL     1      -0.646  14.406  22.616  0.00  0.00    +0.000 N 
ATOM     22  C   UNL     1      -1.629  13.955  23.455  0.00  0.00    +0.000 A 
ATOM     23  C   UNL     1      -1.781  12.604  23.235  0.00  0.00    +0.000 A 
ATOM     24  C   UNL     1      -0.840  12.214  22.242  0.00  0.00    +0.000 A 
ATOM     25  C   UNL     1      -0.496  10.984  21.636  0.00  0.00    +0.000 A 
ATOM     26  H   UNL     1      -0.312  15.359  22.562  0.00  0.00    +0.000 HD
ENDBRANCH   3  17
TORSDOF 2
ENDMDL
MODEL 9
REMARK VINA RESULT:      -7.8      6.316      8.275
REMARK  Name = 
REMARK  3 active torsions:
REMARK  status: ('A' for Active; 'I' for Inactive)
REMARK    1  A    between atoms: C_1  and  C_2
REMARK    2  A    between atoms: C_9  and  C_10
REMARK    3  A    between atoms: N_12  and  C_13
REMARK                            x       y       z     vdW  Elec       q    Type
REMARK                         _______ _______ _______ _____ _____    ______ ____
ROOT
ATOM      1  C   UNL     1       8.151   8.470  18.271  0.00  0.00    +0.000 C 
ATOM      2  O   UNL     1       8.701   7.653  19.003  0.00  0.00    +0.000 OA
ATOM      3  N   UNL     1       7.139   8.211  17.359  0.00  0.00    +0.000 N 
ATOM      4  H   UNL     1       6.934   8.923  16.672  0.00  0.00    +0.000 HD
ENDROOT
BRANCH   1  13
ATOM      5  C   UNL     1       8.815  15.338  17.713  0.00  0.00    +0.000 C 
ATOM      6  C   UNL     1       9.984  15.009  18.597  0.00  0.00    +0.000 C 
ATOM      7  O   UNL     1      10.688  15.927  19.030  0.00  0.00    +0.000 OA
ATOM      8  N   UNL     1      10.233  13.697  18.934  0.00  0.00    +0.000 N 
ATOM      9  C   UNL     1      11.278  13.411  19.932  0.00  0.00    +0.000 C 
ATOM     10  C   UNL     1      11.390  11.894  20.064  0.00  0.00    +0.000 C 
ATOM     11  C   UNL     1      10.210  11.434  19.271  0.00  0.00    +0.000 A 
ATOM     12  C   UNL     1       9.752  10.129  19.156  0.00  0.00    +0.000 A 
ATOM     13  C   UNL     1       8.666   9.865  18.314  0.00  0.00    +0.000 A 
ATOM     14  C   UNL     1       8.066  10.911  17.596  0.00  0.00    +0.000 A 
ATOM     15  C   UNL     1       8.537  12.229  17.735  0.00  0.00    +0.000 A 
ATOM     16  C   UNL     1       9.598  12.489  18.586  0.00  0.00    +0.000 A 
ENDBRANCH   1  13
BRANCH   3  17
ATOM     17  C   UNL     1       6.554   6.939  17.136  0.00  0.00    +0.000 A 
ATOM     18  C   UNL     1       7.157   5.961  16.341  0.00  0.00    +0.000 A 
ATOM     19  C   UNL     1       6.525   4.745  16.057  0.00  0.00    +0.000 A 
ATOM     20  C   UNL     1       5.255   4.541  16.592  0.00  0.00    +0.000 A 
ATOM     21  N   UNL     1       4.390   3.482  16.439  0.00  0.00    +0.000 N 
ATOM     22  C   UNL     1       3.233   3.714  17.133  0.00  0.00    +0.000 A 
ATOM     23  C   UNL     1       3.359   4.931  17.764  0.00  0.00    +0.000 A 
ATOM     24  C   UNL     1       4.632   5.471  17.423  0.00  0.00    +0.000 A 
ATOM     25  C   UNL     1       5.306   6.676  17.724  0.00  0.00    +0.000 A 
ATOM     26  H   UNL     1       4.580   2.667  15.873  0.00  0.00    +0.000 HD
ENDBRANCH   3  17
TORSDOF 2
ENDMDL
