MODEL 1
REMARK VINA RESULT:     -10.0      0.000      0.000
REMARK  Name = 
REMARK  4 active torsions:
REMARK  status: ('A' for Active; 'I' for Inactive)
REMARK    1  A    between atoms: C_2  and  C_20
REMARK    2  A    between atoms: N_3  and  C_4
REMARK    3  A    between atoms: C_8  and  C_9
REMARK    4  A    between atoms: C_24  and  N_25
REMARK                            x       y       z     vdW  Elec       q    Type
REMARK                         _______ _______ _______ _____ _____    ______ ____
ROOT
ATOM      1  O   UNL     1       1.603   8.518  21.212  0.00  0.00    +0.000 OA
ATOM      2  C   UNL     1       1.695   8.054  20.084  0.00  0.00    +0.000 C 
ATOM      3  N   UNL     1       1.446   8.762  18.916  0.00  0.00    +0.000 N 
ATOM      4  H   UNL     1       1.382   8.250  18.045  0.00  0.00    +0.000 HD
ENDROOT
BRANCH   3   5
ATOM      5  C   UNL     1       1.038  10.125  18.900  0.00  0.00    +0.000 A 
ATOM      6  C   UNL     1       1.859  11.174  18.471  0.00  0.00    +0.000 A 
ATOM      7  C   UNL     1       1.457  12.505  18.580  0.00  0.00    +0.000 A 
ATOM      8  C   UNL     1       0.211  12.809  19.114  0.00  0.00    +0.000 A 
ATOM      9  C   UNL     1      -0.653  11.780  19.510  0.00  0.00    +0.000 A 
ATOM     10  C   UNL     1      -0.240  10.441  19.367  0.00  0.00    +0.000 A 
BRANCH   9  11
ATOM     11  C   UNL     1      -1.977  12.129  20.023  0.00  0.00    +0.000 A 
ATOM     12  N   UNL     1      -2.222  12.579  21.239  0.00  0.00    +0.000 NA
ATOM     13  N   UNL     1      -3.548  12.904  21.327  0.00  0.00    +0.000 NA
ATOM     14  C   UNL     1      -4.117  12.623  20.175  0.00  0.00    +0.000 A 
ATOM     15  N   UNL     1      -3.181  12.046  19.351  0.00  0.00    +0.000 N 
ATOM     16  C   UNL     1      -3.406  11.446  18.052  0.00  0.00    +0.000 C 
ATOM     17  C   UNL     1      -4.748  10.743  17.898  0.00  0.00    +0.000 C 
ATOM     18  C   UNL     1      -5.904  11.702  17.623  0.00  0.00    +0.000 C 
ATOM     19  C   UNL     1      -5.842  13.036  18.364  0.00  0.00    +0.000 C 
ATOM     20  C   UNL     1      -5.546  12.888  19.852  0.00  0.00    +0.000 C 
ENDBRANCH   9  11
ENDBRANCH   3   5
BRANCH   2  21
ATOM     21  C   UNL     1       2.066   6.620  20.000  0.00  0.00    +0.000 A 
ATOM     22  C   UNL     1       1.363   5.771  20.857  0.00  0.00    +0.000 A 
ATOM     23  C   UNL     1       1.814   4.486  21.111  0.00  0.00    +0.000 A 
ATOM     24  C   UNL     1       2.921   4.002  20.429  0.00  0.00    +0.000 A 
ATOM     25  C   UNL     1       3.532   4.764  19.426  0.00  0.00    +0.000 A 
ATOM     26  C   UNL     1       3.135   6.112  19.257  0.00  0.00    +0.000 A 
BRANCH  25  27
ATOM     27  N   UNL     1       4.632   4.246  18.698  0.00  0.00    +0.000 N 
ATOM     28  C   UNL     1       5.905   4.766  18.785  0.00  0.00    +0.000 C 
ATOM     29  O   UNL     1       6.532   5.251  19.703  0.00  0.00    +0.000 OA
ATOM     30  C   UNL     1       6.409   4.733  17.419  0.00  0.00    +0.000 A 
ATOM     31  C   UNL     1       7.186   5.707  16.828  0.00  0.00    +0.000 A 
ATOM     32  C   UNL     1       7.081   5.837  15.443  0.00  0.00    +0.000 A 
ATOM     33  C   UNL     1       6.265   4.966  14.687  0.00  0.00    +0.000 A 
ATOM     34  C   UNL     1       5.512   3.968  15.304  0.00  0.00    +0.000 A 
ATOM     35  C   UNL     1       5.578   3.911  16.681  0.00  0.00    +0.000 A 
ATOM     36  C   UNL     1       4.494   3.491  17.559  0.00  0.00    +0.000 C 
ATOM     37  O   UNL     1       3.627   2.704  17.226  0.00  0.00    +0.000 OA
ENDBRANCH  25  27
ENDBRANCH   2  21
TORSDOF 4
ENDMDL
MODEL 2
REMARK VINA RESULT:     -10.0      0.854      1.666
REMARK  Name = 
REMARK  4 active torsions:
REMARK  status: ('A' for Active; 'I' for Inactive)
REMARK    1  A    between atoms: C_2  and  C_20
REMARK    2  A    between atoms: N_3  and  C_4
REMARK    3  A    between atoms: C_8  and  C_9
REMARK    4  A    between atoms: C_24  and  N_25
REMARK                            x       y       z     vdW  Elec       q    Type
REMARK                         _______ _______ _______ _____ _____    ______ ____
ROOT
ATOM      1  O   UNL     1       1.302   8.439  21.039  0.00  0.00    +0.000 OA
ATOM      2  C   UNL     1       1.600   7.964  19.952  0.00  0.00    +0.000 C 
ATOM      3  N   UNL     1       1.492   8.635  18.741  0.00  0.00    +0.000 N 
ATOM      4  H   UNL     1       1.600   8.106  17.884  0.00  0.00    +0.000 HD
ENDROOT
BRANCH   3   5
ATOM      5  C   UNL     1       1.005   9.967  18.626  0.00  0.00    +0.000 A 
ATOM      6  C   UNL     1       1.819  11.101  18.727  0.00  0.00    +0.000 A 
ATOM      7  C   UNL     1       1.280  12.387  18.721  0.00  0.00    +0.000 A 
ATOM      8  C   UNL     1      -0.093  12.561  18.601  0.00  0.00    +0.000 A 
ATOM      9  C   UNL     1      -0.931  11.448  18.451  0.00  0.00    +0.000 A 
ATOM     10  C   UNL     1      -0.365  10.158  18.432  0.00  0.00    +0.000 A 
BRANCH   9  11
ATOM     11  C   UNL     1      -2.367  11.664  18.277  0.00  0.00    +0.000 A 
ATOM     12  N   UNL     1      -3.035  11.440  17.161  0.00  0.00    +0.000 NA
ATOM     13  N   UNL     1      -4.366  11.643  17.400  0.00  0.00    +0.000 NA
ATOM     14  C   UNL     1      -4.506  12.021  18.652  0.00  0.00    +0.000 A 
ATOM     15  N   UNL     1      -3.259  12.136  19.218  0.00  0.00    +0.000 N 
ATOM     16  C   UNL     1      -2.935  12.669  20.526  0.00  0.00    +0.000 C 
ATOM     17  C   UNL     1      -3.832  13.808  20.991  0.00  0.00    +0.000 C 
ATOM     18  C   UNL     1      -5.171  13.333  21.549  0.00  0.00    +0.000 C 
ATOM     19  C   UNL     1      -5.796  12.137  20.830  0.00  0.00    +0.000 C 
ATOM     20  C   UNL     1      -5.813  12.286  19.314  0.00  0.00    +0.000 C 
ENDBRANCH   9  11
ENDBRANCH   3   5
BRANCH   2  21
ATOM     21  C   UNL     1       2.071   6.557  19.964  0.00  0.00    +0.000 A 
ATOM     22  C   UNL     1       1.469   5.735  20.918  0.00  0.00    +0.000 A 
ATOM     23  C   UNL     1       2.022   4.510  21.252  0.00  0.00    +0.000 A 
ATOM     24  C   UNL     1       3.133   4.050  20.559  0.00  0.00    +0.000 A 
ATOM     25  C   UNL     1       3.644   4.767  19.471  0.00  0.00    +0.000 A 
ATOM     26  C   UNL     1       3.143   6.066  19.215  0.00  0.00    +0.000 A 
BRANCH  25  27
ATOM     27  N   UNL     1       4.749   4.269  18.736  0.00  0.00    +0.000 N 
ATOM     28  C   UNL     1       6.003   4.838  18.782  0.00  0.00    +0.000 C 
ATOM     29  O   UNL     1       6.629   5.373  19.673  0.00  0.00    +0.000 OA
ATOM     30  C   UNL     1       6.481   4.784  17.407  0.00  0.00    +0.000 A 
ATOM     31  C   UNL     1       7.209   5.769  16.773  0.00  0.00    +0.000 A 
ATOM     32  C   UNL     1       7.072   5.854  15.388  0.00  0.00    +0.000 A 
ATOM     33  C   UNL     1       6.275   4.932  14.673  0.00  0.00    +0.000 A 
ATOM     34  C   UNL     1       5.572   3.926  15.334  0.00  0.00    +0.000 A 
ATOM     35  C   UNL     1       5.667   3.911  16.710  0.00  0.00    +0.000 A 
ATOM     36  C   UNL     1       4.617   3.477  17.621  0.00  0.00    +0.000 C 
ATOM     37  O   UNL     1       3.773   2.650  17.329  0.00  0.00    +0.000 OA
ENDBRANCH  25  27
ENDBRANCH   2  21
TORSDOF 4
ENDMDL
MODEL 3
REMARK VINA RESULT:      -9.9      1.260      2.208
REMARK  Name = 
REMARK  4 active torsions:
REMARK  status: ('A' for Active; 'I' for Inactive)
REMARK    1  A    between atoms: C_2  and  C_20
REMARK    2  A    between atoms: N_3  and  C_4
REMARK    3  A    between atoms: C_8  and  C_9
REMARK    4  A    between atoms: C_24  and  N_25
REMARK                            x       y       z     vdW  Elec       q    Type
REMARK                         _______ _______ _______ _____ _____    ______ ____
ROOT
ATOM      1  O   UNL     1       1.690   8.595  21.178  0.00  0.00    +0.000 OA
ATOM      2  C   UNL     1       1.733   8.108  20.057  0.00  0.00    +0.000 C 
ATOM      3  N   UNL     1       1.446   8.797  18.886  0.00  0.00    +0.000 N 
ATOM      4  H   UNL     1       1.343   8.268  18.028  0.00  0.00    +0.000 HD
ENDROOT
BRANCH   3   5
ATOM      5  C   UNL     1       1.053  10.165  18.859  0.00  0.00    +0.000 A 
ATOM      6  C   UNL     1       1.903  11.206  18.472  0.00  0.00    +0.000 A 
ATOM      7  C   UNL     1       1.511  12.541  18.570  0.00  0.00    +0.000 A 
ATOM      8  C   UNL     1       0.245  12.856  19.050  0.00  0.00    +0.000 A 
ATOM      9  C   UNL     1      -0.647  11.834  19.400  0.00  0.00    +0.000 A 
ATOM     10  C   UNL     1      -0.241  10.491  19.269  0.00  0.00    +0.000 A 
BRANCH   9  11
ATOM     11  C   UNL     1      -1.989  12.194  19.855  0.00  0.00    +0.000 A 
ATOM     12  N   UNL     1      -3.076  12.154  19.108  0.00  0.00    +0.000 NA
ATOM     13  N   UNL     1      -4.158  12.447  19.892  0.00  0.00    +0.000 NA
ATOM     14  C   UNL     1      -3.727  12.696  21.110  0.00  0.00    +0.000 A 
ATOM     15  N   UNL     1      -2.354  12.637  21.111  0.00  0.00    +0.000 N 
ATOM     16  C   UNL     1      -1.461  12.992  22.196  0.00  0.00    +0.000 C 
ATOM     17  C   UNL     1      -1.939  14.148  23.063  0.00  0.00    +0.000 C 
ATOM     18  C   UNL     1      -2.983  13.735  24.097  0.00  0.00    +0.000 C 
ATOM     19  C   UNL     1      -3.992  12.686  23.630  0.00  0.00    +0.000 C 
ATOM     20  C   UNL     1      -4.606  13.001  22.272  0.00  0.00    +0.000 C 
ENDBRANCH   9  11
ENDBRANCH   3   5
BRANCH   2  21
ATOM     21  C   UNL     1       2.084   6.669  19.987  0.00  0.00    +0.000 A 
ATOM     22  C   UNL     1       1.375   5.839  20.857  0.00  0.00    +0.000 A 
ATOM     23  C   UNL     1       1.810   4.551  21.124  0.00  0.00    +0.000 A 
ATOM     24  C   UNL     1       2.907   4.045  20.441  0.00  0.00    +0.000 A 
ATOM     25  C   UNL     1       3.522   4.787  19.426  0.00  0.00    +0.000 A 
ATOM     26  C   UNL     1       3.143   6.138  19.245  0.00  0.00    +0.000 A 
BRANCH  25  27
ATOM     27  N   UNL     1       4.612   4.246  18.699  0.00  0.00    +0.000 N 
ATOM     28  C   UNL     1       5.894   4.744  18.782  0.00  0.00    +0.000 C 
ATOM     29  O   UNL     1       6.531   5.221  19.697  0.00  0.00    +0.000 OA
ATOM     30  C   UNL     1       6.395   4.696  17.414  0.00  0.00    +0.000 A 
ATOM     31  C   UNL     1       7.188   5.654  16.819  0.00  0.00    +0.000 A 
ATOM     32  C   UNL     1       7.083   5.780  15.433  0.00  0.00    +0.000 A 
ATOM     33  C   UNL     1       6.250   4.921  14.682  0.00  0.00    +0.000 A 
ATOM     34  C   UNL     1       5.480   3.940  15.304  0.00  0.00    +0.000 A 
ATOM     35  C   UNL     1       5.547   3.887  16.682  0.00  0.00    +0.000 A 
ATOM     36  C   UNL     1       4.458   3.490  17.563  0.00  0.00    +0.000 C 
ATOM     37  O   UNL     1       3.576   2.718  17.234  0.00  0.00    +0.000 OA
ENDBRANCH  25  27
ENDBRANCH   2  21
TORSDOF 4
ENDMDL
MODEL 4
REMARK VINA RESULT:      -9.7      2.924     10.862
REMARK  Name = 
REMARK  4 active torsions:
REMARK  status: ('A' for Active; 'I' for Inactive)
REMARK    1  A    between atoms: C_2  and  C_20
REMARK    2  A    between atoms: N_3  and  C_4
REMARK    3  A    between atoms: C_8  and  C_9
REMARK    4  A    between atoms: C_24  and  N_25
REMARK                            x       y       z     vdW  Elec       q    Type
REMARK                         _______ _______ _______ _____ _____    ______ ____
ROOT
ATOM      1  O   UNL     1       1.331   8.631  19.412  0.00  0.00    +0.000 OA
ATOM      2  C   UNL     1       1.153   8.454  20.609  0.00  0.00    +0.000 C 
ATOM      3  N   UNL     1       1.374   7.254  21.271  0.00  0.00    +0.000 N 
ATOM      4  H   UNL     1       1.038   7.158  22.222  0.00  0.00    +0.000 HD
ENDROOT
BRANCH   3   5
ATOM      5  C   UNL     1       1.828   6.073  20.620  0.00  0.00    +0.000 A 
ATOM      6  C   UNL     1       1.069   4.902  20.520  0.00  0.00    +0.000 A 
ATOM      7  C   UNL     1       1.599   3.734  19.973  0.00  0.00    +0.000 A 
ATOM      8  C   UNL     1       2.906   3.723  19.501  0.00  0.00    +0.000 A 
ATOM      9  C   UNL     1       3.677   4.892  19.543  0.00  0.00    +0.000 A 
ATOM     10  C   UNL     1       3.115   6.069  20.075  0.00  0.00    +0.000 A 
BRANCH   9  11
ATOM     11  C   UNL     1       5.032   4.864  18.994  0.00  0.00    +0.000 A 
ATOM     12  N   UNL     1       6.136   4.771  19.712  0.00  0.00    +0.000 NA
ATOM     13  N   UNL     1       7.202   4.659  18.863  0.00  0.00    +0.000 NA
ATOM     14  C   UNL     1       6.752   4.713  17.628  0.00  0.00    +0.000 A 
ATOM     15  N   UNL     1       5.395   4.934  17.665  0.00  0.00    +0.000 N 
ATOM     16  C   UNL     1       4.521   5.212  16.543  0.00  0.00    +0.000 C 
ATOM     17  C   UNL     1       5.157   6.027  15.425  0.00  0.00    +0.000 C 
ATOM     18  C   UNL     1       6.035   5.192  14.495  0.00  0.00    +0.000 C 
ATOM     19  C   UNL     1       6.850   4.091  15.173  0.00  0.00    +0.000 C 
ATOM     20  C   UNL     1       7.598   4.569  16.412  0.00  0.00    +0.000 C 
ENDBRANCH   9  11
ENDBRANCH   3   5
BRANCH   2  21
ATOM     21  C   UNL     1       0.629   9.617  21.366  0.00  0.00    +0.000 A 
ATOM     22  C   UNL     1      -0.004   9.307  22.571  0.00  0.00    +0.000 A 
ATOM     23  C   UNL     1      -0.804  10.238  23.214  0.00  0.00    +0.000 A 
ATOM     24  C   UNL     1      -0.896  11.526  22.706  0.00  0.00    +0.000 A 
ATOM     25  C   UNL     1      -0.124  11.918  21.607  0.00  0.00    +0.000 A 
ATOM     26  C   UNL     1       0.597  10.932  20.894  0.00  0.00    +0.000 A 
BRANCH  25  27
ATOM     27  N   UNL     1      -0.186  13.249  21.122  0.00  0.00    +0.000 N 
ATOM     28  C   UNL     1       0.522  14.289  21.683  0.00  0.00    +0.000 C 
ATOM     29  O   UNL     1       1.622  14.353  22.192  0.00  0.00    +0.000 OA
ATOM     30  C   UNL     1      -0.401  15.416  21.661  0.00  0.00    +0.000 A 
ATOM     31  C   UNL     1      -0.538  16.359  22.657  0.00  0.00    +0.000 A 
ATOM     32  C   UNL     1      -1.788  16.965  22.778  0.00  0.00    +0.000 A 
ATOM     33  C   UNL     1      -2.836  16.666  21.878  0.00  0.00    +0.000 A 
ATOM     34  C   UNL     1      -2.664  15.730  20.859  0.00  0.00    +0.000 A 
ATOM     35  C   UNL     1      -1.442  15.092  20.810  0.00  0.00    +0.000 A 
ATOM     36  C   UNL     1      -1.224  13.725  20.359  0.00  0.00    +0.000 C 
ATOM     37  O   UNL     1      -1.934  13.165  19.543  0.00  0.00    +0.000 OA
ENDBRANCH  25  27
ENDBRANCH   2  21
TORSDOF 4
ENDMDL
MODEL 5
REMARK VINA RESULT:      -9.7      3.194     10.262
REMARK  Name = 
REMARK  4 active torsions:
REMARK  status: ('A' for Active; 'I' for Inactive)
REMARK    1  A    between atoms: C_2  and  C_20
REMARK    2  A    between atoms: N_3  and  C_4
REMARK    3  A    between atoms: C_8  and  C_9
REMARK    4  A    between atoms: C_24  and  N_25
REMARK                            x       y       z     vdW  Elec       q    Type
REMARK                         _______ _______ _______ _____ _____    ______ ____
ROOT
ATOM      1  O   UNL     1       1.543   8.643  19.223  0.00  0.00    +0.000 OA
ATOM      2  C   UNL     1       1.304   8.522  20.416  0.00  0.00    +0.000 C 
ATOM      3  N   UNL     1       1.462   7.346  21.138  0.00  0.00    +0.000 N 
ATOM      4  H   UNL     1       1.079   7.299  22.074  0.00  0.00    +0.000 HD
ENDROOT
BRANCH   3   5
ATOM      5  C   UNL     1       1.915   6.128  20.558  0.00  0.00    +0.000 A 
ATOM      6  C   UNL     1       1.169   4.944  20.561  0.00  0.00    +0.000 A 
ATOM      7  C   UNL     1       1.701   3.747  20.083  0.00  0.00    +0.000 A 
ATOM      8  C   UNL     1       2.995   3.718  19.578  0.00  0.00    +0.000 A 
ATOM      9  C   UNL     1       3.751   4.896  19.517  0.00  0.00    +0.000 A 
ATOM     10  C   UNL     1       3.187   6.100  19.981  0.00  0.00    +0.000 A 
BRANCH   9  11
ATOM     11  C   UNL     1       5.091   4.845  18.936  0.00  0.00    +0.000 A 
ATOM     12  N   UNL     1       6.211   4.728  19.626  0.00  0.00    +0.000 NA
ATOM     13  N   UNL     1       7.253   4.600  18.750  0.00  0.00    +0.000 NA
ATOM     14  C   UNL     1       6.774   4.669  17.527  0.00  0.00    +0.000 A 
ATOM     15  N   UNL     1       5.424   4.915  17.598  0.00  0.00    +0.000 N 
ATOM     16  C   UNL     1       4.528   5.215  16.499  0.00  0.00    +0.000 C 
ATOM     17  C   UNL     1       5.152   6.023  15.370  0.00  0.00    +0.000 C 
ATOM     18  C   UNL     1       5.991   5.177  14.415  0.00  0.00    +0.000 C 
ATOM     19  C   UNL     1       6.802   4.058  15.068  0.00  0.00    +0.000 C 
ATOM     20  C   UNL     1       7.588   4.515  16.290  0.00  0.00    +0.000 C 
ENDBRANCH   9  11
ENDBRANCH   3   5
BRANCH   2  21
ATOM     21  C   UNL     1       0.776   9.728  21.099  0.00  0.00    +0.000 A 
ATOM     22  C   UNL     1      -0.054   9.479  22.193  0.00  0.00    +0.000 A 
ATOM     23  C   UNL     1      -0.857  10.478  22.719  0.00  0.00    +0.000 A 
ATOM     24  C   UNL     1      -0.761  11.767  22.216  0.00  0.00    +0.000 A 
ATOM     25  C   UNL     1       0.198  12.087  21.247  0.00  0.00    +0.000 A 
ATOM     26  C   UNL     1       0.929  11.039  20.640  0.00  0.00    +0.000 A 
BRANCH  25  27
ATOM     27  N   UNL     1       0.324  13.417  20.771  0.00  0.00    +0.000 N 
ATOM     28  C   UNL     1       0.358  13.738  19.432  0.00  0.00    +0.000 C 
ATOM     29  O   UNL     1      -0.202  13.271  18.462  0.00  0.00    +0.000 OA
ATOM     30  C   UNL     1       1.367  14.784  19.330  0.00  0.00    +0.000 A 
ATOM     31  C   UNL     1       2.281  14.917  18.308  0.00  0.00    +0.000 A 
ATOM     32  C   UNL     1       3.490  15.537  18.626  0.00  0.00    +0.000 A 
ATOM     33  C   UNL     1       3.728  16.055  19.918  0.00  0.00    +0.000 A 
ATOM     34  C   UNL     1       2.775  15.934  20.929  0.00  0.00    +0.000 A 
ATOM     35  C   UNL     1       1.620  15.251  20.606  0.00  0.00    +0.000 A 
ATOM     36  C   UNL     1       0.836  14.442  21.529  0.00  0.00    +0.000 C 
ATOM     37  O   UNL     1       0.787  14.647  22.728  0.00  0.00    +0.000 OA
ENDBRANCH  25  27
ENDBRANCH   2  21
TORSDOF 4
ENDMDL
MODEL 6
REMARK VINA RESULT:      -9.7      2.033      4.135
REMARK  Name = 
REMARK  4 active torsions:
REMARK  status: ('A' for Active; 'I' for Inactive)
REMARK    1  A    between atoms: C_2  and  C_20
REMARK    2  A    between atoms: N_3  and  C_4
REMARK    3  A    between atoms: C_8  and  C_9
REMARK    4  A    between atoms: C_24  and  N_25
REMARK                            x       y       z     vdW  Elec       q    Type
REMARK                         _______ _______ _______ _____ _____    ______ ____
ROOT
ATOM      1  O   UNL     1       2.475  10.112  17.394  0.00  0.00    +0.000 OA
ATOM      2  C   UNL     1       2.216   9.111  18.045  0.00  0.00    +0.000 C 
ATOM      3  N   UNL     1       1.206   9.027  18.994  0.00  0.00    +0.000 N 
ATOM      4  H   UNL     1       1.178   8.215  19.600  0.00  0.00    +0.000 HD
ENDROOT
BRANCH   3   5
ATOM      5  C   UNL     1       0.353  10.116  19.328  0.00  0.00    +0.000 A 
ATOM      6  C   UNL     1       0.603  10.998  20.386  0.00  0.00    +0.000 A 
ATOM      7  C   UNL     1      -0.318  11.981  20.747  0.00  0.00    +0.000 A 
ATOM      8  C   UNL     1      -1.508  12.106  20.040  0.00  0.00    +0.000 A 
ATOM      9  C   UNL     1      -1.766  11.270  18.946  0.00  0.00    +0.000 A 
ATOM     10  C   UNL     1      -0.812  10.300  18.581  0.00  0.00    +0.000 A 
BRANCH   9  11
ATOM     11  C   UNL     1      -3.004  11.457  18.192  0.00  0.00    +0.000 A 
ATOM     12  N   UNL     1      -3.139  11.246  16.896  0.00  0.00    +0.000 NA
ATOM     13  N   UNL     1      -4.454  11.413  16.559  0.00  0.00    +0.000 NA
ATOM     14  C   UNL     1      -5.115  11.757  17.643  0.00  0.00    +0.000 A 
ATOM     15  N   UNL     1      -4.223  11.886  18.680  0.00  0.00    +0.000 N 
ATOM     16  C   UNL     1      -4.491  12.393  20.010  0.00  0.00    +0.000 C 
ATOM     17  C   UNL     1      -5.534  13.500  20.073  0.00  0.00    +0.000 C 
ATOM     18  C   UNL     1      -6.969  12.981  20.014  0.00  0.00    +0.000 C 
ATOM     19  C   UNL     1      -7.199  11.790  19.085  0.00  0.00    +0.000 C 
ATOM     20  C   UNL     1      -6.587  11.975  17.702  0.00  0.00    +0.000 C 
ENDBRANCH   9  11
ENDBRANCH   3   5
BRANCH   2  21
ATOM     21  C   UNL     1       3.086   7.934  17.803  0.00  0.00    +0.000 A 
ATOM     22  C   UNL     1       4.169   8.159  16.951  0.00  0.00    +0.000 A 
ATOM     23  C   UNL     1       4.866   7.100  16.394  0.00  0.00    +0.000 A 
ATOM     24  C   UNL     1       4.549   5.801  16.766  0.00  0.00    +0.000 A 
ATOM     25  C   UNL     1       3.596   5.555  17.760  0.00  0.00    +0.000 A 
ATOM     26  C   UNL     1       2.813   6.634  18.236  0.00  0.00    +0.000 A 
BRANCH  25  27
ATOM     27  N   UNL     1       3.310   4.229  18.171  0.00  0.00    +0.000 N 
ATOM     28  C   UNL     1       2.051   3.673  18.101  0.00  0.00    +0.000 C 
ATOM     29  O   UNL     1       1.143   3.795  17.306  0.00  0.00    +0.000 OA
ATOM     30  C   UNL     1       1.922   2.900  19.329  0.00  0.00    +0.000 A 
ATOM     31  C   UNL     1       0.779   2.795  20.093  0.00  0.00    +0.000 A 
ATOM     32  C   UNL     1       0.957   2.556  21.456  0.00  0.00    +0.000 A 
ATOM     33  C   UNL     1       2.246   2.370  22.003  0.00  0.00    +0.000 A 
ATOM     34  C   UNL     1       3.386   2.451  21.205  0.00  0.00    +0.000 A 
ATOM     35  C   UNL     1       3.184   2.762  19.876  0.00  0.00    +0.000 A 
ATOM     36  C   UNL     1       4.104   3.521  19.040  0.00  0.00    +0.000 C 
ATOM     37  O   UNL     1       5.308   3.547  19.218  0.00  0.00    +0.000 OA
ENDBRANCH  25  27
ENDBRANCH   2  21
TORSDOF 4
ENDMDL
MODEL 7
REMARK VINA RESULT:      -9.6      2.232      3.697
REMARK  Name = 
REMARK  4 active torsions:
REMARK  status: ('A' for Active; 'I' for Inactive)
REMARK    1  A    between atoms: C_2  and  C_20
REMARK    2  A    between atoms: N_3  and  C_4
REMARK    3  A    between atoms: C_8  and  C_9
REMARK    4  A    between atoms: C_24  and  N_25
REMARK                            x       y       z     vdW  Elec       q    Type
REMARK                         _______ _______ _______ _____ _____    ______ ____
ROOT
ATOM      1  O   UNL     1      -0.256   9.518  21.634  0.00  0.00    +0.000 OA
ATOM      2  C   UNL     1       0.340  10.107  20.744  0.00  0.00    +0.000 C 
ATOM      3  N   UNL     1       0.203  11.460  20.463  0.00  0.00    +0.000 N 
ATOM      4  H   UNL     1       0.605  11.819  19.605  0.00  0.00    +0.000 HD
ENDROOT
BRANCH   3   5
ATOM      5  C   UNL     1      -0.669  12.324  21.184  0.00  0.00    +0.000 A 
ATOM      6  C   UNL     1      -0.222  13.372  21.996  0.00  0.00    +0.000 A 
ATOM      7  C   UNL     1      -1.107  14.119  22.773  0.00  0.00    +0.000 A 
ATOM      8  C   UNL     1      -2.467  13.835  22.737  0.00  0.00    +0.000 A 
ATOM      9  C   UNL     1      -2.951  12.824  21.898  0.00  0.00    +0.000 A 
ATOM     10  C   UNL     1      -2.044  12.098  21.102  0.00  0.00    +0.000 A 
BRANCH   9  11
ATOM     11  C   UNL     1      -4.392  12.581  21.844  0.00  0.00    +0.000 A 
ATOM     12  N   UNL     1      -5.181  12.477  22.898  0.00  0.00    +0.000 NA
ATOM     13  N   UNL     1      -6.474  12.365  22.467  0.00  0.00    +0.000 NA
ATOM     14  C   UNL     1      -6.471  12.369  21.152  0.00  0.00    +0.000 A 
ATOM     15  N   UNL     1      -5.168  12.411  20.715  0.00  0.00    +0.000 N 
ATOM     16  C   UNL     1      -4.695  12.280  19.352  0.00  0.00    +0.000 C 
ATOM     17  C   UNL     1      -5.511  11.333  18.482  0.00  0.00    +0.000 C 
ATOM     18  C   UNL     1      -6.794  11.963  17.944  0.00  0.00    +0.000 C 
ATOM     19  C   UNL     1      -7.518  12.904  18.907  0.00  0.00    +0.000 C 
ATOM     20  C   UNL     1      -7.694  12.321  20.303  0.00  0.00    +0.000 C 
ENDBRANCH   9  11
ENDBRANCH   3   5
BRANCH   2  21
ATOM     21  C   UNL     1       1.237   9.277  19.902  0.00  0.00    +0.000 A 
ATOM     22  C   UNL     1       1.415   9.730  18.594  0.00  0.00    +0.000 A 
ATOM     23  C   UNL     1       1.956   8.904  17.623  0.00  0.00    +0.000 A 
ATOM     24  C   UNL     1       2.419   7.645  17.977  0.00  0.00    +0.000 A 
ATOM     25  C   UNL     1       2.427   7.237  19.316  0.00  0.00    +0.000 A 
ATOM     26  C   UNL     1       1.769   8.041  20.277  0.00  0.00    +0.000 A 
BRANCH  25  27
ATOM     27  N   UNL     1       2.946   5.969  19.679  0.00  0.00    +0.000 N 
ATOM     28  C   UNL     1       4.034   5.395  19.060  0.00  0.00    +0.000 C 
ATOM     29  O   UNL     1       5.054   5.860  18.596  0.00  0.00    +0.000 OA
ATOM     30  C   UNL     1       3.688   3.984  18.943  0.00  0.00    +0.000 A 
ATOM     31  C   UNL     1       3.974   3.177  17.863  0.00  0.00    +0.000 A 
ATOM     32  C   UNL     1       3.108   2.107  17.635  0.00  0.00    +0.000 A 
ATOM     33  C   UNL     1       2.034   1.836  18.511  0.00  0.00    +0.000 A 
ATOM     34  C   UNL     1       1.783   2.650  19.615  0.00  0.00    +0.000 A 
ATOM     35  C   UNL     1       2.609   3.744  19.773  0.00  0.00    +0.000 A 
ATOM     36  C   UNL     1       2.214   5.020  20.352  0.00  0.00    +0.000 C 
ATOM     37  O   UNL     1       1.331   5.137  21.182  0.00  0.00    +0.000 OA
ENDBRANCH  25  27
ENDBRANCH   2  21
TORSDOF 4
ENDMDL
MODEL 8
REMARK VINA RESULT:      -9.6      1.364      2.040
REMARK  Name = 
REMARK  4 active torsions:
REMARK  status: ('A' for Active; 'I' for Inactive)
REMARK    1  A    between atoms: C_2  and  C_20
REMARK    2  A    between atoms: N_3  and  C_4
REMARK    3  A    between atoms: C_8  and  C_9
REMARK    4  A    between atoms: C_24  and  N_25
REMARK                            x       y       z     vdW  Elec       q    Type
REMARK                         _______ _______ _______ _____ _____    ______ ____
ROOT
ATOM      1  O   UNL     1       2.220   8.842  17.357  0.00  0.00    +0.000 OA
ATOM      2  C   UNL     1       1.795   8.393  18.412  0.00  0.00    +0.000 C 
ATOM      3  N   UNL     1       0.873   9.035  19.228  0.00  0.00    +0.000 N 
ATOM      4  H   UNL     1       0.712   8.666  20.158  0.00  0.00    +0.000 HD
ENDROOT
BRANCH   3   5
ATOM      5  C   UNL     1       0.319  10.311  18.929  0.00  0.00    +0.000 A 
ATOM      6  C   UNL     1       1.015  11.514  19.090  0.00  0.00    +0.000 A 
ATOM      7  C   UNL     1       0.394  12.747  18.893  0.00  0.00    +0.000 A 
ATOM      8  C   UNL     1      -0.942  12.795  18.517  0.00  0.00    +0.000 A 
ATOM      9  C   UNL     1      -1.654  11.608  18.301  0.00  0.00    +0.000 A 
ATOM     10  C   UNL     1      -1.002  10.372  18.480  0.00  0.00    +0.000 A 
BRANCH   9  11
ATOM     11  C   UNL     1      -3.045  11.690  17.857  0.00  0.00    +0.000 A 
ATOM     12  N   UNL     1      -3.455  11.503  16.616  0.00  0.00    +0.000 NA
ATOM     13  N   UNL     1      -4.822  11.545  16.596  0.00  0.00    +0.000 NA
ATOM     14  C   UNL     1      -5.244  11.788  17.818  0.00  0.00    +0.000 A 
ATOM     15  N   UNL     1      -4.152  11.978  18.631  0.00  0.00    +0.000 N 
ATOM     16  C   UNL     1      -4.152  12.416  20.012  0.00  0.00    +0.000 C 
ATOM     17  C   UNL     1      -5.250  13.408  20.366  0.00  0.00    +0.000 C 
ATOM     18  C   UNL     1      -6.606  12.747  20.608  0.00  0.00    +0.000 C 
ATOM     19  C   UNL     1      -6.933  11.566  19.695  0.00  0.00    +0.000 C 
ATOM     20  C   UNL     1      -6.676  11.853  18.220  0.00  0.00    +0.000 C 
ENDBRANCH   9  11
ENDBRANCH   3   5
BRANCH   2  21
ATOM     21  C   UNL     1       2.354   7.086  18.835  0.00  0.00    +0.000 A 
ATOM     22  C   UNL     1       1.910   6.619  20.073  0.00  0.00    +0.000 A 
ATOM     23  C   UNL     1       2.573   5.593  20.726  0.00  0.00    +0.000 A 
ATOM     24  C   UNL     1       3.631   4.954  20.097  0.00  0.00    +0.000 A 
ATOM     25  C   UNL     1       3.978   5.274  18.779  0.00  0.00    +0.000 A 
ATOM     26  C   UNL     1       3.371   6.396  18.168  0.00  0.00    +0.000 A 
BRANCH  25  27
ATOM     27  N   UNL     1       5.029   4.584  18.124  0.00  0.00    +0.000 N 
ATOM     28  C   UNL     1       6.289   5.116  17.955  0.00  0.00    +0.000 C 
ATOM     29  O   UNL     1       6.976   5.835  18.649  0.00  0.00    +0.000 OA
ATOM     30  C   UNL     1       6.678   4.717  16.609  0.00  0.00    +0.000 A 
ATOM     31  C   UNL     1       7.374   5.499  15.712  0.00  0.00    +0.000 A 
ATOM     32  C   UNL     1       7.149   5.247  14.358  0.00  0.00    +0.000 A 
ATOM     33  C   UNL     1       6.300   4.200  13.939  0.00  0.00    +0.000 A 
ATOM     34  C   UNL     1       5.630   3.402  14.866  0.00  0.00    +0.000 A 
ATOM     35  C   UNL     1       5.812   3.721  16.196  0.00  0.00    +0.000 A 
ATOM     36  C   UNL     1       4.818   3.548  17.247  0.00  0.00    +0.000 C 
ATOM     37  O   UNL     1       3.950   2.696  17.216  0.00  0.00    +0.000 OA
ENDBRANCH  25  27
ENDBRANCH   2  21
TORSDOF 4
ENDMDL
MODEL 9
REMARK VINA RESULT:      -9.6      2.878     10.450
REMARK  Name = 
REMARK  4 active torsions:
REMARK  status: ('A' for Active; 'I' for Inactive)
REMARK    1  A    between atoms: C_2  and  C_20
REMARK    2  A    between atoms: N_3  and  C_4
REMARK    3  A    between atoms: C_8  and  C_9
REMARK    4  A    between atoms: C_24  and  N_25
REMARK                            x       y       z     vdW  Elec       q    Type
REMARK                         _______ _______ _______ _____ _____    ______ ____
ROOT
ATOM      1  O   UNL     1       1.533   8.691  17.736  0.00  0.00    +0.000 OA
ATOM      2  C   UNL     1       1.240   9.098  18.851  0.00  0.00    +0.000 C 
ATOM      3  N   UNL     1       1.405   8.374  20.025  0.00  0.00    +0.000 N 
ATOM      4  H   UNL     1       0.978   8.726  20.873  0.00  0.00    +0.000 HD
ENDROOT
BRANCH   3   5
ATOM      5  C   UNL     1       1.933   7.053  20.061  0.00  0.00    +0.000 A 
ATOM      6  C   UNL     1       1.282   5.977  20.674  0.00  0.00    +0.000 A 
ATOM      7  C   UNL     1       1.890   4.726  20.784  0.00  0.00    +0.000 A 
ATOM      8  C   UNL     1       3.163   4.528  20.265  0.00  0.00    +0.000 A 
ATOM      9  C   UNL     1       3.822   5.573  19.603  0.00  0.00    +0.000 A 
ATOM     10  C   UNL     1       3.181   6.821  19.480  0.00  0.00    +0.000 A 
BRANCH   9  11
ATOM     11  C   UNL     1       5.141   5.321  19.025  0.00  0.00    +0.000 A 
ATOM     12  N   UNL     1       6.258   5.194  19.718  0.00  0.00    +0.000 NA
ATOM     13  N   UNL     1       7.268   4.855  18.860  0.00  0.00    +0.000 NA
ATOM     14  C   UNL     1       6.774   4.806  17.642  0.00  0.00    +0.000 A 
ATOM     15  N   UNL     1       5.453   5.183  17.688  0.00  0.00    +0.000 N 
ATOM     16  C   UNL     1       4.568   5.416  16.564  0.00  0.00    +0.000 C 
ATOM     17  C   UNL     1       5.241   6.005  15.333  0.00  0.00    +0.000 C 
ATOM     18  C   UNL     1       5.982   4.966  14.495  0.00  0.00    +0.000 C 
ATOM     19  C   UNL     1       6.700   3.873  15.287  0.00  0.00    +0.000 C 
ATOM     20  C   UNL     1       7.547   4.414  16.431  0.00  0.00    +0.000 C 
ENDBRANCH   9  11
ENDBRANCH   3   5
BRANCH   2  21
ATOM     21  C   UNL     1       0.633  10.451  18.910  0.00  0.00    +0.000 A 
ATOM     22  C   UNL     1      -0.712  10.517  18.543  0.00  0.00    +0.000 A 
ATOM     23  C   UNL     1      -1.310  11.732  18.250  0.00  0.00    +0.000 A 
ATOM     24  C   UNL     1      -0.591  12.906  18.421  0.00  0.00    +0.000 A 
ATOM     25  C   UNL     1       0.698  12.883  18.967  0.00  0.00    +0.000 A 
ATOM     26  C   UNL     1       1.336  11.634  19.154  0.00  0.00    +0.000 A 
BRANCH  25  27
ATOM     27  N   UNL     1       1.410  14.089  19.185  0.00  0.00    +0.000 N 
ATOM     28  C   UNL     1       0.825  15.228  19.692  0.00  0.00    +0.000 C 
ATOM     29  O   UNL     1      -0.048  15.406  20.516  0.00  0.00    +0.000 OA
ATOM     30  C   UNL     1       1.415  16.317  18.924  0.00  0.00    +0.000 A 
ATOM     31  C   UNL     1       0.746  17.438  18.481  0.00  0.00    +0.000 A 
ATOM     32  C   UNL     1       1.236  18.041  17.323  0.00  0.00    +0.000 A 
ATOM     33  C   UNL     1       2.397  17.557  16.681  0.00  0.00    +0.000 A 
ATOM     34  C   UNL     1       3.074  16.439  17.165  0.00  0.00    +0.000 A 
ATOM     35  C   UNL     1       2.525  15.818  18.269  0.00  0.00    +0.000 A 
ATOM     36  C   UNL     1       2.590  14.391  18.551  0.00  0.00    +0.000 C 
ATOM     37  O   UNL     1       3.496  13.672  18.170  0.00  0.00    +0.000 OA
ENDBRANCH  25  27
ENDBRANCH   2  21
TORSDOF 4
ENDMDL
