MODEL 1
REMARK VINA RESULT:      -7.0      0.000      0.000
REMARK  Name = 
REMARK  5 active torsions:
REMARK  status: ('A' for Active; 'I' for Inactive)
REMARK    1  A    between atoms: C_1  and  C_2
REMARK    2  A    between atoms: C_2  and  C_3
REMARK    3  A    between atoms: C_3  and  N_4
REMARK    4  A    between atoms: C_6  and  C_7
REMARK    5  A    between atoms: N_15  and  C_16
REMARK                            x       y       z     vdW  Elec       q    Type
REMARK                         _______ _______ _______ _____ _____    ______ ____
ROOT
ATOM      1  C   UNL     1      -1.298  10.962  19.129  0.00  0.00    +0.000 C 
ATOM      2  O   UNL     1      -1.242   9.914  19.765  0.00  0.00    +0.000 OA
ATOM      3  N   UNL     1      -0.252  11.910  19.008  0.00  0.00    +0.000 N 
ATOM      4  C   UNL     1      -0.580  13.249  18.722  0.00  0.00    +0.000 A 
ATOM      5  C   UNL     1       0.311  14.239  18.637  0.00  0.00    +0.000 A 
ATOM      6  C   UNL     1       1.685  13.984  18.925  0.00  0.00    +0.000 A 
ATOM      7  C   UNL     1       2.077  12.743  19.212  0.00  0.00    +0.000 A 
ATOM      8  C   UNL     1       1.117  11.579  19.168  0.00  0.00    +0.000 A 
ATOM      9  N   UNL     1       1.747  10.469  19.263  0.00  0.00    +0.000 NA
ENDROOT
BRANCH   1  12
ATOM     10  N   UNL     1      -4.735  12.339  18.803  0.00  0.00    +0.000 N 
ATOM     11  N   UNL     1      -3.473  12.041  19.261  0.00  0.00    +0.000 NA
ATOM     12  C   UNL     1      -2.678  11.305  18.536  0.00  0.00    +0.000 A 
ATOM     13  C   UNL     1      -3.050  10.834  17.180  0.00  0.00    +0.000 A 
ATOM     14  C   UNL     1      -2.248  10.000  16.391  0.00  0.00    +0.000 A 
ATOM     15  C   UNL     1      -2.603   9.724  15.068  0.00  0.00    +0.000 A 
ATOM     16  C   UNL     1      -3.768  10.260  14.528  0.00  0.00    +0.000 A 
ATOM     17  C   UNL     1      -4.608  11.030  15.329  0.00  0.00    +0.000 A 
ATOM     18  C   UNL     1      -4.253  11.301  16.657  0.00  0.00    +0.000 A 
ATOM     19  C   UNL     1      -5.190  12.036  17.524  0.00  0.00    +0.000 A 
ATOM     20  O   UNL     1      -6.312  12.305  17.103  0.00  0.00    +0.000 OA
BRANCH  10  21
ATOM     21  C   UNL     1      -5.643  12.963  19.765  0.00  0.00    +0.000 C 
BRANCH  21  23
ATOM     22  C   UNL     1      -7.429  11.267  20.346  0.00  0.00    +0.000 C 
ATOM     23  C   UNL     1      -6.175  11.989  20.813  0.00  0.00    +0.000 C 
ENDBRANCH  21  23
ENDBRANCH  10  21
ENDBRANCH   1  12
BRANCH   9  24
ATOM     24  C   UNL     1       1.408   9.071  19.195  0.00  0.00    +0.000 C 
ATOM     25  C   UNL     1       1.660   8.462  20.585  0.00  0.00    +0.000 C 
ATOM     26  C   UNL     1       1.678   6.936  20.579  0.00  0.00    +0.000 C 
ATOM     27  C   UNL     1       2.672   6.400  19.555  0.00  0.00    +0.000 C 
ATOM     28  C   UNL     1       2.351   6.925  18.162  0.00  0.00    +0.000 C 
ATOM     29  C   UNL     1       2.320   8.450  18.123  0.00  0.00    +0.000 C 
ENDBRANCH   9  24
TORSDOF 4
ENDMDL
MODEL 2
REMARK VINA RESULT:      -6.9      1.034      3.351
REMARK  Name = 
REMARK  5 active torsions:
REMARK  status: ('A' for Active; 'I' for Inactive)
REMARK    1  A    between atoms: C_1  and  C_2
REMARK    2  A    between atoms: C_2  and  C_3
REMARK    3  A    between atoms: C_3  and  N_4
REMARK    4  A    between atoms: C_6  and  C_7
REMARK    5  A    between atoms: N_15  and  C_16
REMARK                            x       y       z     vdW  Elec       q    Type
REMARK                         _______ _______ _______ _____ _____    ______ ____
ROOT
ATOM      1  C   UNL     1      -1.161  11.024  19.107  0.00  0.00    +0.000 C 
ATOM      2  O   UNL     1      -1.084   9.984  19.755  0.00  0.00    +0.000 OA
ATOM      3  N   UNL     1      -0.106  11.946  18.900  0.00  0.00    +0.000 N 
ATOM      4  C   UNL     1      -0.425  13.288  18.614  0.00  0.00    +0.000 A 
ATOM      5  C   UNL     1       0.479  14.256  18.453  0.00  0.00    +0.000 A 
ATOM      6  C   UNL     1       1.864  13.975  18.651  0.00  0.00    +0.000 A 
ATOM      7  C   UNL     1       2.248  12.730  18.931  0.00  0.00    +0.000 A 
ATOM      8  C   UNL     1       1.263  11.587  18.972  0.00  0.00    +0.000 A 
ATOM      9  N   UNL     1       1.874  10.465  19.042  0.00  0.00    +0.000 NA
ENDROOT
BRANCH   1  12
ATOM     10  N   UNL     1      -4.119  11.349  16.880  0.00  0.00    +0.000 N 
ATOM     11  N   UNL     1      -2.892  11.010  17.399  0.00  0.00    +0.000 NA
ATOM     12  C   UNL     1      -2.571  11.388  18.604  0.00  0.00    +0.000 A 
ATOM     13  C   UNL     1      -3.519  12.111  19.487  0.00  0.00    +0.000 A 
ATOM     14  C   UNL     1      -3.197  12.581  20.767  0.00  0.00    +0.000 A 
ATOM     15  C   UNL     1      -4.189  13.119  21.592  0.00  0.00    +0.000 A 
ATOM     16  C   UNL     1      -5.502  13.210  21.142  0.00  0.00    +0.000 A 
ATOM     17  C   UNL     1      -5.815  12.814  19.843  0.00  0.00    +0.000 A 
ATOM     18  C   UNL     1      -4.818  12.280  19.016  0.00  0.00    +0.000 A 
ATOM     19  C   UNL     1      -5.135  11.950  17.616  0.00  0.00    +0.000 A 
ATOM     20  O   UNL     1      -6.237  12.249  17.164  0.00  0.00    +0.000 OA
BRANCH  10  21
ATOM     21  C   UNL     1      -4.312  11.096  15.453  0.00  0.00    +0.000 C 
BRANCH  21  23
ATOM     22  C   UNL     1      -3.495   9.865  13.399  0.00  0.00    +0.000 C 
ATOM     23  C   UNL     1      -3.177  10.294  14.822  0.00  0.00    +0.000 C 
ENDBRANCH  21  23
ENDBRANCH  10  21
ENDBRANCH   1  12
BRANCH   9  24
ATOM     24  C   UNL     1       1.503   9.074  19.021  0.00  0.00    +0.000 C 
ATOM     25  C   UNL     1       1.694   8.518  20.442  0.00  0.00    +0.000 C 
ATOM     26  C   UNL     1       1.673   6.993  20.499  0.00  0.00    +0.000 C 
ATOM     27  C   UNL     1       2.685   6.391  19.531  0.00  0.00    +0.000 C 
ATOM     28  C   UNL     1       2.423   6.865  18.108  0.00  0.00    +0.000 C 
ATOM     29  C   UNL     1       2.433   8.387  18.006  0.00  0.00    +0.000 C 
ENDBRANCH   9  24
TORSDOF 4
ENDMDL
MODEL 3
REMARK VINA RESULT:      -6.6      3.849      7.135
REMARK  Name = 
REMARK  5 active torsions:
REMARK  status: ('A' for Active; 'I' for Inactive)
REMARK    1  A    between atoms: C_1  and  C_2
REMARK    2  A    between atoms: C_2  and  C_3
REMARK    3  A    between atoms: C_3  and  N_4
REMARK    4  A    between atoms: C_6  and  C_7
REMARK    5  A    between atoms: N_15  and  C_16
REMARK                            x       y       z     vdW  Elec       q    Type
REMARK                         _______ _______ _______ _____ _____    ______ ____
ROOT
ATOM      1  C   UNL     1       2.040  14.489  19.903  0.00  0.00    +0.000 C 
ATOM      2  O   UNL     1       3.057  14.530  20.587  0.00  0.00    +0.000 OA
ATOM      3  N   UNL     1       1.526  15.553  19.121  0.00  0.00    +0.000 N 
ATOM      4  C   UNL     1       0.150  15.572  18.822  0.00  0.00    +0.000 A 
ATOM      5  C   UNL     1      -0.456  16.547  18.142  0.00  0.00    +0.000 A 
ATOM      6  C   UNL     1       0.284  17.700  17.741  0.00  0.00    +0.000 A 
ATOM      7  C   UNL     1       1.591  17.762  17.992  0.00  0.00    +0.000 A 
ATOM      8  C   UNL     1       2.331  16.610  18.627  0.00  0.00    +0.000 A 
ATOM      9  N   UNL     1       3.596  16.800  18.574  0.00  0.00    +0.000 NA
ENDROOT
BRANCH   1  12
ATOM     10  N   UNL     1       0.689  11.096  19.210  0.00  0.00    +0.000 N 
ATOM     11  N   UNL     1       1.436  12.249  19.170  0.00  0.00    +0.000 NA
ATOM     12  C   UNL     1       1.206  13.199  20.033  0.00  0.00    +0.000 A 
ATOM     13  C   UNL     1       0.213  13.055  21.125  0.00  0.00    +0.000 A 
ATOM     14  C   UNL     1      -0.101  14.069  22.039  0.00  0.00    +0.000 A 
ATOM     15  C   UNL     1      -0.937  13.804  23.128  0.00  0.00    +0.000 A 
ATOM     16  C   UNL     1      -1.480  12.535  23.303  0.00  0.00    +0.000 A 
ATOM     17  C   UNL     1      -1.232  11.543  22.357  0.00  0.00    +0.000 A 
ATOM     18  C   UNL     1      -0.398  11.812  21.264  0.00  0.00    +0.000 A 
ATOM     19  C   UNL     1      -0.215  10.788  20.221  0.00  0.00    +0.000 A 
ATOM     20  O   UNL     1      -0.881   9.757  20.269  0.00  0.00    +0.000 OA
BRANCH  10  21
ATOM     21  C   UNL     1       0.842  10.185  18.075  0.00  0.00    +0.000 C 
BRANCH  21  23
ATOM     22  C   UNL     1       2.226   8.067  18.052  0.00  0.00    +0.000 C 
ATOM     23  C   UNL     1       2.242   9.584  17.967  0.00  0.00    +0.000 C 
ENDBRANCH  21  23
ENDBRANCH  10  21
ENDBRANCH   1  12
BRANCH   9  24
ATOM     24  C   UNL     1       4.777  16.050  18.915  0.00  0.00    +0.000 C 
ATOM     25  C   UNL     1       5.928  17.052  19.105  0.00  0.00    +0.000 C 
ATOM     26  C   UNL     1       7.303  16.392  19.128  0.00  0.00    +0.000 C 
ATOM     27  C   UNL     1       7.522  15.530  17.890  0.00  0.00    +0.000 C 
ATOM     28  C   UNL     1       6.435  14.471  17.767  0.00  0.00    +0.000 C 
ATOM     29  C   UNL     1       5.040  15.089  17.743  0.00  0.00    +0.000 C 
ENDBRANCH   9  24
TORSDOF 4
ENDMDL
MODEL 4
REMARK VINA RESULT:      -6.5      0.935      1.174
REMARK  Name = 
REMARK  5 active torsions:
REMARK  status: ('A' for Active; 'I' for Inactive)
REMARK    1  A    between atoms: C_1  and  C_2
REMARK    2  A    between atoms: C_2  and  C_3
REMARK    3  A    between atoms: C_3  and  N_4
REMARK    4  A    between atoms: C_6  and  C_7
REMARK    5  A    between atoms: N_15  and  C_16
REMARK                            x       y       z     vdW  Elec       q    Type
REMARK                         _______ _______ _______ _____ _____    ______ ____
ROOT
ATOM      1  C   UNL     1      -0.819  10.852  19.220  0.00  0.00    +0.000 C 
ATOM      2  O   UNL     1      -0.706   9.833  19.895  0.00  0.00    +0.000 OA
ATOM      3  N   UNL     1       0.243  11.704  18.829  0.00  0.00    +0.000 N 
ATOM      4  C   UNL     1      -0.042  13.051  18.532  0.00  0.00    +0.000 A 
ATOM      5  C   UNL     1       0.880  13.959  18.205  0.00  0.00    +0.000 A 
ATOM      6  C   UNL     1       2.262  13.605  18.221  0.00  0.00    +0.000 A 
ATOM      7  C   UNL     1       2.616  12.351  18.498  0.00  0.00    +0.000 A 
ATOM      8  C   UNL     1       1.588  11.269  18.725  0.00  0.00    +0.000 A 
ATOM      9  N   UNL     1       2.144  10.117  18.758  0.00  0.00    +0.000 NA
ENDROOT
BRANCH   1  12
ATOM     10  N   UNL     1      -4.202  12.345  19.597  0.00  0.00    +0.000 N 
ATOM     11  N   UNL     1      -2.894  11.977  19.806  0.00  0.00    +0.000 NA
ATOM     12  C   UNL     1      -2.265  11.280  18.902  0.00  0.00    +0.000 A 
ATOM     13  C   UNL     1      -2.881  10.929  17.600  0.00  0.00    +0.000 A 
ATOM     14  C   UNL     1      -2.261  10.138  16.625  0.00  0.00    +0.000 A 
ATOM     15  C   UNL     1      -2.847   9.979  15.365  0.00  0.00    +0.000 A 
ATOM     16  C   UNL     1      -4.064  10.589  15.076  0.00  0.00    +0.000 A 
ATOM     17  C   UNL     1      -4.723  11.315  16.066  0.00  0.00    +0.000 A 
ATOM     18  C   UNL     1      -4.136  11.469  17.329  0.00  0.00    +0.000 A 
ATOM     19  C   UNL     1      -4.880  12.158  18.397  0.00  0.00    +0.000 A 
ATOM     20  O   UNL     1      -6.045  12.491  18.198  0.00  0.00    +0.000 OA
BRANCH  10  21
ATOM     21  C   UNL     1      -4.906  12.916  20.745  0.00  0.00    +0.000 C 
BRANCH  21  23
ATOM     22  C   UNL     1      -5.925  15.231  20.699  0.00  0.00    +0.000 C 
ATOM     23  C   UNL     1      -4.663  14.412  20.920  0.00  0.00    +0.000 C 
ENDBRANCH  21  23
ENDBRANCH  10  21
ENDBRANCH   1  12
BRANCH   9  24
ATOM     24  C   UNL     1       1.700   8.749  18.848  0.00  0.00    +0.000 C 
ATOM     25  C   UNL     1       1.837   8.311  20.316  0.00  0.00    +0.000 C 
ATOM     26  C   UNL     1       1.735   6.800  20.504  0.00  0.00    +0.000 C 
ATOM     27  C   UNL     1       2.732   6.065  19.615  0.00  0.00    +0.000 C 
ATOM     28  C   UNL     1       2.520   6.425  18.151  0.00  0.00    +0.000 C 
ATOM     29  C   UNL     1       2.611   7.930  17.918  0.00  0.00    +0.000 C 
ENDBRANCH   9  24
TORSDOF 4
ENDMDL
MODEL 5
REMARK VINA RESULT:      -6.5      3.792      7.972
REMARK  Name = 
REMARK  5 active torsions:
REMARK  status: ('A' for Active; 'I' for Inactive)
REMARK    1  A    between atoms: C_1  and  C_2
REMARK    2  A    between atoms: C_2  and  C_3
REMARK    3  A    between atoms: C_3  and  N_4
REMARK    4  A    between atoms: C_6  and  C_7
REMARK    5  A    between atoms: N_15  and  C_16
REMARK                            x       y       z     vdW  Elec       q    Type
REMARK                         _______ _______ _______ _____ _____    ______ ____
ROOT
ATOM      1  C   UNL     1       1.349  13.343  20.463  0.00  0.00    +0.000 C 
ATOM      2  O   UNL     1       1.018  13.565  21.624  0.00  0.00    +0.000 OA
ATOM      3  N   UNL     1       1.152  12.125  19.767  0.00  0.00    +0.000 N 
ATOM      4  C   UNL     1       1.999  11.817  18.686  0.00  0.00    +0.000 A 
ATOM      5  C   UNL     1       1.944  10.679  17.990  0.00  0.00    +0.000 A 
ATOM      6  C   UNL     1       1.038   9.649  18.383  0.00  0.00    +0.000 A 
ATOM      7  C   UNL     1       0.206   9.860  19.402  0.00  0.00    +0.000 A 
ATOM      8  C   UNL     1       0.142  11.190  20.111  0.00  0.00    +0.000 A 
ATOM      9  N   UNL     1      -0.864  11.235  20.901  0.00  0.00    +0.000 NA
ENDROOT
BRANCH   1  12
ATOM     10  N   UNL     1       4.236  15.326  19.219  0.00  0.00    +0.000 N 
ATOM     11  N   UNL     1       3.459  14.336  19.772  0.00  0.00    +0.000 NA
ATOM     12  C   UNL     1       2.161  14.461  19.780  0.00  0.00    +0.000 A 
ATOM     13  C   UNL     1       1.469  15.603  19.134  0.00  0.00    +0.000 A 
ATOM     14  C   UNL     1       0.083  15.801  19.166  0.00  0.00    +0.000 A 
ATOM     15  C   UNL     1      -0.502  16.819  18.407  0.00  0.00    +0.000 A 
ATOM     16  C   UNL     1       0.290  17.658  17.630  0.00  0.00    +0.000 A 
ATOM     17  C   UNL     1       1.675  17.515  17.653  0.00  0.00    +0.000 A 
ATOM     18  C   UNL     1       2.260  16.497  18.418  0.00  0.00    +0.000 A 
ATOM     19  C   UNL     1       3.728  16.410  18.510  0.00  0.00    +0.000 A 
ATOM     20  O   UNL     1       4.415  17.294  18.006  0.00  0.00    +0.000 OA
BRANCH  10  21
ATOM     21  C   UNL     1       5.676  15.229  19.457  0.00  0.00    +0.000 C 
BRANCH  21  23
ATOM     22  C   UNL     1       7.643  15.527  17.895  0.00  0.00    +0.000 C 
ATOM     23  C   UNL     1       6.448  14.665  18.267  0.00  0.00    +0.000 C 
ENDBRANCH  21  23
ENDBRANCH  10  21
ENDBRANCH   1  12
BRANCH   9  24
ATOM     24  C   UNL     1      -1.482  12.225  21.745  0.00  0.00    +0.000 C 
ATOM     25  C   UNL     1      -2.014  11.505  22.995  0.00  0.00    +0.000 C 
ATOM     26  C   UNL     1      -2.987  12.353  23.809  0.00  0.00    +0.000 C 
ATOM     27  C   UNL     1      -4.130  12.868  22.942  0.00  0.00    +0.000 C 
ATOM     28  C   UNL     1      -3.597  13.670  21.762  0.00  0.00    +0.000 C 
ATOM     29  C   UNL     1      -2.616  12.859  20.921  0.00  0.00    +0.000 C 
ENDBRANCH   9  24
TORSDOF 4
ENDMDL
MODEL 6
REMARK VINA RESULT:      -6.5      3.607      6.294
REMARK  Name = 
REMARK  5 active torsions:
REMARK  status: ('A' for Active; 'I' for Inactive)
REMARK    1  A    between atoms: C_1  and  C_2
REMARK    2  A    between atoms: C_2  and  C_3
REMARK    3  A    between atoms: C_3  and  N_4
REMARK    4  A    between atoms: C_6  and  C_7
REMARK    5  A    between atoms: N_15  and  C_16
REMARK                            x       y       z     vdW  Elec       q    Type
REMARK                         _______ _______ _______ _____ _____    ______ ____
ROOT
ATOM      1  C   UNL     1      -1.523  12.620  21.113  0.00  0.00    +0.000 C 
ATOM      2  O   UNL     1      -1.416  13.105  19.991  0.00  0.00    +0.000 OA
ATOM      3  N   UNL     1      -0.735  11.565  21.634  0.00  0.00    +0.000 N 
ATOM      4  C   UNL     1      -1.264  10.771  22.670  0.00  0.00    +0.000 A 
ATOM      5  C   UNL     1      -0.639   9.719  23.203  0.00  0.00    +0.000 A 
ATOM      6  C   UNL     1       0.611   9.288  22.667  0.00  0.00    +0.000 A 
ATOM      7  C   UNL     1       1.176   9.982  21.680  0.00  0.00    +0.000 A 
ATOM      8  C   UNL     1       0.565  11.260  21.158  0.00  0.00    +0.000 A 
ATOM      9  N   UNL     1       1.377  11.864  20.375  0.00  0.00    +0.000 NA
ENDROOT
BRANCH   1  12
ATOM     10  N   UNL     1      -5.001  13.186  22.297  0.00  0.00    +0.000 N 
ATOM     11  N   UNL     1      -3.900  12.720  21.618  0.00  0.00    +0.000 NA
ATOM     12  C   UNL     1      -2.711  13.138  21.948  0.00  0.00    +0.000 A 
ATOM     13  C   UNL     1      -2.479  14.046  23.097  0.00  0.00    +0.000 A 
ATOM     14  C   UNL     1      -1.226  14.560  23.452  0.00  0.00    +0.000 A 
ATOM     15  C   UNL     1      -1.070  15.289  24.635  0.00  0.00    +0.000 A 
ATOM     16  C   UNL     1      -2.164  15.527  25.461  0.00  0.00    +0.000 A 
ATOM     17  C   UNL     1      -3.428  15.083  25.076  0.00  0.00    +0.000 A 
ATOM     18  C   UNL     1      -3.582  14.358  23.888  0.00  0.00    +0.000 A 
ATOM     19  C   UNL     1      -4.932  13.973  23.442  0.00  0.00    +0.000 A 
ATOM     20  O   UNL     1      -5.909  14.387  24.060  0.00  0.00    +0.000 OA
BRANCH  10  21
ATOM     21  C   UNL     1      -6.305  12.858  21.722  0.00  0.00    +0.000 C 
BRANCH  21  23
ATOM     22  C   UNL     1      -7.258  10.901  20.431  0.00  0.00    +0.000 C 
ATOM     23  C   UNL     1      -6.211  12.003  20.461  0.00  0.00    +0.000 C 
ENDBRANCH  21  23
ENDBRANCH  10  21
ENDBRANCH   1  12
BRANCH   9  24
ATOM     24  C   UNL     1       1.404  13.119  19.669  0.00  0.00    +0.000 C 
ATOM     25  C   UNL     1       2.463  13.006  18.558  0.00  0.00    +0.000 C 
ATOM     26  C   UNL     1       2.847  14.354  17.955  0.00  0.00    +0.000 C 
ATOM     27  C   UNL     1       3.284  15.337  19.035  0.00  0.00    +0.000 C 
ATOM     28  C   UNL     1       2.188  15.523  20.075  0.00  0.00    +0.000 C 
ATOM     29  C   UNL     1       1.771  14.197  20.703  0.00  0.00    +0.000 C 
ENDBRANCH   9  24
TORSDOF 4
ENDMDL
MODEL 7
REMARK VINA RESULT:      -6.4      1.889      2.516
REMARK  Name = 
REMARK  5 active torsions:
REMARK  status: ('A' for Active; 'I' for Inactive)
REMARK    1  A    between atoms: C_1  and  C_2
REMARK    2  A    between atoms: C_2  and  C_3
REMARK    3  A    between atoms: C_3  and  N_4
REMARK    4  A    between atoms: C_6  and  C_7
REMARK    5  A    between atoms: N_15  and  C_16
REMARK                            x       y       z     vdW  Elec       q    Type
REMARK                         _______ _______ _______ _____ _____    ______ ____
ROOT
ATOM      1  C   UNL     1      -1.373  12.138  20.301  0.00  0.00    +0.000 C 
ATOM      2  O   UNL     1      -1.076  11.066  20.820  0.00  0.00    +0.000 OA
ATOM      3  N   UNL     1      -0.458  13.072  19.756  0.00  0.00    +0.000 N 
ATOM      4  C   UNL     1      -0.837  14.426  19.678  0.00  0.00    +0.000 A 
ATOM      5  C   UNL     1      -0.043  15.403  19.234  0.00  0.00    +0.000 A 
ATOM      6  C   UNL     1       1.309  15.114  18.880  0.00  0.00    +0.000 A 
ATOM      7  C   UNL     1       1.747  13.858  18.932  0.00  0.00    +0.000 A 
ATOM      8  C   UNL     1       0.831  12.712  19.287  0.00  0.00    +0.000 A 
ATOM      9  N   UNL     1       1.403  11.589  19.066  0.00  0.00    +0.000 NA
ENDROOT
BRANCH   1  12
ATOM     10  N   UNL     1      -4.580  13.485  21.610  0.00  0.00    +0.000 N 
ATOM     11  N   UNL     1      -3.254  13.156  21.458  0.00  0.00    +0.000 NA
ATOM     12  C   UNL     1      -2.862  12.526  20.387  0.00  0.00    +0.000 A 
ATOM     13  C   UNL     1      -3.784  12.213  19.268  0.00  0.00    +0.000 A 
ATOM     14  C   UNL     1      -3.416  11.492  18.125  0.00  0.00    +0.000 A 
ATOM     15  C   UNL     1      -4.302  11.370  17.051  0.00  0.00    +0.000 A 
ATOM     16  C   UNL     1      -5.567  11.947  17.116  0.00  0.00    +0.000 A 
ATOM     17  C   UNL     1      -5.966  12.601  18.279  0.00  0.00    +0.000 A 
ATOM     18  C   UNL     1      -5.078  12.718  19.356  0.00  0.00    +0.000 A 
ATOM     19  C   UNL     1      -5.539  13.329  20.615  0.00  0.00    +0.000 A 
ATOM     20  O   UNL     1      -6.724  13.627  20.739  0.00  0.00    +0.000 OA
BRANCH  10  21
ATOM     21  C   UNL     1      -4.979  13.975  22.930  0.00  0.00    +0.000 C 
BRANCH  21  23
ATOM     22  C   UNL     1      -4.400  12.384  24.809  0.00  0.00    +0.000 C 
ATOM     23  C   UNL     1      -5.480  12.872  23.858  0.00  0.00    +0.000 C 
ENDBRANCH  21  23
ENDBRANCH  10  21
ENDBRANCH   1  12
BRANCH   9  24
ATOM     24  C   UNL     1       1.026  10.200  19.118  0.00  0.00    +0.000 C 
ATOM     25  C   UNL     1       1.456   9.651  20.489  0.00  0.00    +0.000 C 
ATOM     26  C   UNL     1       1.438   8.127  20.560  0.00  0.00    +0.000 C 
ATOM     27  C   UNL     1       2.264   7.512  19.436  0.00  0.00    +0.000 C 
ATOM     28  C   UNL     1       1.762   7.979  18.076  0.00  0.00    +0.000 C 
ATOM     29  C   UNL     1       1.762   9.501  17.963  0.00  0.00    +0.000 C 
ENDBRANCH   9  24
TORSDOF 4
ENDMDL
MODEL 8
REMARK VINA RESULT:      -6.4      2.161      5.431
REMARK  Name = 
REMARK  5 active torsions:
REMARK  status: ('A' for Active; 'I' for Inactive)
REMARK    1  A    between atoms: C_1  and  C_2
REMARK    2  A    between atoms: C_2  and  C_3
REMARK    3  A    between atoms: C_3  and  N_4
REMARK    4  A    between atoms: C_6  and  C_7
REMARK    5  A    between atoms: N_15  and  C_16
REMARK                            x       y       z     vdW  Elec       q    Type
REMARK                         _______ _______ _______ _____ _____    ______ ____
ROOT
ATOM      1  C   UNL     1      -0.703  12.109  19.275  0.00  0.00    +0.000 C 
ATOM      2  O   UNL     1      -0.049  13.006  18.753  0.00  0.00    +0.000 OA
ATOM      3  N   UNL     1      -0.197  11.131  20.166  0.00  0.00    +0.000 N 
ATOM      4  C   UNL     1      -0.872   9.900  20.277  0.00  0.00    +0.000 A 
ATOM      5  C   UNL     1      -0.462   8.885  21.040  0.00  0.00    +0.000 A 
ATOM      6  C   UNL     1       0.776   8.981  21.745  0.00  0.00    +0.000 A 
ATOM      7  C   UNL     1       1.479  10.111  21.686  0.00  0.00    +0.000 A 
ATOM      8  C   UNL     1       0.967  11.326  20.953  0.00  0.00    +0.000 A 
ATOM      9  N   UNL     1       1.692  12.349  21.208  0.00  0.00    +0.000 NA
ENDROOT
BRANCH   1  12
ATOM     10  N   UNL     1      -3.637  11.451  17.091  0.00  0.00    +0.000 N 
ATOM     11  N   UNL     1      -2.359  11.536  17.588  0.00  0.00    +0.000 NA
ATOM     12  C   UNL     1      -2.162  11.987  18.796  0.00  0.00    +0.000 A 
ATOM     13  C   UNL     1      -3.281  12.342  19.702  0.00  0.00    +0.000 A 
ATOM     14  C   UNL     1      -3.113  12.879  20.984  0.00  0.00    +0.000 A 
ATOM     15  C   UNL     1      -4.214  13.046  21.830  0.00  0.00    +0.000 A 
ATOM     16  C   UNL     1      -5.490  12.699  21.398  0.00  0.00    +0.000 A 
ATOM     17  C   UNL     1      -5.674  12.235  20.097  0.00  0.00    +0.000 A 
ATOM     18  C   UNL     1      -4.570  12.073  19.250  0.00  0.00    +0.000 A 
ATOM     19  C   UNL     1      -4.783  11.671  17.849  0.00  0.00    +0.000 A 
ATOM     20  O   UNL     1      -5.929  11.589  17.415  0.00  0.00    +0.000 OA
BRANCH  10  21
ATOM     21  C   UNL     1      -3.759  11.163  15.662  0.00  0.00    +0.000 C 
BRANCH  21  23
ATOM     22  C   UNL     1      -2.948   9.770  13.712  0.00  0.00    +0.000 C 
ATOM     23  C   UNL     1      -2.964   9.936  15.223  0.00  0.00    +0.000 C 
ENDBRANCH  21  23
ENDBRANCH  10  21
ENDBRANCH   1  12
BRANCH   9  24
ATOM     24  C   UNL     1       1.660  13.754  20.894  0.00  0.00    +0.000 C 
ATOM     25  C   UNL     1       3.092  14.296  21.031  0.00  0.00    +0.000 C 
ATOM     26  C   UNL     1       3.157  15.820  21.068  0.00  0.00    +0.000 C 
ATOM     27  C   UNL     1       2.248  16.385  22.153  0.00  0.00    +0.000 C 
ATOM     28  C   UNL     1       0.810  15.928  21.948  0.00  0.00    +0.000 C 
ATOM     29  C   UNL     1       0.699  14.407  21.902  0.00  0.00    +0.000 C 
ENDBRANCH   9  24
TORSDOF 4
ENDMDL
MODEL 9
REMARK VINA RESULT:      -6.4      2.157      7.624
REMARK  Name = 
REMARK  5 active torsions:
REMARK  status: ('A' for Active; 'I' for Inactive)
REMARK    1  A    between atoms: C_1  and  C_2
REMARK    2  A    between atoms: C_2  and  C_3
REMARK    3  A    between atoms: C_3  and  N_4
REMARK    4  A    between atoms: C_6  and  C_7
REMARK    5  A    between atoms: N_15  and  C_16
REMARK                            x       y       z     vdW  Elec       q    Type
REMARK                         _______ _______ _______ _____ _____    ______ ____
ROOT
ATOM      1  C   UNL     1      -1.960  12.229  19.879  0.00  0.00    +0.000 C 
ATOM      2  O   UNL     1      -2.086  12.134  21.096  0.00  0.00    +0.000 OA
ATOM      3  N   UNL     1      -2.968  11.957  18.922  0.00  0.00    +0.000 N 
ATOM      4  C   UNL     1      -2.583  11.599  17.616  0.00  0.00    +0.000 A 
ATOM      5  C   UNL     1      -3.438  11.270  16.645  0.00  0.00    +0.000 A 
ATOM      6  C   UNL     1      -4.835  11.187  16.927  0.00  0.00    +0.000 A 
ATOM      7  C   UNL     1      -5.279  11.504  18.142  0.00  0.00    +0.000 A 
ATOM      8  C   UNL     1      -4.353  12.023  19.214  0.00  0.00    +0.000 A 
ATOM      9  N   UNL     1      -5.020  12.463  20.214  0.00  0.00    +0.000 NA
ENDROOT
BRANCH   1  12
ATOM     10  N   UNL     1       1.468  11.762  18.520  0.00  0.00    +0.000 N 
ATOM     11  N   UNL     1       0.174  11.548  18.931  0.00  0.00    +0.000 NA
ATOM     12  C   UNL     1      -0.535  12.544  19.384  0.00  0.00    +0.000 A 
ATOM     13  C   UNL     1      -0.027  13.937  19.400  0.00  0.00    +0.000 A 
ATOM     14  C   UNL     1      -0.734  15.025  19.926  0.00  0.00    +0.000 A 
ATOM     15  C   UNL     1      -0.248  16.327  19.767  0.00  0.00    +0.000 A 
ATOM     16  C   UNL     1       0.953  16.551  19.103  0.00  0.00    +0.000 A 
ATOM     17  C   UNL     1       1.699  15.468  18.643  0.00  0.00    +0.000 A 
ATOM     18  C   UNL     1       1.213  14.164  18.807  0.00  0.00    +0.000 A 
ATOM     19  C   UNL     1       2.049  13.021  18.403  0.00  0.00    +0.000 A 
ATOM     20  O   UNL     1       3.201  13.222  18.028  0.00  0.00    +0.000 OA
BRANCH  10  21
ATOM     21  C   UNL     1       2.268  10.568  18.250  0.00  0.00    +0.000 C 
BRANCH  21  23
ATOM     22  C   UNL     1       2.284   8.064  17.888  0.00  0.00    +0.000 C 
ATOM     23  C   UNL     1       1.428   9.309  18.052  0.00  0.00    +0.000 C 
ENDBRANCH  21  23
ENDBRANCH  10  21
ENDBRANCH   1  12
BRANCH   9  24
ATOM     24  C   UNL     1      -4.719  13.136  21.452  0.00  0.00    +0.000 C 
ATOM     25  C   UNL     1      -5.904  12.911  22.405  0.00  0.00    +0.000 C 
ATOM     26  C   UNL     1      -5.887  13.840  23.616  0.00  0.00    +0.000 C 
ATOM     27  C   UNL     1      -5.793  15.300  23.189  0.00  0.00    +0.000 C 
ATOM     28  C   UNL     1      -4.557  15.536  22.331  0.00  0.00    +0.000 C 
ATOM     29  C   UNL     1      -4.533  14.624  21.109  0.00  0.00    +0.000 C 
ENDBRANCH   9  24
TORSDOF 4
ENDMDL
