MODEL 1
REMARK VINA RESULT:      -8.7      0.000      0.000
REMARK  Name = 
REMARK  4 active torsions:
REMARK  status: ('A' for Active; 'I' for Inactive)
REMARK    1  A    between atoms: C_2  and  C_3
REMARK    2  A    between atoms: C_3  and  C_4
REMARK    3  A    between atoms: C_7  and  C_8
REMARK    4  A    between atoms: C_19  and  C_20
REMARK                            x       y       z     vdW  Elec       q    Type
REMARK                         _______ _______ _______ _____ _____    ______ ____
ROOT
ATOM      1  O   UNL     1       1.946   7.527  20.428  0.00  0.00    +0.000 OA
ATOM      2  C   UNL     1       2.427   7.375  19.301  0.00  0.00    +0.000 C 
ATOM      3  N   UNL     1       3.008   6.163  19.025  0.00  0.00    +0.000 N 
ATOM      4  C   UNL     1       3.753   5.806  17.900  0.00  0.00    +0.000 A 
ATOM      5  C   UNL     1       4.074   4.472  17.715  0.00  0.00    +0.000 A 
ATOM      6  C   UNL     1       4.820   4.109  16.586  0.00  0.00    +0.000 A 
ATOM      7  C   UNL     1       5.249   5.075  15.666  0.00  0.00    +0.000 A 
ATOM      8  C   UNL     1       4.879   6.383  15.966  0.00  0.00    +0.000 A 
ATOM      9  N   UNL     1       4.153   6.756  17.044  0.00  0.00    +0.000 NA
ATOM     10  H   UNL     1       2.892   5.479  19.760  0.00  0.00    +0.000 HD
ENDROOT
BRANCH   7  11
ATOM     11  C   UNL     1       6.017   4.747  14.449  0.00  0.00    +0.000 A 
ATOM     12  C   UNL     1       5.540   3.808  13.518  0.00  0.00    +0.000 A 
ATOM     13  C   UNL     1       6.249   3.519  12.348  0.00  0.00    +0.000 A 
ATOM     14  C   UNL     1       7.449   4.170  12.079  0.00  0.00    +0.000 A 
ATOM     15  C   UNL     1       7.945   5.103  12.984  0.00  0.00    +0.000 A 
ATOM     16  C   UNL     1       7.240   5.381  14.158  0.00  0.00    +0.000 A 
ENDBRANCH   7  11
BRANCH   2  17
ATOM     17  C   UNL     1       2.370   8.434  18.207  0.00  0.00    +0.000 C 
BRANCH  17  18
ATOM     18  C   UNL     1       1.268   9.424  18.321  0.00  0.00    +0.000 A 
ATOM     19  C   UNL     1       1.247  10.678  18.885  0.00  0.00    +0.000 A 
ATOM     20  O   UNL     1       0.032  11.235  18.644  0.00  0.00    +0.000 OA
ATOM     21  C   UNL     1      -0.641  10.285  17.920  0.00  0.00    +0.000 A 
ATOM     22  N   UNL     1       0.053   9.183  17.708  0.00  0.00    +0.000 NA
BRANCH  21  23
ATOM     23  C   UNL     1      -1.986  10.642  17.472  0.00  0.00    +0.000 A 
ATOM     24  C   UNL     1      -2.834  11.429  18.266  0.00  0.00    +0.000 A 
ATOM     25  C   UNL     1      -4.109  11.779  17.822  0.00  0.00    +0.000 A 
ATOM     26  C   UNL     1      -4.556  11.344  16.576  0.00  0.00    +0.000 A 
ATOM     27  C   UNL     1      -3.728  10.560  15.776  0.00  0.00    +0.000 A 
ATOM     28  C   UNL     1      -2.449  10.212  16.220  0.00  0.00    +0.000 A 
ENDBRANCH  21  23
ENDBRANCH  17  18
ENDBRANCH   2  17
TORSDOF 4
ENDMDL
MODEL 2
REMARK VINA RESULT:      -8.4      4.462      9.309
REMARK  Name = 
REMARK  4 active torsions:
REMARK  status: ('A' for Active; 'I' for Inactive)
REMARK    1  A    between atoms: C_2  and  C_3
REMARK    2  A    between atoms: C_3  and  C_4
REMARK    3  A    between atoms: C_7  and  C_8
REMARK    4  A    between atoms: C_19  and  C_20
REMARK                            x       y       z     vdW  Elec       q    Type
REMARK                         _______ _______ _______ _____ _____    ______ ____
ROOT
ATOM      1  O   UNL     1       5.968   4.336  15.907  0.00  0.00    +0.000 OA
ATOM      2  C   UNL     1       5.470   5.281  16.525  0.00  0.00    +0.000 C 
ATOM      3  N   UNL     1       4.514   4.983  17.464  0.00  0.00    +0.000 N 
ATOM      4  C   UNL     1       3.699   5.870  18.168  0.00  0.00    +0.000 A 
ATOM      5  C   UNL     1       2.946   5.381  19.224  0.00  0.00    +0.000 A 
ATOM      6  C   UNL     1       2.128   6.268  19.934  0.00  0.00    +0.000 A 
ATOM      7  C   UNL     1       2.055   7.622  19.580  0.00  0.00    +0.000 A 
ATOM      8  C   UNL     1       2.844   7.992  18.495  0.00  0.00    +0.000 A 
ATOM      9  N   UNL     1       3.647   7.156  17.799  0.00  0.00    +0.000 NA
ATOM     10  H   UNL     1       4.389   3.992  17.616  0.00  0.00    +0.000 HD
ENDROOT
BRANCH   7  11
ATOM     11  C   UNL     1       1.228   8.604  20.307  0.00  0.00    +0.000 A 
ATOM     12  C   UNL     1       0.535   9.621  19.626  0.00  0.00    +0.000 A 
ATOM     13  C   UNL     1      -0.275  10.532  20.309  0.00  0.00    +0.000 A 
ATOM     14  C   UNL     1      -0.418  10.442  21.690  0.00  0.00    +0.000 A 
ATOM     15  C   UNL     1       0.256   9.447  22.390  0.00  0.00    +0.000 A 
ATOM     16  C   UNL     1       1.075   8.544  21.705  0.00  0.00    +0.000 A 
ENDBRANCH   7  11
BRANCH   2  17
ATOM     17  C   UNL     1       5.887   6.734  16.331  0.00  0.00    +0.000 C 
BRANCH  17  18
ATOM     18  C   UNL     1       6.897   7.250  17.290  0.00  0.00    +0.000 A 
ATOM     19  C   UNL     1       7.723   6.584  18.166  0.00  0.00    +0.000 A 
ATOM     20  O   UNL     1       8.546   7.490  18.752  0.00  0.00    +0.000 OA
ATOM     21  C   UNL     1       8.190   8.688  18.189  0.00  0.00    +0.000 A 
ATOM     22  N   UNL     1       7.205   8.598  17.315  0.00  0.00    +0.000 NA
BRANCH  21  23
ATOM     23  C   UNL     1       8.961   9.857  18.607  0.00  0.00    +0.000 A 
ATOM     24  C   UNL     1       9.578  10.698  17.668  0.00  0.00    +0.000 A 
ATOM     25  C   UNL     1      10.296  11.822  18.077  0.00  0.00    +0.000 A 
ATOM     26  C   UNL     1      10.411  12.120  19.433  0.00  0.00    +0.000 A 
ATOM     27  C   UNL     1       9.807  11.296  20.379  0.00  0.00    +0.000 A 
ATOM     28  C   UNL     1       9.084  10.171  19.969  0.00  0.00    +0.000 A 
ENDBRANCH  21  23
ENDBRANCH  17  18
ENDBRANCH   2  17
TORSDOF 4
ENDMDL
MODEL 3
REMARK VINA RESULT:      -8.2      3.375      9.410
REMARK  Name = 
REMARK  4 active torsions:
REMARK  status: ('A' for Active; 'I' for Inactive)
REMARK    1  A    between atoms: C_2  and  C_3
REMARK    2  A    between atoms: C_3  and  C_4
REMARK    3  A    between atoms: C_7  and  C_8
REMARK    4  A    between atoms: C_19  and  C_20
REMARK                            x       y       z     vdW  Elec       q    Type
REMARK                         _______ _______ _______ _____ _____    ______ ____
ROOT
ATOM      1  O   UNL     1       5.188   2.811  18.963  0.00  0.00    +0.000 OA
ATOM      2  C   UNL     1       4.803   3.942  19.271  0.00  0.00    +0.000 C 
ATOM      3  N   UNL     1       3.527   4.059  19.762  0.00  0.00    +0.000 N 
ATOM      4  C   UNL     1       2.814   5.229  20.024  0.00  0.00    +0.000 A 
ATOM      5  C   UNL     1       1.617   5.135  20.715  0.00  0.00    +0.000 A 
ATOM      6  C   UNL     1       0.899   6.307  20.982  0.00  0.00    +0.000 A 
ATOM      7  C   UNL     1       1.369   7.554  20.547  0.00  0.00    +0.000 A 
ATOM      8  C   UNL     1       2.573   7.522  19.851  0.00  0.00    +0.000 A 
ATOM      9  N   UNL     1       3.288   6.404  19.589  0.00  0.00    +0.000 NA
ATOM     10  H   UNL     1       3.066   3.172  19.910  0.00  0.00    +0.000 HD
ENDROOT
BRANCH   7  11
ATOM     11  C   UNL     1       0.665   8.822  20.821  0.00  0.00    +0.000 A 
ATOM     12  C   UNL     1       0.354   9.720  19.785  0.00  0.00    +0.000 A 
ATOM     13  C   UNL     1      -0.341  10.907  20.036  0.00  0.00    +0.000 A 
ATOM     14  C   UNL     1      -0.750  11.217  21.329  0.00  0.00    +0.000 A 
ATOM     15  C   UNL     1      -0.455  10.347  22.373  0.00  0.00    +0.000 A 
ATOM     16  C   UNL     1       0.252   9.167  22.121  0.00  0.00    +0.000 A 
ENDBRANCH   7  11
BRANCH   2  17
ATOM     17  C   UNL     1       5.675   5.188  19.174  0.00  0.00    +0.000 C 
BRANCH  17  18
ATOM     18  C   UNL     1       6.257   5.469  17.837  0.00  0.00    +0.000 A 
ATOM     19  C   UNL     1       7.265   6.326  17.460  0.00  0.00    +0.000 A 
ATOM     20  O   UNL     1       7.508   6.146  16.137  0.00  0.00    +0.000 OA
ATOM     21  C   UNL     1       6.632   5.161  15.760  0.00  0.00    +0.000 A 
ATOM     22  N   UNL     1       5.859   4.729  16.738  0.00  0.00    +0.000 NA
BRANCH  21  23
ATOM     23  C   UNL     1       6.708   4.723  14.368  0.00  0.00    +0.000 A 
ATOM     24  C   UNL     1       5.839   3.743  13.864  0.00  0.00    +0.000 A 
ATOM     25  C   UNL     1       5.907   3.344  12.529  0.00  0.00    +0.000 A 
ATOM     26  C   UNL     1       6.848   3.919  11.677  0.00  0.00    +0.000 A 
ATOM     27  C   UNL     1       7.720   4.892  12.161  0.00  0.00    +0.000 A 
ATOM     28  C   UNL     1       7.649   5.293  13.498  0.00  0.00    +0.000 A 
ENDBRANCH  21  23
ENDBRANCH  17  18
ENDBRANCH   2  17
TORSDOF 4
ENDMDL
MODEL 4
REMARK VINA RESULT:      -8.2      3.430      9.367
REMARK  Name = 
REMARK  4 active torsions:
REMARK  status: ('A' for Active; 'I' for Inactive)
REMARK    1  A    between atoms: C_2  and  C_3
REMARK    2  A    between atoms: C_3  and  C_4
REMARK    3  A    between atoms: C_7  and  C_8
REMARK    4  A    between atoms: C_19  and  C_20
REMARK                            x       y       z     vdW  Elec       q    Type
REMARK                         _______ _______ _______ _____ _____    ______ ____
ROOT
ATOM      1  O   UNL     1       5.180   2.707  19.000  0.00  0.00    +0.000 OA
ATOM      2  C   UNL     1       4.807   3.844  19.303  0.00  0.00    +0.000 C 
ATOM      3  N   UNL     1       3.519   3.982  19.755  0.00  0.00    +0.000 N 
ATOM      4  C   UNL     1       2.820   5.164  20.003  0.00  0.00    +0.000 A 
ATOM      5  C   UNL     1       1.600   5.088  20.655  0.00  0.00    +0.000 A 
ATOM      6  C   UNL     1       0.896   6.272  20.907  0.00  0.00    +0.000 A 
ATOM      7  C   UNL     1       1.404   7.513  20.497  0.00  0.00    +0.000 A 
ATOM      8  C   UNL     1       2.628   7.462  19.839  0.00  0.00    +0.000 A 
ATOM      9  N   UNL     1       3.330   6.333  19.591  0.00  0.00    +0.000 NA
ATOM     10  H   UNL     1       3.036   3.104  19.882  0.00  0.00    +0.000 HD
ENDROOT
BRANCH   7  11
ATOM     11  C   UNL     1       0.716   8.792  20.757  0.00  0.00    +0.000 A 
ATOM     12  C   UNL     1       0.198   9.097  22.028  0.00  0.00    +0.000 A 
ATOM     13  C   UNL     1      -0.425  10.321  22.285  0.00  0.00    +0.000 A 
ATOM     14  C   UNL     1      -0.536  11.274  21.278  0.00  0.00    +0.000 A 
ATOM     15  C   UNL     1      -0.034  10.999  20.010  0.00  0.00    +0.000 A 
ATOM     16  C   UNL     1       0.578   9.769  19.752  0.00  0.00    +0.000 A 
ENDBRANCH   7  11
BRANCH   2  17
ATOM     17  C   UNL     1       5.706   5.074  19.244  0.00  0.00    +0.000 C 
BRANCH  17  18
ATOM     18  C   UNL     1       6.255   5.409  17.905  0.00  0.00    +0.000 A 
ATOM     19  C   UNL     1       7.212   6.325  17.534  0.00  0.00    +0.000 A 
ATOM     20  O   UNL     1       7.448   6.183  16.205  0.00  0.00    +0.000 OA
ATOM     21  C   UNL     1       6.620   5.160  15.819  0.00  0.00    +0.000 A 
ATOM     22  N   UNL     1       5.883   4.670  16.798  0.00  0.00    +0.000 NA
BRANCH  21  23
ATOM     23  C   UNL     1       6.701   4.752  14.418  0.00  0.00    +0.000 A 
ATOM     24  C   UNL     1       7.635   5.328  13.543  0.00  0.00    +0.000 A 
ATOM     25  C   UNL     1       7.716   4.919  12.212  0.00  0.00    +0.000 A 
ATOM     26  C   UNL     1       6.862   3.926  11.735  0.00  0.00    +0.000 A 
ATOM     27  C   UNL     1       5.929   3.344  12.589  0.00  0.00    +0.000 A 
ATOM     28  C   UNL     1       5.849   3.753  13.924  0.00  0.00    +0.000 A 
ENDBRANCH  21  23
ENDBRANCH  17  18
ENDBRANCH   2  17
TORSDOF 4
ENDMDL
MODEL 5
REMARK VINA RESULT:      -8.2      4.632      9.121
REMARK  Name = 
REMARK  4 active torsions:
REMARK  status: ('A' for Active; 'I' for Inactive)
REMARK    1  A    between atoms: C_2  and  C_3
REMARK    2  A    between atoms: C_3  and  C_4
REMARK    3  A    between atoms: C_7  and  C_8
REMARK    4  A    between atoms: C_19  and  C_20
REMARK                            x       y       z     vdW  Elec       q    Type
REMARK                         _______ _______ _______ _____ _____    ______ ____
ROOT
ATOM      1  O   UNL     1       7.045   4.191  16.662  0.00  0.00    +0.000 OA
ATOM      2  C   UNL     1       6.398   5.193  16.978  0.00  0.00    +0.000 C 
ATOM      3  N   UNL     1       5.291   5.001  17.767  0.00  0.00    +0.000 N 
ATOM      4  C   UNL     1       4.318   5.938  18.119  0.00  0.00    +0.000 A 
ATOM      5  C   UNL     1       3.395   5.598  19.095  0.00  0.00    +0.000 A 
ATOM      6  C   UNL     1       2.418   6.535  19.453  0.00  0.00    +0.000 A 
ATOM      7  C   UNL     1       2.360   7.789  18.829  0.00  0.00    +0.000 A 
ATOM      8  C   UNL     1       3.328   8.010  17.855  0.00  0.00    +0.000 A 
ATOM      9  N   UNL     1       4.286   7.124  17.498  0.00  0.00    +0.000 NA
ATOM     10  H   UNL     1       5.180   4.050  18.088  0.00  0.00    +0.000 HD
ENDROOT
BRANCH   7  11
ATOM     11  C   UNL     1       1.367   8.822  19.182  0.00  0.00    +0.000 A 
ATOM     12  C   UNL     1       0.997   9.050  20.520  0.00  0.00    +0.000 A 
ATOM     13  C   UNL     1       0.081  10.050  20.860  0.00  0.00    +0.000 A 
ATOM     14  C   UNL     1      -0.479  10.851  19.871  0.00  0.00    +0.000 A 
ATOM     15  C   UNL     1      -0.133  10.646  18.540  0.00  0.00    +0.000 A 
ATOM     16  C   UNL     1       0.774   9.638  18.200  0.00  0.00    +0.000 A 
ENDBRANCH   7  11
BRANCH   2  17
ATOM     17  C   UNL     1       6.784   6.611  16.579  0.00  0.00    +0.000 C 
BRANCH  17  18
ATOM     18  C   UNL     1       7.535   7.389  17.598  0.00  0.00    +0.000 A 
ATOM     19  C   UNL     1       8.195   6.976  18.732  0.00  0.00    +0.000 A 
ATOM     20  O   UNL     1       8.819   8.049  19.280  0.00  0.00    +0.000 OA
ATOM     21  C   UNL     1       8.518   9.086  18.435  0.00  0.00    +0.000 A 
ATOM     22  N   UNL     1       7.748   8.743  17.419  0.00  0.00    +0.000 NA
BRANCH  21  23
ATOM     23  C   UNL     1       9.111  10.382  18.759  0.00  0.00    +0.000 A 
ATOM     24  C   UNL     1       9.421  10.731  20.083  0.00  0.00    +0.000 A 
ATOM     25  C   UNL     1      10.003  11.963  20.380  0.00  0.00    +0.000 A 
ATOM     26  C   UNL     1      10.282  12.867  19.357  0.00  0.00    +0.000 A 
ATOM     27  C   UNL     1       9.980  12.537  18.038  0.00  0.00    +0.000 A 
ATOM     28  C   UNL     1       9.399  11.301  17.739  0.00  0.00    +0.000 A 
ENDBRANCH  21  23
ENDBRANCH  17  18
ENDBRANCH   2  17
TORSDOF 4
ENDMDL
MODEL 6
REMARK VINA RESULT:      -8.2      2.503      9.587
REMARK  Name = 
REMARK  4 active torsions:
REMARK  status: ('A' for Active; 'I' for Inactive)
REMARK    1  A    between atoms: C_2  and  C_3
REMARK    2  A    between atoms: C_3  and  C_4
REMARK    3  A    between atoms: C_7  and  C_8
REMARK    4  A    between atoms: C_19  and  C_20
REMARK                            x       y       z     vdW  Elec       q    Type
REMARK                         _______ _______ _______ _____ _____    ______ ____
ROOT
ATOM      1  O   UNL     1       4.540   4.453  19.252  0.00  0.00    +0.000 OA
ATOM      2  C   UNL     1       4.077   5.592  19.141  0.00  0.00    +0.000 C 
ATOM      3  N   UNL     1       3.043   5.933  19.976  0.00  0.00    +0.000 N 
ATOM      4  C   UNL     1       2.254   7.084  19.937  0.00  0.00    +0.000 A 
ATOM      5  C   UNL     1       1.400   7.338  20.997  0.00  0.00    +0.000 A 
ATOM      6  C   UNL     1       0.608   8.491  20.963  0.00  0.00    +0.000 A 
ATOM      7  C   UNL     1       0.662   9.370  19.872  0.00  0.00    +0.000 A 
ATOM      8  C   UNL     1       1.545   9.003  18.861  0.00  0.00    +0.000 A 
ATOM      9  N   UNL     1       2.326   7.899  18.876  0.00  0.00    +0.000 NA
ATOM     10  H   UNL     1       2.833   5.231  20.671  0.00  0.00    +0.000 HD
ENDROOT
BRANCH   7  11
ATOM     11  C   UNL     1      -0.133  10.611  19.794  0.00  0.00    +0.000 A 
ATOM     12  C   UNL     1      -0.251  11.471  20.899  0.00  0.00    +0.000 A 
ATOM     13  C   UNL     1      -0.976  12.664  20.818  0.00  0.00    +0.000 A 
ATOM     14  C   UNL     1      -1.592  13.028  19.625  0.00  0.00    +0.000 A 
ATOM     15  C   UNL     1      -1.492  12.195  18.516  0.00  0.00    +0.000 A 
ATOM     16  C   UNL     1      -0.777  10.997  18.603  0.00  0.00    +0.000 A 
ENDBRANCH   7  11
BRANCH   2  17
ATOM     17  C   UNL     1       4.617   6.634  18.168  0.00  0.00    +0.000 C 
BRANCH  17  18
ATOM     18  C   UNL     1       5.598   6.139  17.169  0.00  0.00    +0.000 A 
ATOM     19  C   UNL     1       6.949   5.909  17.279  0.00  0.00    +0.000 A 
ATOM     20  O   UNL     1       7.385   5.355  16.119  0.00  0.00    +0.000 OA
ATOM     21  C   UNL     1       6.259   5.257  15.343  0.00  0.00    +0.000 A 
ATOM     22  N   UNL     1       5.167   5.718  15.924  0.00  0.00    +0.000 NA
BRANCH  21  23
ATOM     23  C   UNL     1       6.426   4.638  14.030  0.00  0.00    +0.000 A 
ATOM     24  C   UNL     1       5.518   3.679  13.555  0.00  0.00    +0.000 A 
ATOM     25  C   UNL     1       5.676   3.108  12.292  0.00  0.00    +0.000 A 
ATOM     26  C   UNL     1       6.748   3.485  11.486  0.00  0.00    +0.000 A 
ATOM     27  C   UNL     1       7.660   4.434  11.942  0.00  0.00    +0.000 A 
ATOM     28  C   UNL     1       7.499   5.009  13.207  0.00  0.00    +0.000 A 
ENDBRANCH  21  23
ENDBRANCH  17  18
ENDBRANCH   2  17
TORSDOF 4
ENDMDL
MODEL 7
REMARK VINA RESULT:      -8.2      2.766      4.462
REMARK  Name = 
REMARK  4 active torsions:
REMARK  status: ('A' for Active; 'I' for Inactive)
REMARK    1  A    between atoms: C_2  and  C_3
REMARK    2  A    between atoms: C_3  and  C_4
REMARK    3  A    between atoms: C_7  and  C_8
REMARK    4  A    between atoms: C_19  and  C_20
REMARK                            x       y       z     vdW  Elec       q    Type
REMARK                         _______ _______ _______ _____ _____    ______ ____
ROOT
ATOM      1  O   UNL     1      -0.200  12.176  21.317  0.00  0.00    +0.000 OA
ATOM      2  C   UNL     1       0.125  11.296  20.516  0.00  0.00    +0.000 C 
ATOM      3  N   UNL     1       0.631  10.130  21.035  0.00  0.00    +0.000 N 
ATOM      4  C   UNL     1       1.211   9.065  20.344  0.00  0.00    +0.000 A 
ATOM      5  C   UNL     1       1.467   7.891  21.032  0.00  0.00    +0.000 A 
ATOM      6  C   UNL     1       2.048   6.819  20.343  0.00  0.00    +0.000 A 
ATOM      7  C   UNL     1       2.381   6.932  18.986  0.00  0.00    +0.000 A 
ATOM      8  C   UNL     1       2.091   8.163  18.406  0.00  0.00    +0.000 A 
ATOM      9  N   UNL     1       1.523   9.209  19.049  0.00  0.00    +0.000 NA
ATOM     10  H   UNL     1       0.591  10.083  22.043  0.00  0.00    +0.000 HD
ENDROOT
BRANCH   7  11
ATOM     11  C   UNL     1       2.973   5.828  18.205  0.00  0.00    +0.000 A 
ATOM     12  C   UNL     1       2.260   4.640  17.966  0.00  0.00    +0.000 A 
ATOM     13  C   UNL     1       2.806   3.606  17.200  0.00  0.00    +0.000 A 
ATOM     14  C   UNL     1       4.075   3.742  16.646  0.00  0.00    +0.000 A 
ATOM     15  C   UNL     1       4.803   4.906  16.867  0.00  0.00    +0.000 A 
ATOM     16  C   UNL     1       4.260   5.934  17.644  0.00  0.00    +0.000 A 
ENDBRANCH   7  11
BRANCH   2  17
ATOM     17  C   UNL     1      -0.045  11.420  19.006  0.00  0.00    +0.000 C 
BRANCH  17  18
ATOM     18  C   UNL     1      -1.417  11.187  18.489  0.00  0.00    +0.000 A 
ATOM     19  C   UNL     1      -1.935  10.138  17.764  0.00  0.00    +0.000 A 
ATOM     20  O   UNL     1      -3.271  10.334  17.622  0.00  0.00    +0.000 OA
ATOM     21  C   UNL     1      -3.516  11.507  18.288  0.00  0.00    +0.000 A 
ATOM     22  N   UNL     1      -2.440  12.058  18.817  0.00  0.00    +0.000 NA
BRANCH  21  23
ATOM     23  C   UNL     1      -4.910  11.945  18.341  0.00  0.00    +0.000 A 
ATOM     24  C   UNL     1      -5.607  12.013  19.557  0.00  0.00    +0.000 A 
ATOM     25  C   UNL     1      -6.931  12.450  19.598  0.00  0.00    +0.000 A 
ATOM     26  C   UNL     1      -7.579  12.823  18.423  0.00  0.00    +0.000 A 
ATOM     27  C   UNL     1      -6.902  12.760  17.207  0.00  0.00    +0.000 A 
ATOM     28  C   UNL     1      -5.574  12.325  17.166  0.00  0.00    +0.000 A 
ENDBRANCH  21  23
ENDBRANCH  17  18
ENDBRANCH   2  17
TORSDOF 4
ENDMDL
MODEL 8
REMARK VINA RESULT:      -8.1      3.495      9.566
REMARK  Name = 
REMARK  4 active torsions:
REMARK  status: ('A' for Active; 'I' for Inactive)
REMARK    1  A    between atoms: C_2  and  C_3
REMARK    2  A    between atoms: C_3  and  C_4
REMARK    3  A    between atoms: C_7  and  C_8
REMARK    4  A    between atoms: C_19  and  C_20
REMARK                            x       y       z     vdW  Elec       q    Type
REMARK                         _______ _______ _______ _____ _____    ______ ____
ROOT
ATOM      1  O   UNL     1       4.459   2.871  18.940  0.00  0.00    +0.000 OA
ATOM      2  C   UNL     1       4.207   4.053  19.195  0.00  0.00    +0.000 C 
ATOM      3  N   UNL     1       2.995   4.324  19.778  0.00  0.00    +0.000 N 
ATOM      4  C   UNL     1       2.418   5.573  20.011  0.00  0.00    +0.000 A 
ATOM      5  C   UNL     1       1.282   5.640  20.802  0.00  0.00    +0.000 A 
ATOM      6  C   UNL     1       0.700   6.891  21.039  0.00  0.00    +0.000 A 
ATOM      7  C   UNL     1       1.241   8.056  20.477  0.00  0.00    +0.000 A 
ATOM      8  C   UNL     1       2.372   7.862  19.690  0.00  0.00    +0.000 A 
ATOM      9  N   UNL     1       2.957   6.665  19.453  0.00  0.00    +0.000 NA
ATOM     10  H   UNL     1       2.470   3.498  20.028  0.00  0.00    +0.000 HD
ENDROOT
BRANCH   7  11
ATOM     11  C   UNL     1       0.683   9.402  20.713  0.00  0.00    +0.000 A 
ATOM     12  C   UNL     1      -0.083   9.683  21.858  0.00  0.00    +0.000 A 
ATOM     13  C   UNL     1      -0.586  10.965  22.100  0.00  0.00    +0.000 A 
ATOM     14  C   UNL     1      -0.326  11.997  21.205  0.00  0.00    +0.000 A 
ATOM     15  C   UNL     1       0.427  11.747  20.063  0.00  0.00    +0.000 A 
ATOM     16  C   UNL     1       0.919  10.462  19.817  0.00  0.00    +0.000 A 
ENDBRANCH   7  11
BRANCH   2  17
ATOM     17  C   UNL     1       5.177   5.199  18.937  0.00  0.00    +0.000 C 
BRANCH  17  18
ATOM     18  C   UNL     1       6.123   5.005  17.808  0.00  0.00    +0.000 A 
ATOM     19  C   UNL     1       7.457   4.672  17.805  0.00  0.00    +0.000 A 
ATOM     20  O   UNL     1       7.855   4.507  16.517  0.00  0.00    +0.000 OA
ATOM     21  C   UNL     1       6.723   4.738  15.779  0.00  0.00    +0.000 A 
ATOM     22  N   UNL     1       5.664   5.046  16.504  0.00  0.00    +0.000 NA
BRANCH  21  23
ATOM     23  C   UNL     1       6.848   4.579  14.331  0.00  0.00    +0.000 A 
ATOM     24  C   UNL     1       6.104   3.613  13.637  0.00  0.00    +0.000 A 
ATOM     25  C   UNL     1       6.217   3.481  12.253  0.00  0.00    +0.000 A 
ATOM     26  C   UNL     1       7.079   4.314  11.542  0.00  0.00    +0.000 A 
ATOM     27  C   UNL     1       7.826   5.278  12.215  0.00  0.00    +0.000 A 
ATOM     28  C   UNL     1       7.711   5.411  13.602  0.00  0.00    +0.000 A 
ENDBRANCH  21  23
ENDBRANCH  17  18
ENDBRANCH   2  17
TORSDOF 4
ENDMDL
MODEL 9
REMARK VINA RESULT:      -8.1      2.510      9.614
REMARK  Name = 
REMARK  4 active torsions:
REMARK  status: ('A' for Active; 'I' for Inactive)
REMARK    1  A    between atoms: C_2  and  C_3
REMARK    2  A    between atoms: C_3  and  C_4
REMARK    3  A    between atoms: C_7  and  C_8
REMARK    4  A    between atoms: C_19  and  C_20
REMARK                            x       y       z     vdW  Elec       q    Type
REMARK                         _______ _______ _______ _____ _____    ______ ____
ROOT
ATOM      1  O   UNL     1       4.532   4.577  19.049  0.00  0.00    +0.000 OA
ATOM      2  C   UNL     1       4.048   5.712  19.030  0.00  0.00    +0.000 C 
ATOM      3  N   UNL     1       3.029   5.976  19.911  0.00  0.00    +0.000 N 
ATOM      4  C   UNL     1       2.221   7.112  19.971  0.00  0.00    +0.000 A 
ATOM      5  C   UNL     1       1.389   7.275  21.067  0.00  0.00    +0.000 A 
ATOM      6  C   UNL     1       0.578   8.414  21.133  0.00  0.00    +0.000 A 
ATOM      7  C   UNL     1       0.591   9.368  20.105  0.00  0.00    +0.000 A 
ATOM      8  C   UNL     1       1.455   9.088  19.051  0.00  0.00    +0.000 A 
ATOM      9  N   UNL     1       2.253   8.000  18.969  0.00  0.00    +0.000 NA
ATOM     10  H   UNL     1       2.848   5.223  20.559  0.00  0.00    +0.000 HD
ENDROOT
BRANCH   7  11
ATOM     11  C   UNL     1      -0.225  10.597  20.133  0.00  0.00    +0.000 A 
ATOM     12  C   UNL     1      -1.210  10.840  19.160  0.00  0.00    +0.000 A 
ATOM     13  C   UNL     1      -2.007  11.988  19.203  0.00  0.00    +0.000 A 
ATOM     14  C   UNL     1      -1.843  12.915  20.227  0.00  0.00    +0.000 A 
ATOM     15  C   UNL     1      -0.875  12.700  21.203  0.00  0.00    +0.000 A 
ATOM     16  C   UNL     1      -0.072  11.558  21.151  0.00  0.00    +0.000 A 
ENDBRANCH   7  11
BRANCH   2  17
ATOM     17  C   UNL     1       4.546   6.829  18.120  0.00  0.00    +0.000 C 
BRANCH  17  18
ATOM     18  C   UNL     1       5.533   6.428  17.085  0.00  0.00    +0.000 A 
ATOM     19  C   UNL     1       6.908   6.439  17.106  0.00  0.00    +0.000 A 
ATOM     20  O   UNL     1       7.359   5.876  15.957  0.00  0.00    +0.000 OA
ATOM     21  C   UNL     1       6.220   5.527  15.278  0.00  0.00    +0.000 A 
ATOM     22  N   UNL     1       5.103   5.843  15.908  0.00  0.00    +0.000 NA
BRANCH  21  23
ATOM     23  C   UNL     1       6.408   4.843  14.001  0.00  0.00    +0.000 A 
ATOM     24  C   UNL     1       7.509   5.125  13.178  0.00  0.00    +0.000 A 
ATOM     25  C   UNL     1       7.689   4.452  11.968  0.00  0.00    +0.000 A 
ATOM     26  C   UNL     1       6.768   3.488  11.563  0.00  0.00    +0.000 A 
ATOM     27  C   UNL     1       5.668   3.197  12.368  0.00  0.00    +0.000 A 
ATOM     28  C   UNL     1       5.490   3.869  13.581  0.00  0.00    +0.000 A 
ENDBRANCH  21  23
ENDBRANCH  17  18
ENDBRANCH   2  17
TORSDOF 4
ENDMDL
