MODEL 1
REMARK VINA RESULT:      -9.0      0.000      0.000
REMARK  Name = 
REMARK  7 active torsions:
REMARK  status: ('A' for Active; 'I' for Inactive)
REMARK    1  A    between atoms: C_1  and  C_2
REMARK    2  A    between atoms: C_5  and  C_6
REMARK    3  A    between atoms: C_6  and  O_8
REMARK    4  A    between atoms: C_10  and  S_11
REMARK    5  A    between atoms: S_11  and  N_14
REMARK    6  A    between atoms: N_14  and  C_15
REMARK    7  A    between atoms: C_19  and  C_20
REMARK                            x       y       z     vdW  Elec       q    Type
REMARK                         _______ _______ _______ _____ _____    ______ ____
ROOT
ATOM      1  N   UNL     1       4.069   2.775  18.343  0.00  0.00    +0.000 N 
ATOM      2  H   UNL     1       4.261   2.185  19.154  0.00  0.00    +0.000 HD
ENDROOT
BRANCH   1   3
ATOM      3  C   UNL     1       5.007   3.819  18.106  0.00  0.00    +0.000 A 
ATOM      4  C   UNL     1       5.580   4.547  19.147  0.00  0.00    +0.000 A 
ATOM      5  C   UNL     1       6.609   5.454  18.876  0.00  0.00    +0.000 A 
ATOM      6  C   UNL     1       7.056   5.631  17.563  0.00  0.00    +0.000 A 
ATOM      7  C   UNL     1       6.475   4.913  16.513  0.00  0.00    +0.000 A 
ATOM      8  C   UNL     1       5.457   3.993  16.802  0.00  0.00    +0.000 A 
BRANCH   7   9
ATOM      9  C   UNL     1       6.985   5.061  15.147  0.00  0.00    +0.000 A 
ATOM     10  N   UNL     1       7.959   5.872  14.787  0.00  0.00    +0.000 NA
ATOM     11  N   UNL     1       8.239   5.658  13.463  0.00  0.00    +0.000 NA
ATOM     12  C   UNL     1       7.412   4.740  13.009  0.00  0.00    +0.000 A 
ATOM     13  N   UNL     1       6.557   4.381  14.024  0.00  0.00    +0.000 N 
ATOM     14  C   UNL     1       5.415   3.491  13.938  0.00  0.00    +0.000 C 
ATOM     15  C   UNL     1       4.647   3.578  12.629  0.00  0.00    +0.000 C 
ATOM     16  C   UNL     1       5.294   2.793  11.490  0.00  0.00    +0.000 C 
ATOM     17  C   UNL     1       6.822   2.819  11.456  0.00  0.00    +0.000 C 
ATOM     18  C   UNL     1       7.409   4.217  11.612  0.00  0.00    +0.000 C 
ENDBRANCH   7   9
ENDBRANCH   1   3
BRANCH   1  19
ATOM     19  S   UNL     1       2.420   3.044  18.180  0.00  0.00    +0.000 S 
ATOM     20  O   UNL     1       1.700   2.027  18.919  0.00  0.00    +0.000 OA
ATOM     21  O   UNL     1       2.177   3.231  16.766  0.00  0.00    +0.000 OA
BRANCH  19  28
ATOM     22  C   UNL     1       1.917   3.636  21.332  0.00  0.00    +0.000 C 
ATOM     23  C   UNL     1       1.942   4.780  20.359  0.00  0.00    +0.000 A 
ATOM     24  C   UNL     1       1.845   6.087  20.883  0.00  0.00    +0.000 A 
ATOM     25  C   UNL     1       1.933   7.208  20.056  0.00  0.00    +0.000 A 
ATOM     26  C   UNL     1       2.111   7.049  18.680  0.00  0.00    +0.000 A 
ATOM     27  C   UNL     1       2.163   5.762  18.133  0.00  0.00    +0.000 A 
ATOM     28  C   UNL     1       2.094   4.628  18.964  0.00  0.00    +0.000 A 
BRANCH  26  29
ATOM     29  C   UNL     1       2.227   8.270  17.845  0.00  0.00    +0.000 C 
ATOM     30  O   UNL     1       3.092   8.400  16.995  0.00  0.00    +0.000 OA
BRANCH  29  31
ATOM     31  O   UNL     1       1.276   9.198  18.080  0.00  0.00    +0.000 OA
ATOM     32  H   UNL     1       0.991   9.729  17.314  0.00  0.00    +0.000 HD
ENDBRANCH  29  31
ENDBRANCH  26  29
ENDBRANCH  19  28
ENDBRANCH   1  19
TORSDOF 6
ENDMDL
MODEL 2
REMARK VINA RESULT:      -8.6      3.706      5.525
REMARK  Name = 
REMARK  7 active torsions:
REMARK  status: ('A' for Active; 'I' for Inactive)
REMARK    1  A    between atoms: C_1  and  C_2
REMARK    2  A    between atoms: C_5  and  C_6
REMARK    3  A    between atoms: C_6  and  O_8
REMARK    4  A    between atoms: C_10  and  S_11
REMARK    5  A    between atoms: S_11  and  N_14
REMARK    6  A    between atoms: N_14  and  C_15
REMARK    7  A    between atoms: C_19  and  C_20
REMARK                            x       y       z     vdW  Elec       q    Type
REMARK                         _______ _______ _______ _____ _____    ______ ____
ROOT
ATOM      1  N   UNL     1       1.331   8.108  20.077  0.00  0.00    +0.000 N 
ATOM      2  H   UNL     1       0.731   8.228  19.258  0.00  0.00    +0.000 HD
ENDROOT
BRANCH   1   3
ATOM      3  C   UNL     1       1.927   6.824  20.219  0.00  0.00    +0.000 A 
ATOM      4  C   UNL     1       1.220   5.732  20.718  0.00  0.00    +0.000 A 
ATOM      5  C   UNL     1       1.800   4.460  20.693  0.00  0.00    +0.000 A 
ATOM      6  C   UNL     1       3.086   4.288  20.174  0.00  0.00    +0.000 A 
ATOM      7  C   UNL     1       3.806   5.383  19.684  0.00  0.00    +0.000 A 
ATOM      8  C   UNL     1       3.205   6.650  19.698  0.00  0.00    +0.000 A 
BRANCH   7   9
ATOM      9  C   UNL     1       5.131   5.189  19.091  0.00  0.00    +0.000 A 
ATOM     10  N   UNL     1       6.251   5.045  19.769  0.00  0.00    +0.000 NA
ATOM     11  N   UNL     1       7.264   4.771  18.889  0.00  0.00    +0.000 NA
ATOM     12  C   UNL     1       6.766   4.781  17.670  0.00  0.00    +0.000 A 
ATOM     13  N   UNL     1       5.433   5.106  17.746  0.00  0.00    +0.000 N 
ATOM     14  C   UNL     1       4.523   5.344  16.642  0.00  0.00    +0.000 C 
ATOM     15  C   UNL     1       5.153   6.041  15.447  0.00  0.00    +0.000 C 
ATOM     16  C   UNL     1       5.943   5.100  14.540  0.00  0.00    +0.000 C 
ATOM     17  C   UNL     1       6.728   4.000  15.254  0.00  0.00    +0.000 C 
ATOM     18  C   UNL     1       7.550   4.508  16.431  0.00  0.00    +0.000 C 
ENDBRANCH   7   9
ENDBRANCH   1   3
BRANCH   1  19
ATOM     19  S   UNL     1       0.694   8.916  21.404  0.00  0.00    +0.000 S 
ATOM     20  O   UNL     1       1.664   8.896  22.480  0.00  0.00    +0.000 OA
ATOM     21  O   UNL     1      -0.635   8.380  21.605  0.00  0.00    +0.000 OA
BRANCH  19  28
ATOM     22  C   UNL     1      -1.020  11.238  22.890  0.00  0.00    +0.000 C 
ATOM     23  C   UNL     1      -0.249  11.570  21.644  0.00  0.00    +0.000 A 
ATOM     24  C   UNL     1      -0.224  12.919  21.231  0.00  0.00    +0.000 A 
ATOM     25  C   UNL     1       0.527  13.325  20.126  0.00  0.00    +0.000 A 
ATOM     26  C   UNL     1       1.267  12.387  19.402  0.00  0.00    +0.000 A 
ATOM     27  C   UNL     1       1.219  11.037  19.766  0.00  0.00    +0.000 A 
ATOM     28  C   UNL     1       0.479  10.624  20.890  0.00  0.00    +0.000 A 
BRANCH  26  29
ATOM     29  C   UNL     1       2.072  12.870  18.253  0.00  0.00    +0.000 C 
ATOM     30  O   UNL     1       2.345  14.048  18.096  0.00  0.00    +0.000 OA
BRANCH  29  31
ATOM     31  O   UNL     1       2.505  11.895  17.427  0.00  0.00    +0.000 OA
ATOM     32  H   UNL     1       1.819  11.416  16.926  0.00  0.00    +0.000 HD
ENDBRANCH  29  31
ENDBRANCH  26  29
ENDBRANCH  19  28
ENDBRANCH   1  19
TORSDOF 6
ENDMDL
MODEL 3
REMARK VINA RESULT:      -8.6      4.822      9.217
REMARK  Name = 
REMARK  7 active torsions:
REMARK  status: ('A' for Active; 'I' for Inactive)
REMARK    1  A    between atoms: C_1  and  C_2
REMARK    2  A    between atoms: C_5  and  C_6
REMARK    3  A    between atoms: C_6  and  O_8
REMARK    4  A    between atoms: C_10  and  S_11
REMARK    5  A    between atoms: S_11  and  N_14
REMARK    6  A    between atoms: N_14  and  C_15
REMARK    7  A    between atoms: C_19  and  C_20
REMARK                            x       y       z     vdW  Elec       q    Type
REMARK                         _______ _______ _______ _____ _____    ______ ____
ROOT
ATOM      1  N   UNL     1       2.763   5.929  20.366  0.00  0.00    +0.000 N 
ATOM      2  H   UNL     1       2.538   5.649  21.322  0.00  0.00    +0.000 HD
ENDROOT
BRANCH   1   3
ATOM      3  C   UNL     1       2.276   7.207  19.969  0.00  0.00    +0.000 A 
ATOM      4  C   UNL     1       2.399   7.670  18.661  0.00  0.00    +0.000 A 
ATOM      5  C   UNL     1       1.770   8.861  18.285  0.00  0.00    +0.000 A 
ATOM      6  C   UNL     1       1.026   9.584  19.222  0.00  0.00    +0.000 A 
ATOM      7  C   UNL     1       0.911   9.130  20.540  0.00  0.00    +0.000 A 
ATOM      8  C   UNL     1       1.531   7.924  20.898  0.00  0.00    +0.000 A 
BRANCH   7   9
ATOM      9  C   UNL     1       0.084   9.862  21.503  0.00  0.00    +0.000 A 
ATOM     10  N   UNL     1      -0.128   9.497  22.751  0.00  0.00    +0.000 NA
ATOM     11  N   UNL     1      -0.850  10.478  23.378  0.00  0.00    +0.000 NA
ATOM     12  C   UNL     1      -1.106  11.426  22.501  0.00  0.00    +0.000 A 
ATOM     13  N   UNL     1      -0.590  11.047  21.284  0.00  0.00    +0.000 N 
ATOM     14  C   UNL     1      -0.740  11.731  20.014  0.00  0.00    +0.000 C 
ATOM     15  C   UNL     1      -2.095  12.391  19.812  0.00  0.00    +0.000 C 
ATOM     16  C   UNL     1      -2.224  13.743  20.510  0.00  0.00    +0.000 C 
ATOM     17  C   UNL     1      -1.544  13.848  21.876  0.00  0.00    +0.000 C 
ATOM     18  C   UNL     1      -1.858  12.678  22.800  0.00  0.00    +0.000 C 
ENDBRANCH   7   9
ENDBRANCH   1   3
BRANCH   1  19
ATOM     19  S   UNL     1       2.681   4.613  19.326  0.00  0.00    +0.000 S 
ATOM     20  O   UNL     1       1.706   4.889  18.290  0.00  0.00    +0.000 OA
ATOM     21  O   UNL     1       2.547   3.442  20.165  0.00  0.00    +0.000 OA
BRANCH  19  28
ATOM     22  C   UNL     1       3.410   3.267  16.464  0.00  0.00    +0.000 C 
ATOM     23  C   UNL     1       4.492   3.933  17.266  0.00  0.00    +0.000 A 
ATOM     24  C   UNL     1       5.773   4.031  16.680  0.00  0.00    +0.000 A 
ATOM     25  C   UNL     1       6.815   4.698  17.326  0.00  0.00    +0.000 A 
ATOM     26  C   UNL     1       6.603   5.276  18.581  0.00  0.00    +0.000 A 
ATOM     27  C   UNL     1       5.355   5.150  19.199  0.00  0.00    +0.000 A 
ATOM     28  C   UNL     1       4.295   4.495  18.545  0.00  0.00    +0.000 A 
BRANCH  26  29
ATOM     29  C   UNL     1       7.733   5.999  19.216  0.00  0.00    +0.000 C 
ATOM     30  O   UNL     1       8.242   6.986  18.713  0.00  0.00    +0.000 OA
BRANCH  29  31
ATOM     31  O   UNL     1       8.118   5.495  20.406  0.00  0.00    +0.000 OA
ATOM     32  H   UNL     1       8.730   6.044  20.932  0.00  0.00    +0.000 HD
ENDBRANCH  29  31
ENDBRANCH  26  29
ENDBRANCH  19  28
ENDBRANCH   1  19
TORSDOF 6
ENDMDL
MODEL 4
REMARK VINA RESULT:      -8.5      4.835      9.224
REMARK  Name = 
REMARK  7 active torsions:
REMARK  status: ('A' for Active; 'I' for Inactive)
REMARK    1  A    between atoms: C_1  and  C_2
REMARK    2  A    between atoms: C_5  and  C_6
REMARK    3  A    between atoms: C_6  and  O_8
REMARK    4  A    between atoms: C_10  and  S_11
REMARK    5  A    between atoms: S_11  and  N_14
REMARK    6  A    between atoms: N_14  and  C_15
REMARK    7  A    between atoms: C_19  and  C_20
REMARK                            x       y       z     vdW  Elec       q    Type
REMARK                         _______ _______ _______ _____ _____    ______ ____
ROOT
ATOM      1  N   UNL     1       2.834   6.160  20.392  0.00  0.00    +0.000 N 
ATOM      2  H   UNL     1       2.765   5.976  21.395  0.00  0.00    +0.000 HD
ENDROOT
BRANCH   1   3
ATOM      3  C   UNL     1       2.274   7.393  19.954  0.00  0.00    +0.000 A 
ATOM      4  C   UNL     1       2.301   7.783  18.617  0.00  0.00    +0.000 A 
ATOM      5  C   UNL     1       1.604   8.925  18.213  0.00  0.00    +0.000 A 
ATOM      6  C   UNL     1       0.889   9.676  19.150  0.00  0.00    +0.000 A 
ATOM      7  C   UNL     1       0.870   9.297  20.497  0.00  0.00    +0.000 A 
ATOM      8  C   UNL     1       1.558   8.138  20.884  0.00  0.00    +0.000 A 
BRANCH   7   9
ATOM      9  C   UNL     1       0.074  10.055  21.465  0.00  0.00    +0.000 A 
ATOM     10  N   UNL     1      -0.504   9.545  22.535  0.00  0.00    +0.000 NA
ATOM     11  N   UNL     1      -1.060  10.565  23.259  0.00  0.00    +0.000 NA
ATOM     12  C   UNL     1      -0.849  11.694  22.614  0.00  0.00    +0.000 A 
ATOM     13  N   UNL     1      -0.192  11.409  21.440  0.00  0.00    +0.000 N 
ATOM     14  C   UNL     1       0.136  12.333  20.371  0.00  0.00    +0.000 C 
ATOM     15  C   UNL     1      -0.911  13.406  20.124  0.00  0.00    +0.000 C 
ATOM     16  C   UNL     1      -0.829  14.575  21.104  0.00  0.00    +0.000 C 
ATOM     17  C   UNL     1      -0.473  14.204  22.544  0.00  0.00    +0.000 C 
ATOM     18  C   UNL     1      -1.288  13.038  23.089  0.00  0.00    +0.000 C 
ENDBRANCH   7   9
ENDBRANCH   1   3
BRANCH   1  19
ATOM     19  S   UNL     1       2.608   4.749  19.512  0.00  0.00    +0.000 S 
ATOM     20  O   UNL     1       1.432   4.894  18.679  0.00  0.00    +0.000 OA
ATOM     21  O   UNL     1       2.706   3.660  20.459  0.00  0.00    +0.000 OA
BRANCH  19  28
ATOM     22  C   UNL     1       2.972   2.783  16.954  0.00  0.00    +0.000 C 
ATOM     23  C   UNL     1       4.066   3.751  17.305  0.00  0.00    +0.000 A 
ATOM     24  C   UNL     1       5.173   3.831  16.433  0.00  0.00    +0.000 A 
ATOM     25  C   UNL     1       6.198   4.754  16.646  0.00  0.00    +0.000 A 
ATOM     26  C   UNL     1       6.145   5.616  17.744  0.00  0.00    +0.000 A 
ATOM     27  C   UNL     1       5.081   5.521  18.647  0.00  0.00    +0.000 A 
ATOM     28  C   UNL     1       4.034   4.606  18.428  0.00  0.00    +0.000 A 
BRANCH  26  29
ATOM     29  C   UNL     1       7.243   6.599  17.913  0.00  0.00    +0.000 C 
ATOM     30  O   UNL     1       8.056   6.521  18.818  0.00  0.00    +0.000 OA
BRANCH  29  31
ATOM     31  O   UNL     1       7.285   7.556  16.963  0.00  0.00    +0.000 OA
ATOM     32  H   UNL     1       7.527   7.264  16.065  0.00  0.00    +0.000 HD
ENDBRANCH  29  31
ENDBRANCH  26  29
ENDBRANCH  19  28
ENDBRANCH   1  19
TORSDOF 6
ENDMDL
MODEL 5
REMARK VINA RESULT:      -8.4      4.842      9.242
REMARK  Name = 
REMARK  7 active torsions:
REMARK  status: ('A' for Active; 'I' for Inactive)
REMARK    1  A    between atoms: C_1  and  C_2
REMARK    2  A    between atoms: C_5  and  C_6
REMARK    3  A    between atoms: C_6  and  O_8
REMARK    4  A    between atoms: C_10  and  S_11
REMARK    5  A    between atoms: S_11  and  N_14
REMARK    6  A    between atoms: N_14  and  C_15
REMARK    7  A    between atoms: C_19  and  C_20
REMARK                            x       y       z     vdW  Elec       q    Type
REMARK                         _______ _______ _______ _____ _____    ______ ____
ROOT
ATOM      1  N   UNL     1       3.042   6.391  20.061  0.00  0.00    +0.000 N 
ATOM      2  H   UNL     1       3.311   6.324  21.045  0.00  0.00    +0.000 HD
ENDROOT
BRANCH   1   3
ATOM      3  C   UNL     1       2.319   7.563  19.702  0.00  0.00    +0.000 A 
ATOM      4  C   UNL     1       2.200   7.980  18.378  0.00  0.00    +0.000 A 
ATOM      5  C   UNL     1       1.353   9.046  18.060  0.00  0.00    +0.000 A 
ATOM      6  C   UNL     1       0.634   9.693  19.069  0.00  0.00    +0.000 A 
ATOM      7  C   UNL     1       0.760   9.286  20.402  0.00  0.00    +0.000 A 
ATOM      8  C   UNL     1       1.599   8.204  20.703  0.00  0.00    +0.000 A 
BRANCH   7   9
ATOM      9  C   UNL     1      -0.038   9.930  21.448  0.00  0.00    +0.000 A 
ATOM     10  N   UNL     1      -0.135   9.510  22.693  0.00  0.00    +0.000 NA
ATOM     11  N   UNL     1      -0.869  10.420  23.406  0.00  0.00    +0.000 NA
ATOM     12  C   UNL     1      -1.248  11.379  22.587  0.00  0.00    +0.000 A 
ATOM     13  N   UNL     1      -0.799  11.075  21.323  0.00  0.00    +0.000 N 
ATOM     14  C   UNL     1      -1.085  11.791  20.094  0.00  0.00    +0.000 C 
ATOM     15  C   UNL     1      -2.489  12.368  20.014  0.00  0.00    +0.000 C 
ATOM     16  C   UNL     1      -2.651  13.684  20.771  0.00  0.00    +0.000 C 
ATOM     17  C   UNL     1      -1.881  13.787  22.088  0.00  0.00    +0.000 C 
ATOM     18  C   UNL     1      -2.053  12.569  22.987  0.00  0.00    +0.000 C 
ENDBRANCH   7   9
ENDBRANCH   1   3
BRANCH   1  19
ATOM     19  S   UNL     1       2.603   4.887  19.460  0.00  0.00    +0.000 S 
ATOM     20  O   UNL     1       1.322   5.000  18.792  0.00  0.00    +0.000 OA
ATOM     21  O   UNL     1       2.783   3.948  20.546  0.00  0.00    +0.000 OA
BRANCH  19  28
ATOM     22  C   UNL     1       2.706   2.247  17.574  0.00  0.00    +0.000 C 
ATOM     23  C   UNL     1       3.753   3.313  17.413  0.00  0.00    +0.000 A 
ATOM     24  C   UNL     1       4.686   3.160  16.365  0.00  0.00    +0.000 A 
ATOM     25  C   UNL     1       5.646   4.139  16.100  0.00  0.00    +0.000 A 
ATOM     26  C   UNL     1       5.701   5.293  16.886  0.00  0.00    +0.000 A 
ATOM     27  C   UNL     1       4.816   5.443  17.959  0.00  0.00    +0.000 A 
ATOM     28  C   UNL     1       3.834   4.468  18.219  0.00  0.00    +0.000 A 
BRANCH  26  29
ATOM     29  C   UNL     1       6.719   6.318  16.549  0.00  0.00    +0.000 C 
ATOM     30  O   UNL     1       6.773   7.396  17.117  0.00  0.00    +0.000 OA
BRANCH  29  31
ATOM     31  O   UNL     1       7.596   5.940  15.596  0.00  0.00    +0.000 OA
ATOM     32  H   UNL     1       8.521   5.824  15.880  0.00  0.00    +0.000 HD
ENDBRANCH  29  31
ENDBRANCH  26  29
ENDBRANCH  19  28
ENDBRANCH   1  19
TORSDOF 6
ENDMDL
MODEL 6
REMARK VINA RESULT:      -8.4      4.756      8.827
REMARK  Name = 
REMARK  7 active torsions:
REMARK  status: ('A' for Active; 'I' for Inactive)
REMARK    1  A    between atoms: C_1  and  C_2
REMARK    2  A    between atoms: C_5  and  C_6
REMARK    3  A    between atoms: C_6  and  O_8
REMARK    4  A    between atoms: C_10  and  S_11
REMARK    5  A    between atoms: S_11  and  N_14
REMARK    6  A    between atoms: N_14  and  C_15
REMARK    7  A    between atoms: C_19  and  C_20
REMARK                            x       y       z     vdW  Elec       q    Type
REMARK                         _______ _______ _______ _____ _____    ______ ____
ROOT
ATOM      1  N   UNL     1       2.447   5.876  20.759  0.00  0.00    +0.000 N 
ATOM      2  H   UNL     1       2.027   5.819  21.689  0.00  0.00    +0.000 HD
ENDROOT
BRANCH   1   3
ATOM      3  C   UNL     1       2.184   7.075  20.039  0.00  0.00    +0.000 A 
ATOM      4  C   UNL     1       2.417   7.180  18.669  0.00  0.00    +0.000 A 
ATOM      5  C   UNL     1       1.999   8.322  17.980  0.00  0.00    +0.000 A 
ATOM      6  C   UNL     1       1.354   9.355  18.665  0.00  0.00    +0.000 A 
ATOM      7  C   UNL     1       1.129   9.260  20.043  0.00  0.00    +0.000 A 
ATOM      8  C   UNL     1       1.537   8.101  20.718  0.00  0.00    +0.000 A 
BRANCH   7   9
ATOM      9  C   UNL     1       0.403  10.321  20.746  0.00  0.00    +0.000 A 
ATOM     10  N   UNL     1      -0.606  10.129  21.572  0.00  0.00    +0.000 NA
ATOM     11  N   UNL     1      -0.955  11.332  22.124  0.00  0.00    +0.000 NA
ATOM     12  C   UNL     1      -0.179  12.263  21.610  0.00  0.00    +0.000 A 
ATOM     13  N   UNL     1       0.652  11.677  20.684  0.00  0.00    +0.000 N 
ATOM     14  C   UNL     1       1.585  12.343  19.795  0.00  0.00    +0.000 C 
ATOM     15  C   UNL     1       1.106  13.689  19.275  0.00  0.00    +0.000 C 
ATOM     16  C   UNL     1       1.302  14.831  20.269  0.00  0.00    +0.000 C 
ATOM     17  C   UNL     1       1.061  14.476  21.737  0.00  0.00    +0.000 C 
ATOM     18  C   UNL     1      -0.234  13.709  21.971  0.00  0.00    +0.000 C 
ENDBRANCH   7   9
ENDBRANCH   1   3
BRANCH   1  19
ATOM     19  S   UNL     1       2.406   4.382  19.995  0.00  0.00    +0.000 S 
ATOM     20  O   UNL     1       1.255   4.332  19.116  0.00  0.00    +0.000 OA
ATOM     21  O   UNL     1       2.578   3.390  21.034  0.00  0.00    +0.000 OA
BRANCH  19  28
ATOM     22  C   UNL     1       2.670   3.236  16.969  0.00  0.00    +0.000 C 
ATOM     23  C   UNL     1       3.873   3.834  17.642  0.00  0.00    +0.000 A 
ATOM     24  C   UNL     1       5.053   3.962  16.878  0.00  0.00    +0.000 A 
ATOM     25  C   UNL     1       6.194   4.572  17.403  0.00  0.00    +0.000 A 
ATOM     26  C   UNL     1       6.184   5.062  18.711  0.00  0.00    +0.000 A 
ATOM     27  C   UNL     1       5.041   4.903  19.501  0.00  0.00    +0.000 A 
ATOM     28  C   UNL     1       3.881   4.306  18.972  0.00  0.00    +0.000 A 
BRANCH  26  29
ATOM     29  C   UNL     1       7.410   5.728  19.216  0.00  0.00    +0.000 C 
ATOM     30  O   UNL     1       7.916   5.440  20.287  0.00  0.00    +0.000 OA
BRANCH  29  31
ATOM     31  O   UNL     1       7.932   6.645  18.375  0.00  0.00    +0.000 OA
ATOM     32  H   UNL     1       8.699   7.149  18.706  0.00  0.00    +0.000 HD
ENDBRANCH  29  31
ENDBRANCH  26  29
ENDBRANCH  19  28
ENDBRANCH   1  19
TORSDOF 6
ENDMDL
MODEL 7
REMARK VINA RESULT:      -8.3      4.831      8.818
REMARK  Name = 
REMARK  7 active torsions:
REMARK  status: ('A' for Active; 'I' for Inactive)
REMARK    1  A    between atoms: C_1  and  C_2
REMARK    2  A    between atoms: C_5  and  C_6
REMARK    3  A    between atoms: C_6  and  O_8
REMARK    4  A    between atoms: C_10  and  S_11
REMARK    5  A    between atoms: S_11  and  N_14
REMARK    6  A    between atoms: N_14  and  C_15
REMARK    7  A    between atoms: C_19  and  C_20
REMARK                            x       y       z     vdW  Elec       q    Type
REMARK                         _______ _______ _______ _____ _____    ______ ____
ROOT
ATOM      1  N   UNL     1       2.399   6.398  20.611  0.00  0.00    +0.000 N 
ATOM      2  H   UNL     1       1.943   6.524  21.516  0.00  0.00    +0.000 HD
ENDROOT
BRANCH   1   3
ATOM      3  C   UNL     1       2.222   7.461  19.680  0.00  0.00    +0.000 A 
ATOM      4  C   UNL     1       2.787   7.429  18.407  0.00  0.00    +0.000 A 
ATOM      5  C   UNL     1       2.458   8.420  17.477  0.00  0.00    +0.000 A 
ATOM      6  C   UNL     1       1.568   9.439  17.827  0.00  0.00    +0.000 A 
ATOM      7  C   UNL     1       1.008   9.482  19.109  0.00  0.00    +0.000 A 
ATOM      8  C   UNL     1       1.333   8.472  20.025  0.00  0.00    +0.000 A 
BRANCH   7   9
ATOM      9  C   UNL     1       0.033  10.521  19.452  0.00  0.00    +0.000 A 
ATOM     10  N   UNL     1      -1.251  10.482  19.157  0.00  0.00    +0.000 NA
ATOM     11  N   UNL     1      -1.865  11.561  19.734  0.00  0.00    +0.000 NA
ATOM     12  C   UNL     1      -0.949  12.276  20.354  0.00  0.00    +0.000 A 
ATOM     13  N   UNL     1       0.276  11.689  20.147  0.00  0.00    +0.000 N 
ATOM     14  C   UNL     1       1.573  12.200  20.547  0.00  0.00    +0.000 C 
ATOM     15  C   UNL     1       1.708  13.712  20.461  0.00  0.00    +0.000 C 
ATOM     16  C   UNL     1       1.097  14.447  21.651  0.00  0.00    +0.000 C 
ATOM     17  C   UNL     1      -0.198  13.848  22.201  0.00  0.00    +0.000 C 
ATOM     18  C   UNL     1      -1.223  13.525  21.122  0.00  0.00    +0.000 C 
ENDBRANCH   7   9
ENDBRANCH   1   3
BRANCH   1  19
ATOM     19  S   UNL     1       2.312   4.796  20.119  0.00  0.00    +0.000 S 
ATOM     20  O   UNL     1       1.140   4.620  19.284  0.00  0.00    +0.000 OA
ATOM     21  O   UNL     1       2.489   3.995  21.311  0.00  0.00    +0.000 OA
BRANCH  19  28
ATOM     22  C   UNL     1       2.448   3.324  17.229  0.00  0.00    +0.000 C 
ATOM     23  C   UNL     1       3.700   3.903  17.824  0.00  0.00    +0.000 A 
ATOM     24  C   UNL     1       4.873   3.868  17.040  0.00  0.00    +0.000 A 
ATOM     25  C   UNL     1       6.061   4.448  17.487  0.00  0.00    +0.000 A 
ATOM     26  C   UNL     1       6.106   5.071  18.737  0.00  0.00    +0.000 A 
ATOM     27  C   UNL     1       4.968   5.076  19.549  0.00  0.00    +0.000 A 
ATOM     28  C   UNL     1       3.762   4.509  19.096  0.00  0.00    +0.000 A 
BRANCH  26  29
ATOM     29  C   UNL     1       7.384   5.699  19.158  0.00  0.00    +0.000 C 
ATOM     30  O   UNL     1       8.035   5.285  20.102  0.00  0.00    +0.000 OA
BRANCH  29  31
ATOM     31  O   UNL     1       7.776   6.734  18.386  0.00  0.00    +0.000 OA
ATOM     32  H   UNL     1       7.183   7.508  18.365  0.00  0.00    +0.000 HD
ENDBRANCH  29  31
ENDBRANCH  26  29
ENDBRANCH  19  28
ENDBRANCH   1  19
TORSDOF 6
ENDMDL
MODEL 8
REMARK VINA RESULT:      -8.3      3.659      5.611
REMARK  Name = 
REMARK  7 active torsions:
REMARK  status: ('A' for Active; 'I' for Inactive)
REMARK    1  A    between atoms: C_1  and  C_2
REMARK    2  A    between atoms: C_5  and  C_6
REMARK    3  A    between atoms: C_6  and  O_8
REMARK    4  A    between atoms: C_10  and  S_11
REMARK    5  A    between atoms: S_11  and  N_14
REMARK    6  A    between atoms: N_14  and  C_15
REMARK    7  A    between atoms: C_19  and  C_20
REMARK                            x       y       z     vdW  Elec       q    Type
REMARK                         _______ _______ _______ _____ _____    ______ ____
ROOT
ATOM      1  N   UNL     1       1.500   8.556  20.008  0.00  0.00    +0.000 N 
ATOM      2  H   UNL     1       1.916   9.228  20.655  0.00  0.00    +0.000 HD
ENDROOT
BRANCH   1   3
ATOM      3  C   UNL     1       1.964   7.216  20.131  0.00  0.00    +0.000 A 
ATOM      4  C   UNL     1       1.138   6.186  20.576  0.00  0.00    +0.000 A 
ATOM      5  C   UNL     1       1.592   4.865  20.532  0.00  0.00    +0.000 A 
ATOM      6  C   UNL     1       2.873   4.581  20.049  0.00  0.00    +0.000 A 
ATOM      7  C   UNL     1       3.711   5.613  19.613  0.00  0.00    +0.000 A 
ATOM      8  C   UNL     1       3.235   6.932  19.645  0.00  0.00    +0.000 A 
BRANCH   7   9
ATOM      9  C   UNL     1       5.030   5.306  19.055  0.00  0.00    +0.000 A 
ATOM     10  N   UNL     1       6.119   5.084  19.764  0.00  0.00    +0.000 NA
ATOM     11  N   UNL     1       7.128   4.717  18.913  0.00  0.00    +0.000 NA
ATOM     12  C   UNL     1       6.661   4.747  17.682  0.00  0.00    +0.000 A 
ATOM     13  N   UNL     1       5.356   5.178  17.720  0.00  0.00    +0.000 N 
ATOM     14  C   UNL     1       4.495   5.470  16.590  0.00  0.00    +0.000 C 
ATOM     15  C   UNL     1       5.206   6.097  15.402  0.00  0.00    +0.000 C 
ATOM     16  C   UNL     1       5.940   5.083  14.528  0.00  0.00    +0.000 C 
ATOM     17  C   UNL     1       6.618   3.934  15.277  0.00  0.00    +0.000 C 
ATOM     18  C   UNL     1       7.450   4.395  16.466  0.00  0.00    +0.000 C 
ENDBRANCH   7   9
ENDBRANCH   1   3
BRANCH   1  19
ATOM     19  S   UNL     1       1.264   9.252  18.499  0.00  0.00    +0.000 S 
ATOM     20  O   UNL     1       1.103   8.203  17.513  0.00  0.00    +0.000 OA
ATOM     21  O   UNL     1       2.301  10.249  18.345  0.00  0.00    +0.000 OA
BRANCH  19  28
ATOM     22  C   UNL     1       0.325  11.341  20.800  0.00  0.00    +0.000 C 
ATOM     23  C   UNL     1      -0.575  11.080  19.626  0.00  0.00    +0.000 A 
ATOM     24  C   UNL     1      -1.758  11.844  19.526  0.00  0.00    +0.000 A 
ATOM     25  C   UNL     1      -2.613  11.716  18.430  0.00  0.00    +0.000 A 
ATOM     26  C   UNL     1      -2.309  10.812  17.409  0.00  0.00    +0.000 A 
ATOM     27  C   UNL     1      -1.166  10.013  17.510  0.00  0.00    +0.000 A 
ATOM     28  C   UNL     1      -0.290  10.150  18.603  0.00  0.00    +0.000 A 
BRANCH  26  29
ATOM     29  C   UNL     1      -3.233  10.732  16.250  0.00  0.00    +0.000 C 
ATOM     30  O   UNL     1      -4.412  11.031  16.333  0.00  0.00    +0.000 OA
BRANCH  29  31
ATOM     31  O   UNL     1      -2.649  10.339  15.099  0.00  0.00    +0.000 OA
ATOM     32  H   UNL     1      -2.948  10.789  14.287  0.00  0.00    +0.000 HD
ENDBRANCH  29  31
ENDBRANCH  26  29
ENDBRANCH  19  28
ENDBRANCH   1  19
TORSDOF 6
ENDMDL
MODEL 9
REMARK VINA RESULT:      -8.3      3.803      5.705
REMARK  Name = 
REMARK  7 active torsions:
REMARK  status: ('A' for Active; 'I' for Inactive)
REMARK    1  A    between atoms: C_1  and  C_2
REMARK    2  A    between atoms: C_5  and  C_6
REMARK    3  A    between atoms: C_6  and  O_8
REMARK    4  A    between atoms: C_10  and  S_11
REMARK    5  A    between atoms: S_11  and  N_14
REMARK    6  A    between atoms: N_14  and  C_15
REMARK    7  A    between atoms: C_19  and  C_20
REMARK                            x       y       z     vdW  Elec       q    Type
REMARK                         _______ _______ _______ _____ _____    ______ ____
ROOT
ATOM      1  N   UNL     1       1.361   8.427  19.928  0.00  0.00    +0.000 N 
ATOM      2  H   UNL     1       0.905   8.577  19.026  0.00  0.00    +0.000 HD
ENDROOT
BRANCH   1   3
ATOM      3  C   UNL     1       1.905   7.128  20.134  0.00  0.00    +0.000 A 
ATOM      4  C   UNL     1       1.150   6.088  20.672  0.00  0.00    +0.000 A 
ATOM      5  C   UNL     1       1.679   4.795  20.710  0.00  0.00    +0.000 A 
ATOM      6  C   UNL     1       2.963   4.549  20.214  0.00  0.00    +0.000 A 
ATOM      7  C   UNL     1       3.730   5.593  19.685  0.00  0.00    +0.000 A 
ATOM      8  C   UNL     1       3.179   6.881  19.636  0.00  0.00    +0.000 A 
BRANCH   7   9
ATOM      9  C   UNL     1       5.052   5.320  19.116  0.00  0.00    +0.000 A 
ATOM     10  N   UNL     1       6.155   5.140  19.814  0.00  0.00    +0.000 NA
ATOM     11  N   UNL     1       7.165   4.796  18.956  0.00  0.00    +0.000 NA
ATOM     12  C   UNL     1       6.685   4.799  17.730  0.00  0.00    +0.000 A 
ATOM     13  N   UNL     1       5.367   5.189  17.778  0.00  0.00    +0.000 N 
ATOM     14  C   UNL     1       4.485   5.442  16.655  0.00  0.00    +0.000 C 
ATOM     15  C   UNL     1       5.164   6.078  15.453  0.00  0.00    +0.000 C 
ATOM     16  C   UNL     1       5.920   5.079  14.581  0.00  0.00    +0.000 C 
ATOM     17  C   UNL     1       6.641   3.960  15.334  0.00  0.00    +0.000 C 
ATOM     18  C   UNL     1       7.471   4.458  16.509  0.00  0.00    +0.000 C 
ENDBRANCH   7   9
ENDBRANCH   1   3
BRANCH   1  19
ATOM     19  S   UNL     1       0.530   9.219  21.153  0.00  0.00    +0.000 S 
ATOM     20  O   UNL     1       1.470   9.988  21.942  0.00  0.00    +0.000 OA
ATOM     21  O   UNL     1      -0.312   8.224  21.780  0.00  0.00    +0.000 OA
BRANCH  19  28
ATOM     22  C   UNL     1      -0.410  12.145  22.197  0.00  0.00    +0.000 C 
ATOM     23  C   UNL     1      -0.877  11.653  20.857  0.00  0.00    +0.000 A 
ATOM     24  C   UNL     1      -1.631  12.541  20.061  0.00  0.00    +0.000 A 
ATOM     25  C   UNL     1      -2.043  12.189  18.774  0.00  0.00    +0.000 A 
ATOM     26  C   UNL     1      -1.717  10.933  18.255  0.00  0.00    +0.000 A 
ATOM     27  C   UNL     1      -1.010  10.021  19.045  0.00  0.00    +0.000 A 
ATOM     28  C   UNL     1      -0.576  10.376  20.336  0.00  0.00    +0.000 A 
BRANCH  26  29
ATOM     29  C   UNL     1      -2.151  10.615  16.872  0.00  0.00    +0.000 C 
ATOM     30  O   UNL     1      -2.445   9.484  16.524  0.00  0.00    +0.000 OA
BRANCH  29  31
ATOM     31  O   UNL     1      -2.230  11.684  16.054  0.00  0.00    +0.000 OA
ATOM     32  H   UNL     1      -2.963  12.305  16.220  0.00  0.00    +0.000 HD
ENDBRANCH  29  31
ENDBRANCH  26  29
ENDBRANCH  19  28
ENDBRANCH   1  19
TORSDOF 6
ENDMDL
