MODEL 1
REMARK VINA RESULT:      -9.3      0.000      0.000
REMARK  Name = 
REMARK  5 active torsions:
REMARK  status: ('A' for Active; 'I' for Inactive)
REMARK    1  A    between atoms: C_1  and  C_2
REMARK    2  A    between atoms: C_9  and  O_10
REMARK    3  A    between atoms: O_10  and  C_11
REMARK    4  A    between atoms: C_11  and  C_13
REMARK    5  A    between atoms: C_17  and  C_19
REMARK                            x       y       z     vdW  Elec       q    Type
REMARK                         _______ _______ _______ _____ _____    ______ ____
ROOT
ATOM      1  C   UNL     1       2.224   3.794  19.165  0.00  0.00    +0.000 C 
ATOM      2  O   UNL     1       1.054   3.536  18.924  0.00  0.00    +0.000 OA
ENDROOT
BRANCH   1   3
ATOM      3  C   UNL     1       3.426   3.022  18.637  0.00  0.00    +0.000 C 
ATOM      4  C   UNL     1       4.748   3.389  19.334  0.00  0.00    +0.000 C 
ATOM      5  C   UNL     1       5.450   4.630  18.766  0.00  0.00    +0.000 C 
ATOM      6  N   UNL     1       5.476   4.610  17.303  0.00  0.00    +0.000 N 
ATOM      7  C   UNL     1       6.714   4.556  16.645  0.00  0.00    +0.000 C 
ATOM      8  O   UNL     1       7.780   4.482  17.256  0.00  0.00    +0.000 OA
ATOM      9  C   UNL     1       4.150   4.485  16.705  0.00  0.00    +0.000 C 
ATOM     10  C   UNL     1       3.499   3.174  17.120  0.00  0.00    +0.000 C 
BRANCH   7  11
ATOM     11  C   UNL     1       6.795   4.536  15.152  0.00  0.00    +0.000 A 
ATOM     12  C   UNL     1       6.007   3.691  14.361  0.00  0.00    +0.000 A 
ATOM     13  C   UNL     1       6.223   3.606  12.984  0.00  0.00    +0.000 A 
ATOM     14  C   UNL     1       7.147   4.451  12.382  0.00  0.00    +0.000 A 
ATOM     15  F   UNL     1       7.354   4.365  11.062  0.00  0.00    +0.000 F 
ATOM     16  C   UNL     1       7.846   5.391  13.130  0.00  0.00    +0.000 A 
ATOM     17  C   UNL     1       7.675   5.430  14.518  0.00  0.00    +0.000 A 
ENDBRANCH   7  11
ENDBRANCH   1   3
BRANCH   1  18
ATOM     18  O   UNL     1       2.697   4.820  20.003  0.00  0.00    +0.000 OA
BRANCH  18  27
ATOM     19  C   UNL     1       1.117  11.091  18.561  0.00  0.00    +0.000 C 
ATOM     20  C   UNL     1       0.989  10.258  19.804  0.00  0.00    +0.000 A 
ATOM     21  C   UNL     1       0.458  10.769  20.925  0.00  0.00    +0.000 A 
ATOM     22  C   UNL     1       0.302  10.008  22.172  0.00  0.00    +0.000 A 
ATOM     23  O   UNL     1      -0.190  10.531  23.165  0.00  0.00    +0.000 OA
ATOM     24  O   UNL     1       0.740   8.696  22.164  0.00  0.00    +0.000 OA
ATOM     25  C   UNL     1       1.293   8.119  21.001  0.00  0.00    +0.000 A 
ATOM     26  C   UNL     1       1.684   6.780  21.112  0.00  0.00    +0.000 A 
ATOM     27  C   UNL     1       2.227   6.155  19.999  0.00  0.00    +0.000 A 
ATOM     28  C   UNL     1       2.413   6.865  18.810  0.00  0.00    +0.000 A 
ATOM     29  C   UNL     1       2.014   8.208  18.720  0.00  0.00    +0.000 A 
ATOM     30  C   UNL     1       1.438   8.855  19.821  0.00  0.00    +0.000 A 
ENDBRANCH  18  27
ENDBRANCH   1  18
TORSDOF 4
ENDMDL
MODEL 2
REMARK VINA RESULT:      -9.2      0.581      1.068
REMARK  Name = 
REMARK  5 active torsions:
REMARK  status: ('A' for Active; 'I' for Inactive)
REMARK    1  A    between atoms: C_1  and  C_2
REMARK    2  A    between atoms: C_9  and  O_10
REMARK    3  A    between atoms: O_10  and  C_11
REMARK    4  A    between atoms: C_11  and  C_13
REMARK    5  A    between atoms: C_17  and  C_19
REMARK                            x       y       z     vdW  Elec       q    Type
REMARK                         _______ _______ _______ _____ _____    ______ ____
ROOT
ATOM      1  C   UNL     1       2.359   4.515  19.145  0.00  0.00    +0.000 C 
ATOM      2  O   UNL     1       1.177   4.236  19.281  0.00  0.00    +0.000 OA
ENDROOT
BRANCH   1   3
ATOM      3  C   UNL     1       3.437   3.567  18.634  0.00  0.00    +0.000 C 
ATOM      4  C   UNL     1       4.793   3.740  19.339  0.00  0.00    +0.000 C 
ATOM      5  C   UNL     1       5.676   4.857  18.768  0.00  0.00    +0.000 C 
ATOM      6  N   UNL     1       5.710   4.820  17.305  0.00  0.00    +0.000 N 
ATOM      7  C   UNL     1       6.931   4.576  16.658  0.00  0.00    +0.000 C 
ATOM      8  O   UNL     1       7.970   4.350  17.279  0.00  0.00    +0.000 OA
ATOM      9  C   UNL     1       4.385   4.888  16.697  0.00  0.00    +0.000 C 
ATOM     10  C   UNL     1       3.543   3.692  17.116  0.00  0.00    +0.000 C 
BRANCH   7  11
ATOM     11  C   UNL     1       7.019   4.530  15.166  0.00  0.00    +0.000 A 
ATOM     12  C   UNL     1       7.884   5.351  14.432  0.00  0.00    +0.000 A 
ATOM     13  C   UNL     1       7.825   5.374  13.037  0.00  0.00    +0.000 A 
ATOM     14  C   UNL     1       6.983   4.491  12.373  0.00  0.00    +0.000 A 
ATOM     15  F   UNL     1       6.926   4.517  11.035  0.00  0.00    +0.000 F 
ATOM     16  C   UNL     1       6.213   3.574  13.078  0.00  0.00    +0.000 A 
ATOM     17  C   UNL     1       6.225   3.597  14.476  0.00  0.00    +0.000 A 
ENDBRANCH   7  11
ENDBRANCH   1   3
BRANCH   1  18
ATOM     18  O   UNL     1       2.971   5.740  19.468  0.00  0.00    +0.000 OA
BRANCH  18  27
ATOM     19  C   UNL     1       0.297  11.769  18.834  0.00  0.00    +0.000 C 
ATOM     20  C   UNL     1       0.388  10.799  19.977  0.00  0.00    +0.000 A 
ATOM     21  C   UNL     1      -0.145  11.091  21.173  0.00  0.00    +0.000 A 
ATOM     22  C   UNL     1      -0.093  10.186  22.329  0.00  0.00    +0.000 A 
ATOM     23  O   UNL     1      -0.598  10.511  23.399  0.00  0.00    +0.000 OA
ATOM     24  O   UNL     1       0.553   8.976  22.150  0.00  0.00    +0.000 OA
ATOM     25  C   UNL     1       1.115   8.628  20.904  0.00  0.00    +0.000 A 
ATOM     26  C   UNL     1       1.726   7.370  20.841  0.00  0.00    +0.000 A 
ATOM     27  C   UNL     1       2.290   6.968  19.639  0.00  0.00    +0.000 A 
ATOM     28  C   UNL     1       2.279   7.822  18.532  0.00  0.00    +0.000 A 
ATOM     29  C   UNL     1       1.661   9.079  18.617  0.00  0.00    +0.000 A 
ATOM     30  C   UNL     1       1.061   9.499  19.811  0.00  0.00    +0.000 A 
ENDBRANCH  18  27
ENDBRANCH   1  18
TORSDOF 4
ENDMDL
MODEL 3
REMARK VINA RESULT:      -8.7      6.203      8.207
REMARK  Name = 
REMARK  5 active torsions:
REMARK  status: ('A' for Active; 'I' for Inactive)
REMARK    1  A    between atoms: C_1  and  C_2
REMARK    2  A    between atoms: C_9  and  O_10
REMARK    3  A    between atoms: O_10  and  C_11
REMARK    4  A    between atoms: C_11  and  C_13
REMARK    5  A    between atoms: C_17  and  C_19
REMARK                            x       y       z     vdW  Elec       q    Type
REMARK                         _______ _______ _______ _____ _____    ______ ____
ROOT
ATOM      1  C   UNL     1       7.650   7.966  17.804  0.00  0.00    +0.000 C 
ATOM      2  O   UNL     1       6.933   8.734  17.180  0.00  0.00    +0.000 OA
ENDROOT
BRANCH   1   3
ATOM      3  C   UNL     1       7.492   6.452  17.851  0.00  0.00    +0.000 C 
ATOM      4  C   UNL     1       7.056   5.835  16.511  0.00  0.00    +0.000 C 
ATOM      5  C   UNL     1       5.544   5.862  16.253  0.00  0.00    +0.000 C 
ATOM      6  N   UNL     1       4.791   5.438  17.434  0.00  0.00    +0.000 N 
ATOM      7  C   UNL     1       4.005   4.277  17.359  0.00  0.00    +0.000 C 
ATOM      8  O   UNL     1       3.960   3.578  16.346  0.00  0.00    +0.000 OA
ATOM      9  C   UNL     1       5.095   6.224  18.625  0.00  0.00    +0.000 C 
ATOM     10  C   UNL     1       6.562   6.076  19.002  0.00  0.00    +0.000 C 
BRANCH   7  11
ATOM     11  C   UNL     1       3.214   3.802  18.536  0.00  0.00    +0.000 A 
ATOM     12  C   UNL     1       1.850   4.076  18.692  0.00  0.00    +0.000 A 
ATOM     13  C   UNL     1       1.191   3.736  19.876  0.00  0.00    +0.000 A 
ATOM     14  C   UNL     1       1.868   3.019  20.855  0.00  0.00    +0.000 A 
ATOM     15  F   UNL     1       1.235   2.697  21.990  0.00  0.00    +0.000 F 
ATOM     16  C   UNL     1       3.185   2.621  20.663  0.00  0.00    +0.000 A 
ATOM     17  C   UNL     1       3.862   3.018  19.505  0.00  0.00    +0.000 A 
ENDBRANCH   7  11
ENDBRANCH   1   3
BRANCH   1  18
ATOM     18  O   UNL     1       8.732   8.319  18.631  0.00  0.00    +0.000 OA
BRANCH  18  27
ATOM     19  C   UNL     1      10.088  14.163  21.445  0.00  0.00    +0.000 C 
ATOM     20  C   UNL     1      10.162  13.660  20.032  0.00  0.00    +0.000 A 
ATOM     21  C   UNL     1      10.575  14.458  19.036  0.00  0.00    +0.000 A 
ATOM     22  C   UNL     1      10.672  14.028  17.635  0.00  0.00    +0.000 A 
ATOM     23  O   UNL     1      11.055  14.806  16.768  0.00  0.00    +0.000 OA
ATOM     24  O   UNL     1      10.305  12.724  17.353  0.00  0.00    +0.000 OA
ATOM     25  C   UNL     1       9.877  11.850  18.374  0.00  0.00    +0.000 A 
ATOM     26  C   UNL     1       9.550  10.552  17.968  0.00  0.00    +0.000 A 
ATOM     27  C   UNL     1       9.129   9.644  18.929  0.00  0.00    +0.000 A 
ATOM     28  C   UNL     1       9.001  10.036  20.264  0.00  0.00    +0.000 A 
ATOM     29  C   UNL     1       9.335  11.344  20.650  0.00  0.00    +0.000 A 
ATOM     30  C   UNL     1       9.787  12.273  19.704  0.00  0.00    +0.000 A 
ENDBRANCH  18  27
ENDBRANCH   1  18
TORSDOF 4
ENDMDL
MODEL 4
REMARK VINA RESULT:      -8.6      1.009      1.177
REMARK  Name = 
REMARK  5 active torsions:
REMARK  status: ('A' for Active; 'I' for Inactive)
REMARK    1  A    between atoms: C_1  and  C_2
REMARK    2  A    between atoms: C_9  and  O_10
REMARK    3  A    between atoms: O_10  and  C_11
REMARK    4  A    between atoms: C_11  and  C_13
REMARK    5  A    between atoms: C_17  and  C_19
REMARK                            x       y       z     vdW  Elec       q    Type
REMARK                         _______ _______ _______ _____ _____    ______ ____
ROOT
ATOM      1  C   UNL     1       3.327   4.386  19.794  0.00  0.00    +0.000 C 
ATOM      2  O   UNL     1       2.868   4.014  20.864  0.00  0.00    +0.000 OA
ENDROOT
BRANCH   1   3
ATOM      3  C   UNL     1       4.696   4.010  19.242  0.00  0.00    +0.000 C 
ATOM      4  C   UNL     1       5.719   5.158  19.300  0.00  0.00    +0.000 C 
ATOM      5  C   UNL     1       5.650   6.140  18.124  0.00  0.00    +0.000 C 
ATOM      6  N   UNL     1       5.538   5.439  16.844  0.00  0.00    +0.000 N 
ATOM      7  C   UNL     1       6.567   5.579  15.900  0.00  0.00    +0.000 C 
ATOM      8  O   UNL     1       7.582   6.238  16.127  0.00  0.00    +0.000 OA
ATOM      9  C   UNL     1       4.400   4.527  16.784  0.00  0.00    +0.000 C 
ATOM     10  C   UNL     1       4.534   3.437  17.836  0.00  0.00    +0.000 C 
BRANCH   7  11
ATOM     11  C   UNL     1       6.501   4.886  14.577  0.00  0.00    +0.000 A 
ATOM     12  C   UNL     1       5.431   4.061  14.206  0.00  0.00    +0.000 A 
ATOM     13  C   UNL     1       5.485   3.323  13.021  0.00  0.00    +0.000 A 
ATOM     14  C   UNL     1       6.555   3.499  12.152  0.00  0.00    +0.000 A 
ATOM     15  F   UNL     1       6.606   2.788  11.019  0.00  0.00    +0.000 F 
ATOM     16  C   UNL     1       7.562   4.413  12.439  0.00  0.00    +0.000 A 
ATOM     17  C   UNL     1       7.539   5.103  13.655  0.00  0.00    +0.000 A 
ENDBRANCH   7  11
ENDBRANCH   1   3
BRANCH   1  18
ATOM     18  O   UNL     1       2.711   5.261  18.881  0.00  0.00    +0.000 OA
BRANCH  18  27
ATOM     19  C   UNL     1       0.903  11.635  18.900  0.00  0.00    +0.000 C 
ATOM     20  C   UNL     1       0.916  10.566  19.955  0.00  0.00    +0.000 A 
ATOM     21  C   UNL     1       0.498  10.824  21.203  0.00  0.00    +0.000 A 
ATOM     22  C   UNL     1       0.483   9.824  22.280  0.00  0.00    +0.000 A 
ATOM     23  O   UNL     1       0.090  10.122  23.402  0.00  0.00    +0.000 OA
ATOM     24  O   UNL     1       0.936   8.557  21.963  0.00  0.00    +0.000 OA
ATOM     25  C   UNL     1       1.373   8.243  20.659  0.00  0.00    +0.000 A 
ATOM     26  C   UNL     1       1.792   6.923  20.457  0.00  0.00    +0.000 A 
ATOM     27  C   UNL     1       2.226   6.552  19.193  0.00  0.00    +0.000 A 
ATOM     28  C   UNL     1       2.277   7.491  18.159  0.00  0.00    +0.000 A 
ATOM     29  C   UNL     1       1.852   8.811  18.383  0.00  0.00    +0.000 A 
ATOM     30  C   UNL     1       1.385   9.205  19.644  0.00  0.00    +0.000 A 
ENDBRANCH  18  27
ENDBRANCH   1  18
TORSDOF 4
ENDMDL
MODEL 5
REMARK VINA RESULT:      -8.6      3.279      4.633
REMARK  Name = 
REMARK  5 active torsions:
REMARK  status: ('A' for Active; 'I' for Inactive)
REMARK    1  A    between atoms: C_1  and  C_2
REMARK    2  A    between atoms: C_9  and  O_10
REMARK    3  A    between atoms: O_10  and  C_11
REMARK    4  A    between atoms: C_11  and  C_13
REMARK    5  A    between atoms: C_17  and  C_19
REMARK                            x       y       z     vdW  Elec       q    Type
REMARK                         _______ _______ _______ _____ _____    ______ ____
ROOT
ATOM      1  C   UNL     1       1.639   8.183  20.073  0.00  0.00    +0.000 C 
ATOM      2  O   UNL     1       1.849   8.197  21.277  0.00  0.00    +0.000 OA
ENDROOT
BRANCH   1   3
ATOM      3  C   UNL     1       1.577   6.935  19.202  0.00  0.00    +0.000 C 
ATOM      4  C   UNL     1       1.818   5.629  19.979  0.00  0.00    +0.000 C 
ATOM      5  C   UNL     1       3.295   5.265  20.182  0.00  0.00    +0.000 C 
ATOM      6  N   UNL     1       4.064   5.433  18.948  0.00  0.00    +0.000 N 
ATOM      7  C   UNL     1       4.663   4.308  18.362  0.00  0.00    +0.000 C 
ATOM      8  O   UNL     1       4.531   3.175  18.827  0.00  0.00    +0.000 OA
ATOM      9  C   UNL     1       3.966   6.777  18.387  0.00  0.00    +0.000 C 
ATOM     10  C   UNL     1       2.526   7.097  18.017  0.00  0.00    +0.000 C 
BRANCH   7  11
ATOM     11  C   UNL     1       5.462   4.426  17.103  0.00  0.00    +0.000 A 
ATOM     12  C   UNL     1       6.845   4.643  17.100  0.00  0.00    +0.000 A 
ATOM     13  C   UNL     1       7.520   4.891  15.902  0.00  0.00    +0.000 A 
ATOM     14  C   UNL     1       6.832   4.805  14.698  0.00  0.00    +0.000 A 
ATOM     15  F   UNL     1       7.481   5.046  13.552  0.00  0.00    +0.000 F 
ATOM     16  C   UNL     1       5.486   4.460  14.669  0.00  0.00    +0.000 A 
ATOM     17  C   UNL     1       4.798   4.276  15.873  0.00  0.00    +0.000 A 
ENDBRANCH   7  11
ENDBRANCH   1   3
BRANCH   1  18
ATOM     18  O   UNL     1       1.456   9.304  19.244  0.00  0.00    +0.000 OA
BRANCH  18  27
ATOM     19  C   UNL     1      -4.439  12.321  19.007  0.00  0.00    +0.000 C 
ATOM     20  C   UNL     1      -3.670  11.487  18.023  0.00  0.00    +0.000 A 
ATOM     21  C   UNL     1      -4.166  11.225  16.804  0.00  0.00    +0.000 A 
ATOM     22  C   UNL     1      -3.465  10.420  15.796  0.00  0.00    +0.000 A 
ATOM     23  O   UNL     1      -3.972  10.214  14.698  0.00  0.00    +0.000 OA
ATOM     24  O   UNL     1      -2.229   9.910  16.150  0.00  0.00    +0.000 OA
ATOM     25  C   UNL     1      -1.667  10.173  17.417  0.00  0.00    +0.000 A 
ATOM     26  C   UNL     1      -0.405   9.618  17.652  0.00  0.00    +0.000 A 
ATOM     27  C   UNL     1       0.202   9.848  18.877  0.00  0.00    +0.000 A 
ATOM     28  C   UNL     1      -0.456  10.587  19.865  0.00  0.00    +0.000 A 
ATOM     29  C   UNL     1      -1.723  11.135  19.608  0.00  0.00    +0.000 A 
ATOM     30  C   UNL     1      -2.347  10.939  18.369  0.00  0.00    +0.000 A 
ENDBRANCH  18  27
ENDBRANCH   1  18
TORSDOF 4
ENDMDL
MODEL 6
REMARK VINA RESULT:      -8.6      5.508     10.987
REMARK  Name = 
REMARK  5 active torsions:
REMARK  status: ('A' for Active; 'I' for Inactive)
REMARK    1  A    between atoms: C_1  and  C_2
REMARK    2  A    between atoms: C_9  and  O_10
REMARK    3  A    between atoms: O_10  and  C_11
REMARK    4  A    between atoms: C_11  and  C_13
REMARK    5  A    between atoms: C_17  and  C_19
REMARK                            x       y       z     vdW  Elec       q    Type
REMARK                         _______ _______ _______ _____ _____    ______ ____
ROOT
ATOM      1  C   UNL     1       1.039  10.007  19.197  0.00  0.00    +0.000 C 
ATOM      2  O   UNL     1       1.343  10.775  18.297  0.00  0.00    +0.000 OA
ENDROOT
BRANCH   1   3
ATOM      3  C   UNL     1      -0.356   9.848  19.788  0.00  0.00    +0.000 C 
ATOM      4  C   UNL     1      -1.483  10.279  18.833  0.00  0.00    +0.000 C 
ATOM      5  C   UNL     1      -1.787  11.782  18.834  0.00  0.00    +0.000 C 
ATOM      6  N   UNL     1      -1.857  12.315  20.196  0.00  0.00    +0.000 N 
ATOM      7  C   UNL     1      -3.070  12.851  20.655  0.00  0.00    +0.000 C 
ATOM      8  O   UNL     1      -4.090  12.852  19.966  0.00  0.00    +0.000 OA
ATOM      9  C   UNL     1      -0.650  12.062  20.976  0.00  0.00    +0.000 C 
ATOM     10  C   UNL     1      -0.420  10.566  21.134  0.00  0.00    +0.000 C 
BRANCH   7  11
ATOM     11  C   UNL     1      -3.193  13.410  22.036  0.00  0.00    +0.000 A 
ATOM     12  C   UNL     1      -2.880  14.739  22.347  0.00  0.00    +0.000 A 
ATOM     13  C   UNL     1      -2.873  15.172  23.675  0.00  0.00    +0.000 A 
ATOM     14  C   UNL     1      -3.292  14.309  24.680  0.00  0.00    +0.000 A 
ATOM     15  F   UNL     1      -3.281  14.726  25.952  0.00  0.00    +0.000 F 
ATOM     16  C   UNL     1      -3.734  13.027  24.378  0.00  0.00    +0.000 A 
ATOM     17  C   UNL     1      -3.679  12.574  23.056  0.00  0.00    +0.000 A 
ENDBRANCH   7  11
ENDBRANCH   1   3
BRANCH   1  18
ATOM     18  O   UNL     1       1.910   9.152  19.896  0.00  0.00    +0.000 OA
BRANCH  18  27
ATOM     19  C   UNL     1       2.743   3.095  17.342  0.00  0.00    +0.000 C 
ATOM     20  C   UNL     1       2.378   3.593  18.711  0.00  0.00    +0.000 A 
ATOM     21  C   UNL     1       2.149   2.736  19.717  0.00  0.00    +0.000 A 
ATOM     22  C   UNL     1       1.791   3.157  21.079  0.00  0.00    +0.000 A 
ATOM     23  O   UNL     1       1.592   2.325  21.957  0.00  0.00    +0.000 OA
ATOM     24  O   UNL     1       1.684   4.517  21.306  0.00  0.00    +0.000 OA
ATOM     25  C   UNL     1       1.929   5.450  20.277  0.00  0.00    +0.000 A 
ATOM     26  C   UNL     1       1.808   6.798  20.633  0.00  0.00    +0.000 A 
ATOM     27  C   UNL     1       2.044   7.763  19.665  0.00  0.00    +0.000 A 
ATOM     28  C   UNL     1       2.358   7.388  18.355  0.00  0.00    +0.000 A 
ATOM     29  C   UNL     1       2.475   6.030  18.019  0.00  0.00    +0.000 A 
ATOM     30  C   UNL     1       2.267   5.036  18.984  0.00  0.00    +0.000 A 
ENDBRANCH  18  27
ENDBRANCH   1  18
TORSDOF 4
ENDMDL
MODEL 7
REMARK VINA RESULT:      -8.5      1.421      1.994
REMARK  Name = 
REMARK  5 active torsions:
REMARK  status: ('A' for Active; 'I' for Inactive)
REMARK    1  A    between atoms: C_1  and  C_2
REMARK    2  A    between atoms: C_9  and  O_10
REMARK    3  A    between atoms: O_10  and  C_11
REMARK    4  A    between atoms: C_11  and  C_13
REMARK    5  A    between atoms: C_17  and  C_19
REMARK                            x       y       z     vdW  Elec       q    Type
REMARK                         _______ _______ _______ _____ _____    ______ ____
ROOT
ATOM      1  C   UNL     1       2.311   3.418  19.159  0.00  0.00    +0.000 C 
ATOM      2  O   UNL     1       1.161   3.136  18.857  0.00  0.00    +0.000 OA
ENDROOT
BRANCH   1   3
ATOM      3  C   UNL     1       3.560   2.732  18.620  0.00  0.00    +0.000 C 
ATOM      4  C   UNL     1       4.858   3.184  19.311  0.00  0.00    +0.000 C 
ATOM      5  C   UNL     1       5.471   4.472  18.746  0.00  0.00    +0.000 C 
ATOM      6  N   UNL     1       5.489   4.461  17.283  0.00  0.00    +0.000 N 
ATOM      7  C   UNL     1       6.724   4.495  16.617  0.00  0.00    +0.000 C 
ATOM      8  O   UNL     1       7.796   4.490  17.222  0.00  0.00    +0.000 OA
ATOM      9  C   UNL     1       4.171   4.250  16.692  0.00  0.00    +0.000 C 
ATOM     10  C   UNL     1       3.613   2.896  17.104  0.00  0.00    +0.000 C 
BRANCH   7  11
ATOM     11  C   UNL     1       6.797   4.488  15.123  0.00  0.00    +0.000 A 
ATOM     12  C   UNL     1       6.003   3.651  14.329  0.00  0.00    +0.000 A 
ATOM     13  C   UNL     1       6.212   3.578  12.950  0.00  0.00    +0.000 A 
ATOM     14  C   UNL     1       7.133   4.428  12.351  0.00  0.00    +0.000 A 
ATOM     15  F   UNL     1       7.334   4.354  11.029  0.00  0.00    +0.000 F 
ATOM     16  C   UNL     1       7.837   5.360  13.104  0.00  0.00    +0.000 A 
ATOM     17  C   UNL     1       7.674   5.387  14.493  0.00  0.00    +0.000 A 
ENDBRANCH   7  11
ENDBRANCH   1   3
BRANCH   1  18
ATOM     18  O   UNL     1       2.715   4.394  20.088  0.00  0.00    +0.000 OA
BRANCH  18  27
ATOM     19  C   UNL     1      -0.144  10.248  21.296  0.00  0.00    +0.000 C 
ATOM     20  C   UNL     1       0.770   9.754  20.211  0.00  0.00    +0.000 A 
ATOM     21  C   UNL     1       1.169  10.567  19.222  0.00  0.00    +0.000 A 
ATOM     22  C   UNL     1       2.063  10.147  18.134  0.00  0.00    +0.000 A 
ATOM     23  O   UNL     1       2.391  10.938  17.256  0.00  0.00    +0.000 OA
ATOM     24  O   UNL     1       2.497   8.834  18.151  0.00  0.00    +0.000 OA
ATOM     25  C   UNL     1       2.110   7.952  19.181  0.00  0.00    +0.000 A 
ATOM     26  C   UNL     1       2.628   6.654  19.100  0.00  0.00    +0.000 A 
ATOM     27  C   UNL     1       2.288   5.742  20.088  0.00  0.00    +0.000 A 
ATOM     28  C   UNL     1       1.417   6.108  21.118  0.00  0.00    +0.000 A 
ATOM     29  C   UNL     1       0.909   7.415  21.182  0.00  0.00    +0.000 A 
ATOM     30  C   UNL     1       1.256   8.363  20.210  0.00  0.00    +0.000 A 
ENDBRANCH  18  27
ENDBRANCH   1  18
TORSDOF 4
ENDMDL
MODEL 8
REMARK VINA RESULT:      -8.5      6.132      7.792
REMARK  Name = 
REMARK  5 active torsions:
REMARK  status: ('A' for Active; 'I' for Inactive)
REMARK    1  A    between atoms: C_1  and  C_2
REMARK    2  A    between atoms: C_9  and  O_10
REMARK    3  A    between atoms: O_10  and  C_11
REMARK    4  A    between atoms: C_11  and  C_13
REMARK    5  A    between atoms: C_17  and  C_19
REMARK                            x       y       z     vdW  Elec       q    Type
REMARK                         _______ _______ _______ _____ _____    ______ ____
ROOT
ATOM      1  C   UNL     1       7.689   7.799  17.811  0.00  0.00    +0.000 C 
ATOM      2  O   UNL     1       7.023   8.483  17.048  0.00  0.00    +0.000 OA
ENDROOT
BRANCH   1   3
ATOM      3  C   UNL     1       7.566   6.290  17.979  0.00  0.00    +0.000 C 
ATOM      4  C   UNL     1       7.223   5.551  16.674  0.00  0.00    +0.000 C 
ATOM      5  C   UNL     1       5.728   5.511  16.332  0.00  0.00    +0.000 C 
ATOM      6  N   UNL     1       4.918   5.165  17.501  0.00  0.00    +0.000 N 
ATOM      7  C   UNL     1       4.167   3.980  17.483  0.00  0.00    +0.000 C 
ATOM      8  O   UNL     1       4.198   3.198  16.532  0.00  0.00    +0.000 OA
ATOM      9  C   UNL     1       5.134   6.058  18.636  0.00  0.00    +0.000 C 
ATOM     10  C   UNL     1       6.580   5.985  19.104  0.00  0.00    +0.000 C 
BRANCH   7  11
ATOM     11  C   UNL     1       3.322   3.582  18.651  0.00  0.00    +0.000 A 
ATOM     12  C   UNL     1       1.949   3.852  18.720  0.00  0.00    +0.000 A 
ATOM     13  C   UNL     1       1.235   3.592  19.891  0.00  0.00    +0.000 A 
ATOM     14  C   UNL     1       1.867   2.953  20.951  0.00  0.00    +0.000 A 
ATOM     15  F   UNL     1       1.181   2.707  22.074  0.00  0.00    +0.000 F 
ATOM     16  C   UNL     1       3.195   2.556  20.854  0.00  0.00    +0.000 A 
ATOM     17  C   UNL     1       3.926   2.877  19.705  0.00  0.00    +0.000 A 
ENDBRANCH   7  11
ENDBRANCH   1   3
BRANCH   1  18
ATOM     18  O   UNL     1       8.665   8.261  18.712  0.00  0.00    +0.000 OA
BRANCH  18  27
ATOM     19  C   UNL     1      10.757  14.525  18.181  0.00  0.00    +0.000 C 
ATOM     20  C   UNL     1      10.229  13.711  19.327  0.00  0.00    +0.000 A 
ATOM     21  C   UNL     1      10.101  14.245  20.551  0.00  0.00    +0.000 A 
ATOM     22  C   UNL     1       9.589  13.504  21.712  0.00  0.00    +0.000 A 
ATOM     23  O   UNL     1       9.497  14.047  22.808  0.00  0.00    +0.000 OA
ATOM     24  O   UNL     1       9.233  12.184  21.506  0.00  0.00    +0.000 OA
ATOM     25  C   UNL     1       9.340  11.590  20.231  0.00  0.00    +0.000 A 
ATOM     26  C   UNL     1       8.932  10.255  20.143  0.00  0.00    +0.000 A 
ATOM     27  C   UNL     1       9.008   9.619  18.913  0.00  0.00    +0.000 A 
ATOM     28  C   UNL     1       9.518  10.292  17.799  0.00  0.00    +0.000 A 
ATOM     29  C   UNL     1       9.922  11.632  17.909  0.00  0.00    +0.000 A 
ATOM     30  C   UNL     1       9.832  12.306  19.134  0.00  0.00    +0.000 A 
ENDBRANCH  18  27
ENDBRANCH   1  18
TORSDOF 4
ENDMDL
MODEL 9
REMARK VINA RESULT:      -8.4      4.079      6.630
REMARK  Name = 
REMARK  5 active torsions:
REMARK  status: ('A' for Active; 'I' for Inactive)
REMARK    1  A    between atoms: C_1  and  C_2
REMARK    2  A    between atoms: C_9  and  O_10
REMARK    3  A    between atoms: O_10  and  C_11
REMARK    4  A    between atoms: C_11  and  C_13
REMARK    5  A    between atoms: C_17  and  C_19
REMARK                            x       y       z     vdW  Elec       q    Type
REMARK                         _______ _______ _______ _____ _____    ______ ____
ROOT
ATOM      1  C   UNL     1       0.701  11.443  18.781  0.00  0.00    +0.000 C 
ATOM      2  O   UNL     1       1.829  11.774  19.115  0.00  0.00    +0.000 OA
ENDROOT
BRANCH   1   3
ATOM      3  C   UNL     1       0.173  10.015  18.746  0.00  0.00    +0.000 C 
ATOM      4  C   UNL     1       0.062   9.365  20.136  0.00  0.00    +0.000 C 
ATOM      5  C   UNL     1       1.362   8.742  20.660  0.00  0.00    +0.000 C 
ATOM      6  N   UNL     1       2.030   7.947  19.629  0.00  0.00    +0.000 N 
ATOM      7  C   UNL     1       2.192   6.568  19.831  0.00  0.00    +0.000 C 
ATOM      8  O   UNL     1       1.754   5.994  20.828  0.00  0.00    +0.000 OA
ATOM      9  C   UNL     1       2.309   8.702  18.411  0.00  0.00    +0.000 C 
ATOM     10  C   UNL     1       1.014   9.188  17.777  0.00  0.00    +0.000 C 
BRANCH   7  11
ATOM     11  C   UNL     1       2.870   5.712  18.809  0.00  0.00    +0.000 A 
ATOM     12  C   UNL     1       2.200   4.715  18.089  0.00  0.00    +0.000 A 
ATOM     13  C   UNL     1       2.908   3.848  17.255  0.00  0.00    +0.000 A 
ATOM     14  C   UNL     1       4.267   4.051  17.050  0.00  0.00    +0.000 A 
ATOM     15  F   UNL     1       4.943   3.216  16.252  0.00  0.00    +0.000 F 
ATOM     16  C   UNL     1       4.926   5.116  17.651  0.00  0.00    +0.000 A 
ATOM     17  C   UNL     1       4.230   5.944  18.537  0.00  0.00    +0.000 A 
ENDBRANCH   7  11
ENDBRANCH   1   3
BRANCH   1  18
ATOM     18  O   UNL     1      -0.319  12.297  18.324  0.00  0.00    +0.000 OA
BRANCH  18  27
ATOM     19  C   UNL     1      -6.849  11.179  18.268  0.00  0.00    +0.000 C 
ATOM     20  C   UNL     1      -5.914  11.761  19.288  0.00  0.00    +0.000 A 
ATOM     21  C   UNL     1      -6.367  12.177  20.480  0.00  0.00    +0.000 A 
ATOM     22  C   UNL     1      -5.506  12.753  21.522  0.00  0.00    +0.000 A 
ATOM     23  O   UNL     1      -5.980  13.118  22.593  0.00  0.00    +0.000 OA
ATOM     24  O   UNL     1      -4.159  12.866  21.230  0.00  0.00    +0.000 OA
ATOM     25  C   UNL     1      -3.642  12.427  19.993  0.00  0.00    +0.000 A 
ATOM     26  C   UNL     1      -2.262  12.577  19.821  0.00  0.00    +0.000 A 
ATOM     27  C   UNL     1      -1.693  12.157  18.627  0.00  0.00    +0.000 A 
ATOM     28  C   UNL     1      -2.495  11.633  17.609  0.00  0.00    +0.000 A 
ATOM     29  C   UNL     1      -3.878  11.491  17.802  0.00  0.00    +0.000 A 
ATOM     30  C   UNL     1      -4.473  11.884  19.008  0.00  0.00    +0.000 A 
ENDBRANCH  18  27
ENDBRANCH   1  18
TORSDOF 4
ENDMDL
