MODEL 1
REMARK VINA RESULT:      -7.8      0.000      0.000
REMARK  Name = 
REMARK  3 active torsions:
REMARK  status: ('A' for Active; 'I' for Inactive)
REMARK    1  A    between atoms: C_2  and  C_4
REMARK    2  A    between atoms: N_18  and  C_19
REMARK    3  A    between atoms: C_19  and  C_20
REMARK                            x       y       z     vdW  Elec       q    Type
REMARK                         _______ _______ _______ _____ _____    ______ ____
ROOT
ATOM      1  C   UNL     1       2.160   4.893  19.389  0.00  0.00    +0.000 C 
ATOM      2  N   UNL     1       1.992   5.118  20.682  0.00  0.00    +0.000 NA
ATOM      3  C   UNL     1       1.873   6.492  20.707  0.00  0.00    +0.000 C 
ATOM      4  N   UNL     1       1.315   6.992  21.734  0.00  0.00    +0.000 NA
ATOM      5  S   UNL     1       0.793   8.514  21.628  0.00  0.00    +0.000 S 
ATOM      6  O   UNL     1      -0.662   8.478  21.605  0.00  0.00    +0.000 OA
ATOM      7  O   UNL     1       1.500   9.317  22.596  0.00  0.00    +0.000 OA
ATOM      8  C   UNL     1       1.249   9.165  20.041  0.00  0.00    +0.000 A 
ATOM      9  C   UNL     1       0.970  10.503  19.765  0.00  0.00    +0.000 A 
ATOM     10  C   UNL     1       1.308  11.016  18.514  0.00  0.00    +0.000 A 
ATOM     11  C   UNL     1       1.863  10.181  17.544  0.00  0.00    +0.000 A 
ATOM     12  C   UNL     1       2.122   8.841  17.834  0.00  0.00    +0.000 A 
ATOM     13  C   UNL     1       1.860   8.327  19.110  0.00  0.00    +0.000 A 
ATOM     14  N   UNL     1       2.223   7.032  19.485  0.00  0.00    +0.000 N 
ATOM     15  N   UNL     1       2.643   5.993  18.640  0.00  0.00    +0.000 N 
ENDROOT
BRANCH   1  17
ATOM     16  N   UNL     1       0.502   3.185  19.796  0.00  0.00    +0.000 N 
ATOM     17  C   UNL     1       1.238   3.810  18.808  0.00  0.00    +0.000 C 
ATOM     18  O   UNL     1       1.050   3.685  17.613  0.00  0.00    +0.000 OA
ATOM     19  H   UNL     1      -0.383   2.767  19.565  0.00  0.00    +0.000 HD
ATOM     20  H   UNL     1       0.643   3.504  20.752  0.00  0.00    +0.000 HD
ENDBRANCH   1  17
BRANCH  15  21
ATOM     21  C   UNL     1       4.132   6.055  18.483  0.00  0.00    +0.000 C 
BRANCH  21  22
ATOM     22  C   UNL     1       4.731   5.466  17.223  0.00  0.00    +0.000 A 
ATOM     23  C   UNL     1       5.055   4.119  17.052  0.00  0.00    +0.000 A 
ATOM     24  C   UNL     1       5.604   3.663  15.846  0.00  0.00    +0.000 A 
ATOM     25  C   UNL     1       5.834   4.551  14.797  0.00  0.00    +0.000 A 
ATOM     26 BR   UNL     1       6.543   3.922  13.162  0.00  0.00    +0.000 Br
ATOM     27  C   UNL     1       5.536   5.899  14.945  0.00  0.00    +0.000 A 
ATOM     28  C   UNL     1       4.995   6.352  16.152  0.00  0.00    +0.000 A 
ENDBRANCH  21  22
ENDBRANCH  15  21
TORSDOF 3
ENDMDL
MODEL 2
REMARK VINA RESULT:      -7.2      4.794      6.638
REMARK  Name = 
REMARK  3 active torsions:
REMARK  status: ('A' for Active; 'I' for Inactive)
REMARK    1  A    between atoms: C_2  and  C_4
REMARK    2  A    between atoms: N_18  and  C_19
REMARK    3  A    between atoms: C_19  and  C_20
REMARK                            x       y       z     vdW  Elec       q    Type
REMARK                         _______ _______ _______ _____ _____    ______ ____
ROOT
ATOM      1  C   UNL     1      -1.633  11.507  18.959  0.00  0.00    +0.000 C 
ATOM      2  N   UNL     1      -2.190  12.469  19.677  0.00  0.00    +0.000 NA
ATOM      3  C   UNL     1      -1.154  13.374  19.771  0.00  0.00    +0.000 C 
ATOM      4  N   UNL     1      -1.474  14.571  20.056  0.00  0.00    +0.000 NA
ATOM      5  S   UNL     1      -0.376  15.720  19.777  0.00  0.00    +0.000 S 
ATOM      6  O   UNL     1      -0.844  16.508  18.645  0.00  0.00    +0.000 OA
ATOM      7  O   UNL     1      -0.033  16.350  21.028  0.00  0.00    +0.000 OA
ATOM      8  C   UNL     1       1.118  14.954  19.200  0.00  0.00    +0.000 A 
ATOM      9  C   UNL     1       2.235  15.758  18.977  0.00  0.00    +0.000 A 
ATOM     10  C   UNL     1       3.406  15.165  18.506  0.00  0.00    +0.000 A 
ATOM     11  C   UNL     1       3.430  13.802  18.214  0.00  0.00    +0.000 A 
ATOM     12  C   UNL     1       2.297  13.016  18.431  0.00  0.00    +0.000 A 
ATOM     13  C   UNL     1       1.137  13.578  18.976  0.00  0.00    +0.000 A 
ATOM     14  N   UNL     1       0.027  12.808  19.331  0.00  0.00    +0.000 N 
ATOM     15  N   UNL     1      -0.218  11.470  18.990  0.00  0.00    +0.000 N 
ENDROOT
BRANCH   1  17
ATOM     16  N   UNL     1      -2.208  11.814  16.635  0.00  0.00    +0.000 N 
ATOM     17  C   UNL     1      -2.468  11.049  17.755  0.00  0.00    +0.000 C 
ATOM     18  O   UNL     1      -3.111  10.017  17.761  0.00  0.00    +0.000 OA
ATOM     19  H   UNL     1      -2.353  11.420  15.720  0.00  0.00    +0.000 HD
ATOM     20  H   UNL     1      -1.517  12.555  16.729  0.00  0.00    +0.000 HD
ENDBRANCH   1  17
BRANCH  15  21
ATOM     21  C   UNL     1       0.376  10.576  20.037  0.00  0.00    +0.000 C 
BRANCH  21  22
ATOM     22  C   UNL     1       1.162   9.370  19.567  0.00  0.00    +0.000 A 
ATOM     23  C   UNL     1       1.490   8.275  20.369  0.00  0.00    +0.000 A 
ATOM     24  C   UNL     1       2.221   7.199  19.846  0.00  0.00    +0.000 A 
ATOM     25  C   UNL     1       2.631   7.208  18.514  0.00  0.00    +0.000 A 
ATOM     26 BR   UNL     1       3.587   5.739  17.808  0.00  0.00    +0.000 Br
ATOM     27  C   UNL     1       2.333   8.292  17.699  0.00  0.00    +0.000 A 
ATOM     28  C   UNL     1       1.610   9.367  18.225  0.00  0.00    +0.000 A 
ENDBRANCH  21  22
ENDBRANCH  15  21
TORSDOF 3
ENDMDL
MODEL 3
REMARK VINA RESULT:      -7.1      3.782      5.387
REMARK  Name = 
REMARK  3 active torsions:
REMARK  status: ('A' for Active; 'I' for Inactive)
REMARK    1  A    between atoms: C_2  and  C_4
REMARK    2  A    between atoms: N_18  and  C_19
REMARK    3  A    between atoms: C_19  and  C_20
REMARK                            x       y       z     vdW  Elec       q    Type
REMARK                         _______ _______ _______ _____ _____    ______ ____
ROOT
ATOM      1  C   UNL     1       0.918   9.934  21.596  0.00  0.00    +0.000 C 
ATOM      2  N   UNL     1       1.170  11.233  21.607  0.00  0.00    +0.000 NA
ATOM      3  C   UNL     1       0.532  11.643  20.456  0.00  0.00    +0.000 C 
ATOM      4  N   UNL     1       0.247  12.880  20.378  0.00  0.00    +0.000 NA
ATOM      5  S   UNL     1      -0.837  13.325  19.270  0.00  0.00    +0.000 S 
ATOM      6  O   UNL     1      -2.051  13.713  19.974  0.00  0.00    +0.000 OA
ATOM      7  O   UNL     1      -0.205  14.221  18.333  0.00  0.00    +0.000 OA
ATOM      8  C   UNL     1      -1.306  11.897  18.325  0.00  0.00    +0.000 A 
ATOM      9  C   UNL     1      -2.176  12.067  17.249  0.00  0.00    +0.000 A 
ATOM     10  C   UNL     1      -2.563  10.947  16.514  0.00  0.00    +0.000 A 
ATOM     11  C   UNL     1      -2.127   9.678  16.894  0.00  0.00    +0.000 A 
ATOM     12  C   UNL     1      -1.267   9.526  17.983  0.00  0.00    +0.000 A 
ATOM     13  C   UNL     1      -0.806  10.646  18.685  0.00  0.00    +0.000 A 
ATOM     14  N   UNL     1       0.154  10.554  19.694  0.00  0.00    +0.000 N 
ATOM     15  N   UNL     1       0.606   9.387  20.329  0.00  0.00    +0.000 N 
ENDROOT
BRANCH   1  17
ATOM     16  N   UNL     1      -0.746   8.586  22.712  0.00  0.00    +0.000 N 
ATOM     17  C   UNL     1       0.362   9.384  22.918  0.00  0.00    +0.000 C 
ATOM     18  O   UNL     1       0.962   9.486  23.971  0.00  0.00    +0.000 OA
ATOM     19  H   UNL     1      -0.972   7.868  23.380  0.00  0.00    +0.000 HD
ATOM     20  H   UNL     1      -1.049   8.453  21.750  0.00  0.00    +0.000 HD
ENDBRANCH   1  17
BRANCH  15  21
ATOM     21  C   UNL     1       1.771   8.830  19.568  0.00  0.00    +0.000 C 
BRANCH  21  22
ATOM     22  C   UNL     1       1.937   7.325  19.541  0.00  0.00    +0.000 A 
ATOM     23  C   UNL     1       1.660   6.477  20.614  0.00  0.00    +0.000 A 
ATOM     24  C   UNL     1       1.842   5.092  20.497  0.00  0.00    +0.000 A 
ATOM     25  C   UNL     1       2.302   4.541  19.302  0.00  0.00    +0.000 A 
ATOM     26 BR   UNL     1       2.513   2.670  19.141  0.00  0.00    +0.000 Br
ATOM     27  C   UNL     1       2.601   5.363  18.224  0.00  0.00    +0.000 A 
ATOM     28  C   UNL     1       2.426   6.745  18.347  0.00  0.00    +0.000 A 
ENDBRANCH  21  22
ENDBRANCH  15  21
TORSDOF 3
ENDMDL
MODEL 4
REMARK VINA RESULT:      -6.9      4.095      6.469
REMARK  Name = 
REMARK  3 active torsions:
REMARK  status: ('A' for Active; 'I' for Inactive)
REMARK    1  A    between atoms: C_2  and  C_4
REMARK    2  A    between atoms: N_18  and  C_19
REMARK    3  A    between atoms: C_19  and  C_20
REMARK                            x       y       z     vdW  Elec       q    Type
REMARK                         _______ _______ _______ _____ _____    ______ ____
ROOT
ATOM      1  C   UNL     1       5.034   5.655  17.223  0.00  0.00    +0.000 C 
ATOM      2  N   UNL     1       5.920   4.862  17.803  0.00  0.00    +0.000 NA
ATOM      3  C   UNL     1       5.130   4.189  18.712  0.00  0.00    +0.000 C 
ATOM      4  N   UNL     1       5.588   3.087  19.152  0.00  0.00    +0.000 NA
ATOM      5  S   UNL     1       4.549   2.089  19.877  0.00  0.00    +0.000 S 
ATOM      6  O   UNL     1       4.344   0.951  18.992  0.00  0.00    +0.000 OA
ATOM      7  O   UNL     1       4.965   1.898  21.245  0.00  0.00    +0.000 OA
ATOM      8  C   UNL     1       2.963   2.879  19.964  0.00  0.00    +0.000 A 
ATOM      9  C   UNL     1       1.929   2.225  20.633  0.00  0.00    +0.000 A 
ATOM     10  C   UNL     1       0.675   2.832  20.689  0.00  0.00    +0.000 A 
ATOM     11  C   UNL     1       0.456   4.044  20.034  0.00  0.00    +0.000 A 
ATOM     12  C   UNL     1       1.500   4.677  19.358  0.00  0.00    +0.000 A 
ATOM     13  C   UNL     1       2.785   4.121  19.356  0.00  0.00    +0.000 A 
ATOM     14  N   UNL     1       3.885   4.781  18.806  0.00  0.00    +0.000 N 
ATOM     15  N   UNL     1       3.866   5.915  17.980  0.00  0.00    +0.000 N 
ENDROOT
BRANCH   1  17
ATOM     16  N   UNL     1       5.164   6.888  15.152  0.00  0.00    +0.000 N 
ATOM     17  C   UNL     1       5.060   5.620  15.688  0.00  0.00    +0.000 C 
ATOM     18  O   UNL     1       5.183   4.585  15.061  0.00  0.00    +0.000 OA
ATOM     19  H   UNL     1       5.577   7.011  14.242  0.00  0.00    +0.000 HD
ATOM     20  H   UNL     1       5.216   7.666  15.806  0.00  0.00    +0.000 HD
ENDBRANCH   1  17
BRANCH  15  21
ATOM     21  C   UNL     1       3.916   7.148  18.831  0.00  0.00    +0.000 C 
BRANCH  21  22
ATOM     22  C   UNL     1       2.663   7.993  18.918  0.00  0.00    +0.000 A 
ATOM     23  C   UNL     1       1.901   8.166  20.074  0.00  0.00    +0.000 A 
ATOM     24  C   UNL     1       0.754   8.972  20.062  0.00  0.00    +0.000 A 
ATOM     25  C   UNL     1       0.359   9.615  18.890  0.00  0.00    +0.000 A 
ATOM     26 BR   UNL     1      -1.169  10.727  18.890  0.00  0.00    +0.000 Br
ATOM     27  C   UNL     1       1.090   9.448  17.721  0.00  0.00    +0.000 A 
ATOM     28  C   UNL     1       2.229   8.638  17.735  0.00  0.00    +0.000 A 
ENDBRANCH  21  22
ENDBRANCH  15  21
TORSDOF 3
ENDMDL
MODEL 5
REMARK VINA RESULT:      -6.9      4.099      6.514
REMARK  Name = 
REMARK  3 active torsions:
REMARK  status: ('A' for Active; 'I' for Inactive)
REMARK    1  A    between atoms: C_2  and  C_4
REMARK    2  A    between atoms: N_18  and  C_19
REMARK    3  A    between atoms: C_19  and  C_20
REMARK                            x       y       z     vdW  Elec       q    Type
REMARK                         _______ _______ _______ _____ _____    ______ ____
ROOT
ATOM      1  C   UNL     1       5.071   5.781  17.318  0.00  0.00    +0.000 C 
ATOM      2  N   UNL     1       5.947   4.997  17.925  0.00  0.00    +0.000 NA
ATOM      3  C   UNL     1       5.130   4.281  18.775  0.00  0.00    +0.000 C 
ATOM      4  N   UNL     1       5.595   3.181  19.211  0.00  0.00    +0.000 NA
ATOM      5  S   UNL     1       4.549   2.137  19.857  0.00  0.00    +0.000 S 
ATOM      6  O   UNL     1       4.420   1.017  18.935  0.00  0.00    +0.000 OA
ATOM      7  O   UNL     1       4.898   1.923  21.240  0.00  0.00    +0.000 OA
ATOM      8  C   UNL     1       2.938   2.883  19.879  0.00  0.00    +0.000 A 
ATOM      9  C   UNL     1       1.890   2.186  20.478  0.00  0.00    +0.000 A 
ATOM     10  C   UNL     1       0.618   2.758  20.482  0.00  0.00    +0.000 A 
ATOM     11  C   UNL     1       0.400   3.980  19.847  0.00  0.00    +0.000 A 
ATOM     12  C   UNL     1       1.460   4.657  19.241  0.00  0.00    +0.000 A 
ATOM     13  C   UNL     1       2.758   4.135  19.293  0.00  0.00    +0.000 A 
ATOM     14  N   UNL     1       3.867   4.838  18.817  0.00  0.00    +0.000 N 
ATOM     15  N   UNL     1       3.859   5.991  18.019  0.00  0.00    +0.000 N 
ENDROOT
BRANCH   1  17
ATOM     16  N   UNL     1       5.146   4.505  15.270  0.00  0.00    +0.000 N 
ATOM     17  C   UNL     1       5.178   5.786  15.786  0.00  0.00    +0.000 C 
ATOM     18  O   UNL     1       5.091   6.805  15.129  0.00  0.00    +0.000 OA
ATOM     19  H   UNL     1       4.817   4.357  14.330  0.00  0.00    +0.000 HD
ATOM     20  H   UNL     1       5.052   3.739  15.933  0.00  0.00    +0.000 HD
ENDBRANCH   1  17
BRANCH  15  21
ATOM     21  C   UNL     1       3.832   7.203  18.900  0.00  0.00    +0.000 C 
BRANCH  21  22
ATOM     22  C   UNL     1       2.601   8.084  18.846  0.00  0.00    +0.000 A 
ATOM     23  C   UNL     1       2.149   8.746  17.703  0.00  0.00    +0.000 A 
ATOM     24  C   UNL     1       0.994   9.540  17.746  0.00  0.00    +0.000 A 
ATOM     25  C   UNL     1       0.279   9.678  18.935  0.00  0.00    +0.000 A 
ATOM     26 BR   UNL     1      -1.295  10.723  18.977  0.00  0.00    +0.000 Br
ATOM     27  C   UNL     1       0.716   9.044  20.090  0.00  0.00    +0.000 A 
ATOM     28  C   UNL     1       1.872   8.259  20.046  0.00  0.00    +0.000 A 
ENDBRANCH  21  22
ENDBRANCH  15  21
TORSDOF 3
ENDMDL
MODEL 6
REMARK VINA RESULT:      -6.8      5.041      6.966
REMARK  Name = 
REMARK  3 active torsions:
REMARK  status: ('A' for Active; 'I' for Inactive)
REMARK    1  A    between atoms: C_2  and  C_4
REMARK    2  A    between atoms: N_18  and  C_19
REMARK    3  A    between atoms: C_19  and  C_20
REMARK                            x       y       z     vdW  Elec       q    Type
REMARK                         _______ _______ _______ _____ _____    ______ ____
ROOT
ATOM      1  C   UNL     1      -1.825  11.824  19.217  0.00  0.00    +0.000 C 
ATOM      2  N   UNL     1      -2.294  12.780  20.002  0.00  0.00    +0.000 NA
ATOM      3  C   UNL     1      -1.244  13.673  20.001  0.00  0.00    +0.000 C 
ATOM      4  N   UNL     1      -1.519  14.869  20.335  0.00  0.00    +0.000 NA
ATOM      5  S   UNL     1      -0.443  16.011  19.961  0.00  0.00    +0.000 S 
ATOM      6  O   UNL     1      -1.015  16.821  18.894  0.00  0.00    +0.000 OA
ATOM      7  O   UNL     1       0.033  16.619  21.179  0.00  0.00    +0.000 OA
ATOM      8  C   UNL     1       0.975  15.239  19.223  0.00  0.00    +0.000 A 
ATOM      9  C   UNL     1       2.072  16.035  18.898  0.00  0.00    +0.000 A 
ATOM     10  C   UNL     1       3.182  15.439  18.301  0.00  0.00    +0.000 A 
ATOM     11  C   UNL     1       3.160  14.080  17.988  0.00  0.00    +0.000 A 
ATOM     12  C   UNL     1       2.047  13.302  18.309  0.00  0.00    +0.000 A 
ATOM     13  C   UNL     1       0.955  13.867  18.978  0.00  0.00    +0.000 A 
ATOM     14  N   UNL     1      -0.121  13.103  19.435  0.00  0.00    +0.000 N 
ATOM     15  N   UNL     1      -0.415  11.772  19.102  0.00  0.00    +0.000 N 
ENDROOT
BRANCH   1  17
ATOM     16  N   UNL     1      -3.983  12.075  18.165  0.00  0.00    +0.000 N 
ATOM     17  C   UNL     1      -2.784  11.393  18.098  0.00  0.00    +0.000 C 
ATOM     18  O   UNL     1      -2.431  10.694  17.168  0.00  0.00    +0.000 OA
ATOM     19  H   UNL     1      -4.529  12.204  17.330  0.00  0.00    +0.000 HD
ATOM     20  H   UNL     1      -4.087  12.760  18.911  0.00  0.00    +0.000 HD
ENDBRANCH   1  17
BRANCH  15  21
ATOM     21  C   UNL     1       0.273  10.857  20.069  0.00  0.00    +0.000 C 
BRANCH  21  22
ATOM     22  C   UNL     1       1.051   9.689  19.499  0.00  0.00    +0.000 A 
ATOM     23  C   UNL     1       1.499   9.602  18.180  0.00  0.00    +0.000 A 
ATOM     24  C   UNL     1       2.216   8.480  17.741  0.00  0.00    +0.000 A 
ATOM     25  C   UNL     1       2.494   7.434  18.619  0.00  0.00    +0.000 A 
ATOM     26 BR   UNL     1       3.490   5.941  18.029  0.00  0.00    +0.000 Br
ATOM     27  C   UNL     1       2.045   7.487  19.932  0.00  0.00    +0.000 A 
ATOM     28  C   UNL     1       1.324   8.604  20.365  0.00  0.00    +0.000 A 
ENDBRANCH  21  22
ENDBRANCH  15  21
TORSDOF 3
ENDMDL
MODEL 7
REMARK VINA RESULT:      -6.7      8.689     11.602
REMARK  Name = 
REMARK  3 active torsions:
REMARK  status: ('A' for Active; 'I' for Inactive)
REMARK    1  A    between atoms: C_2  and  C_4
REMARK    2  A    between atoms: N_18  and  C_19
REMARK    3  A    between atoms: C_19  and  C_20
REMARK                            x       y       z     vdW  Elec       q    Type
REMARK                         _______ _______ _______ _____ _____    ______ ____
ROOT
ATOM      1  C   UNL     1      -6.921  11.155  19.598  0.00  0.00    +0.000 C 
ATOM      2  N   UNL     1      -6.783  10.874  18.313  0.00  0.00    +0.000 NA
ATOM      3  C   UNL     1      -5.472  11.241  18.092  0.00  0.00    +0.000 C 
ATOM      4  N   UNL     1      -4.909  10.738  17.069  0.00  0.00    +0.000 NA
ATOM      5  S   UNL     1      -3.300  10.805  16.999  0.00  0.00    +0.000 S 
ATOM      6  O   UNL     1      -2.796   9.452  17.188  0.00  0.00    +0.000 OA
ATOM      7  O   UNL     1      -2.915  11.585  15.848  0.00  0.00    +0.000 OA
ATOM      8  C   UNL     1      -2.704  11.704  18.409  0.00  0.00    +0.000 A 
ATOM      9  C   UNL     1      -1.336  11.958  18.507  0.00  0.00    +0.000 A 
ATOM     10  C   UNL     1      -0.859  12.647  19.621  0.00  0.00    +0.000 A 
ATOM     11  C   UNL     1      -1.736  13.021  20.639  0.00  0.00    +0.000 A 
ATOM     12  C   UNL     1      -3.100  12.746  20.529  0.00  0.00    +0.000 A 
ATOM     13  C   UNL     1      -3.608  12.123  19.383  0.00  0.00    +0.000 A 
ATOM     14  N   UNL     1      -4.977  11.946  19.172  0.00  0.00    +0.000 N 
ATOM     15  N   UNL     1      -6.006  12.104  20.112  0.00  0.00    +0.000 N 
ENDROOT
BRANCH   1  17
ATOM     16  N   UNL     1      -7.628   8.849  19.706  0.00  0.00    +0.000 N 
ATOM     17  C   UNL     1      -7.525  10.018  20.435  0.00  0.00    +0.000 C 
ATOM     18  O   UNL     1      -7.687  10.107  21.637  0.00  0.00    +0.000 OA
ATOM     19  H   UNL     1      -7.621   7.964  20.184  0.00  0.00    +0.000 HD
ATOM     20  H   UNL     1      -7.300   8.872  18.743  0.00  0.00    +0.000 HD
ENDBRANCH   1  17
BRANCH  15  21
ATOM     21  C   UNL     1      -6.480  13.526  20.093  0.00  0.00    +0.000 C 
BRANCH  21  22
ATOM     22  C   UNL     1      -6.171  14.387  21.300  0.00  0.00    +0.000 A 
ATOM     23  C   UNL     1      -6.569  14.095  22.606  0.00  0.00    +0.000 A 
ATOM     24  C   UNL     1      -6.234  14.950  23.664  0.00  0.00    +0.000 A 
ATOM     25  C   UNL     1      -5.495  16.108  23.426  0.00  0.00    +0.000 A 
ATOM     26 BR   UNL     1      -5.018  17.239  24.863  0.00  0.00    +0.000 Br
ATOM     27  C   UNL     1      -5.100  16.431  22.135  0.00  0.00    +0.000 A 
ATOM     28  C   UNL     1      -5.442  15.579  21.080  0.00  0.00    +0.000 A 
ENDBRANCH  21  22
ENDBRANCH  15  21
TORSDOF 3
ENDMDL
MODEL 8
REMARK VINA RESULT:      -6.6      3.963      5.573
REMARK  Name = 
REMARK  3 active torsions:
REMARK  status: ('A' for Active; 'I' for Inactive)
REMARK    1  A    between atoms: C_2  and  C_4
REMARK    2  A    between atoms: N_18  and  C_19
REMARK    3  A    between atoms: C_19  and  C_20
REMARK                            x       y       z     vdW  Elec       q    Type
REMARK                         _______ _______ _______ _____ _____    ______ ____
ROOT
ATOM      1  C   UNL     1       5.514   4.198  16.204  0.00  0.00    +0.000 C 
ATOM      2  N   UNL     1       5.154   2.959  16.500  0.00  0.00    +0.000 NA
ATOM      3  C   UNL     1       4.288   3.171  17.552  0.00  0.00    +0.000 C 
ATOM      4  N   UNL     1       3.472   2.230  17.811  0.00  0.00    +0.000 NA
ATOM      5  S   UNL     1       2.200   2.584  18.735  0.00  0.00    +0.000 S 
ATOM      6  O   UNL     1       1.018   2.557  17.885  0.00  0.00    +0.000 OA
ATOM      7  O   UNL     1       2.265   1.794  19.940  0.00  0.00    +0.000 OA
ATOM      8  C   UNL     1       2.330   4.274  19.263  0.00  0.00    +0.000 A 
ATOM      9  C   UNL     1       1.374   4.771  20.148  0.00  0.00    +0.000 A 
ATOM     10  C   UNL     1       1.459   6.102  20.552  0.00  0.00    +0.000 A 
ATOM     11  C   UNL     1       2.454   6.928  20.030  0.00  0.00    +0.000 A 
ATOM     12  C   UNL     1       3.395   6.416  19.135  0.00  0.00    +0.000 A 
ATOM     13  C   UNL     1       3.371   5.063  18.777  0.00  0.00    +0.000 A 
ATOM     14  N   UNL     1       4.366   4.479  17.990  0.00  0.00    +0.000 N 
ATOM     15  N   UNL     1       5.355   5.141  17.247  0.00  0.00    +0.000 N 
ENDROOT
BRANCH   1  17
ATOM     16  N   UNL     1       5.506   5.913  14.504  0.00  0.00    +0.000 N 
ATOM     17  C   UNL     1       5.398   4.552  14.714  0.00  0.00    +0.000 C 
ATOM     18  O   UNL     1       5.419   3.707  13.839  0.00  0.00    +0.000 OA
ATOM     19  H   UNL     1       5.839   6.253  13.617  0.00  0.00    +0.000 HD
ATOM     20  H   UNL     1       5.651   6.499  15.323  0.00  0.00    +0.000 HD
ENDBRANCH   1  17
BRANCH  15  21
ATOM     21  C   UNL     1       6.563   5.352  18.108  0.00  0.00    +0.000 C 
BRANCH  21  22
ATOM     22  C   UNL     1       7.188   6.731  18.116  0.00  0.00    +0.000 A 
ATOM     23  C   UNL     1       6.790   7.788  17.295  0.00  0.00    +0.000 A 
ATOM     24  C   UNL     1       7.427   9.034  17.374  0.00  0.00    +0.000 A 
ATOM     25  C   UNL     1       8.469   9.235  18.277  0.00  0.00    +0.000 A 
ATOM     26 BR   UNL     1       9.301  10.928  18.401  0.00  0.00    +0.000 Br
ATOM     27  C   UNL     1       8.897   8.197  19.093  0.00  0.00    +0.000 A 
ATOM     28  C   UNL     1       8.264   6.953  19.007  0.00  0.00    +0.000 A 
ENDBRANCH  21  22
ENDBRANCH  15  21
TORSDOF 3
ENDMDL
MODEL 9
REMARK VINA RESULT:      -6.5      4.125      5.967
REMARK  Name = 
REMARK  3 active torsions:
REMARK  status: ('A' for Active; 'I' for Inactive)
REMARK    1  A    between atoms: C_2  and  C_4
REMARK    2  A    between atoms: N_18  and  C_19
REMARK    3  A    between atoms: C_19  and  C_20
REMARK                            x       y       z     vdW  Elec       q    Type
REMARK                         _______ _______ _______ _____ _____    ______ ____
ROOT
ATOM      1  C   UNL     1       0.048  10.525  21.887  0.00  0.00    +0.000 C 
ATOM      2  N   UNL     1      -0.178  11.775  22.258  0.00  0.00    +0.000 NA
ATOM      3  C   UNL     1      -1.103  12.175  21.316  0.00  0.00    +0.000 C 
ATOM      4  N   UNL     1      -1.816  13.184  21.618  0.00  0.00    +0.000 NA
ATOM      5  S   UNL     1      -3.156  13.431  20.755  0.00  0.00    +0.000 S 
ATOM      6  O   UNL     1      -4.293  13.135  21.616  0.00  0.00    +0.000 OA
ATOM      7  O   UNL     1      -3.048  14.701  20.080  0.00  0.00    +0.000 OA
ATOM      8  C   UNL     1      -3.240  12.210  19.469  0.00  0.00    +0.000 A 
ATOM      9  C   UNL     1      -4.281  12.288  18.545  0.00  0.00    +0.000 A 
ATOM     10  C   UNL     1      -4.364  11.322  17.543  0.00  0.00    +0.000 A 
ATOM     11  C   UNL     1      -3.450  10.269  17.512  0.00  0.00    +0.000 A 
ATOM     12  C   UNL     1      -2.423  10.200  18.454  0.00  0.00    +0.000 A 
ATOM     13  C   UNL     1      -2.278  11.203  19.420  0.00  0.00    +0.000 A 
ATOM     14  N   UNL     1      -1.193  11.246  20.298  0.00  0.00    +0.000 N 
ATOM     15  N   UNL     1      -0.258  10.228  20.538  0.00  0.00    +0.000 N 
ENDROOT
BRANCH   1  17
ATOM     16  N   UNL     1      -0.727   8.363  22.631  0.00  0.00    +0.000 N 
ATOM     17  C   UNL     1      -0.048   9.499  23.026  0.00  0.00    +0.000 C 
ATOM     18  O   UNL     1       0.580   9.612  24.061  0.00  0.00    +0.000 OA
ATOM     19  H   UNL     1      -0.539   7.487  23.091  0.00  0.00    +0.000 HD
ATOM     20  H   UNL     1      -1.065   8.333  21.672  0.00  0.00    +0.000 HD
ENDBRANCH   1  17
BRANCH  15  21
ATOM     21  C   UNL     1       0.884  10.368  19.577  0.00  0.00    +0.000 C 
BRANCH  21  22
ATOM     22  C   UNL     1       1.614   9.107  19.166  0.00  0.00    +0.000 A 
ATOM     23  C   UNL     1       1.781   7.985  19.979  0.00  0.00    +0.000 A 
ATOM     24  C   UNL     1       2.471   6.858  19.512  0.00  0.00    +0.000 A 
ATOM     25  C   UNL     1       3.002   6.843  18.223  0.00  0.00    +0.000 A 
ATOM     26 BR   UNL     1       3.903   5.307  17.587  0.00  0.00    +0.000 Br
ATOM     27  C   UNL     1       2.866   7.951  17.398  0.00  0.00    +0.000 A 
ATOM     28  C   UNL     1       2.182   9.077  17.870  0.00  0.00    +0.000 A 
ENDBRANCH  21  22
ENDBRANCH  15  21
TORSDOF 3
ENDMDL
