MODEL 1
REMARK VINA RESULT:      -8.3      0.000      0.000
REMARK  Name = 
REMARK  9 active torsions:
REMARK  status: ('A' for Active; 'I' for Inactive)
REMARK    1  A    between atoms: C_1  and  C_2
REMARK    2  A    between atoms: C_2  and  C_3
REMARK    3  A    between atoms: C_2  and  C_4
REMARK    4  A    between atoms: C_8  and  N_9
REMARK    5  A    between atoms: C_14  and  C_15
REMARK    6  A    between atoms: C_15  and  N_16
REMARK    7  A    between atoms: C_18  and  C_19
REMARK    8  A    between atoms: C_18  and  C_20
REMARK    9  A    between atoms: C_24  and  C_25
REMARK                            x       y       z     vdW  Elec       q    Type
REMARK                         _______ _______ _______ _____ _____    ______ ____
ROOT
ATOM      1  N   UNL     1       2.532   7.605  19.331  0.00  0.00    +0.000 N 
ATOM      2  C   UNL     1       2.198   8.323  20.585  0.00  0.00    +0.000 C 
ATOM      3  C   UNL     1       1.054   9.192  20.165  0.00  0.00    +0.000 A 
ATOM      4  C   UNL     1       1.176   9.414  18.793  0.00  0.00    +0.000 A 
ATOM      5  C   UNL     1       0.218  10.066  18.044  0.00  0.00    +0.000 A 
ATOM      6  C   UNL     1      -0.949  10.486  18.699  0.00  0.00    +0.000 A 
ATOM      7  C   UNL     1      -1.091  10.254  20.086  0.00  0.00    +0.000 A 
ATOM      8  C   UNL     1      -0.090   9.606  20.848  0.00  0.00    +0.000 A 
ATOM      9  C   UNL     1       2.239   8.513  18.278  0.00  0.00    +0.000 C 
ATOM     10  O   UNL     1       2.588   8.469  17.119  0.00  0.00    +0.000 OA
ENDROOT
BRANCH   1  15
ATOM     11  C   UNL     1       2.317   4.073  18.523  0.00  0.00    +0.000 A 
ATOM     12  C   UNL     1       1.971   3.609  19.800  0.00  0.00    +0.000 A 
ATOM     13  C   UNL     1       1.380   4.464  20.726  0.00  0.00    +0.000 A 
ATOM     14  C   UNL     1       1.247   5.816  20.436  0.00  0.00    +0.000 A 
ATOM     15  C   UNL     1       1.840   6.326  19.274  0.00  0.00    +0.000 A 
ATOM     16  C   UNL     1       2.204   5.443  18.252  0.00  0.00    +0.000 A 
BRANCH  11  18
ATOM     17  C   UNL     1       4.035   3.721  16.757  0.00  0.00    +0.000 C 
ATOM     18  C   UNL     1       2.846   3.101  17.488  0.00  0.00    +0.000 C 
ATOM     19  C   UNL     1       3.211   1.739  18.087  0.00  0.00    +0.000 C 
ENDBRANCH  11  18
ENDBRANCH   1  15
BRANCH   8  20
ATOM     20  C   UNL     1      -0.343   9.293  22.301  0.00  0.00    +0.000 C 
ATOM     21  F   UNL     1       0.774   9.301  23.075  0.00  0.00    +0.000 F 
ATOM     22  F   UNL     1      -1.194  10.181  22.876  0.00  0.00    +0.000 F 
ATOM     23  F   UNL     1      -0.906   8.061  22.473  0.00  0.00    +0.000 F 
ENDBRANCH   8  20
BRANCH   6  24
ATOM     24  C   UNL     1      -2.095  11.058  17.874  0.00  0.00    +0.000 C 
BRANCH  24  25
ATOM     25  N   UNL     1      -3.394  11.103  18.577  0.00  0.00    +0.000 NA
ATOM     26  C   UNL     1      -4.493  10.843  17.626  0.00  0.00    +0.000 C 
ATOM     27  C   UNL     1      -5.647  11.769  18.047  0.00  0.00    +0.000 C 
ATOM     28  C   UNL     1      -5.999  12.739  16.905  0.00  0.00    +0.000 C 
ATOM     29  C   UNL     1      -6.900  10.981  18.440  0.00  0.00    +0.000 C 
ATOM     30  C   UNL     1      -5.083  12.526  19.250  0.00  0.00    +0.000 C 
ATOM     31  N   UNL     1      -3.634  12.439  19.084  0.00  0.00    +0.000 NA
ATOM     32  H   UNL     1      -3.183  12.560  19.996  0.00  0.00    +0.000 HD
ENDBRANCH  24  25
ENDBRANCH   6  24
TORSDOF 5
ENDMDL
MODEL 2
REMARK VINA RESULT:      -7.9      4.200      6.498
REMARK  Name = 
REMARK  9 active torsions:
REMARK  status: ('A' for Active; 'I' for Inactive)
REMARK    1  A    between atoms: C_1  and  C_2
REMARK    2  A    between atoms: C_2  and  C_3
REMARK    3  A    between atoms: C_2  and  C_4
REMARK    4  A    between atoms: C_8  and  N_9
REMARK    5  A    between atoms: C_14  and  C_15
REMARK    6  A    between atoms: C_15  and  N_16
REMARK    7  A    between atoms: C_18  and  C_19
REMARK    8  A    between atoms: C_18  and  C_20
REMARK    9  A    between atoms: C_24  and  C_25
REMARK                            x       y       z     vdW  Elec       q    Type
REMARK                         _______ _______ _______ _____ _____    ______ ____
ROOT
ATOM      1  N   UNL     1      -0.368  11.519  18.879  0.00  0.00    +0.000 N 
ATOM      2  C   UNL     1       0.376  10.839  19.967  0.00  0.00    +0.000 C 
ATOM      3  C   UNL     1      -0.373  11.272  21.189  0.00  0.00    +0.000 A 
ATOM      4  C   UNL     1      -0.986  12.490  20.897  0.00  0.00    +0.000 A 
ATOM      5  C   UNL     1      -1.869  13.118  21.753  0.00  0.00    +0.000 A 
ATOM      6  C   UNL     1      -2.187  12.467  22.954  0.00  0.00    +0.000 A 
ATOM      7  C   UNL     1      -1.583  11.225  23.255  0.00  0.00    +0.000 A 
ATOM      8  C   UNL     1      -0.661  10.604  22.379  0.00  0.00    +0.000 A 
ATOM      9  C   UNL     1      -0.844  12.735  19.439  0.00  0.00    +0.000 C 
ATOM     10  O   UNL     1      -1.270  13.716  18.871  0.00  0.00    +0.000 OA
ENDROOT
BRANCH   1  15
ATOM     11  C   UNL     1      -3.710  10.786  17.667  0.00  0.00    +0.000 A 
ATOM     12  C   UNL     1      -3.349  10.302  16.401  0.00  0.00    +0.000 A 
ATOM     13  C   UNL     1      -2.068   9.807  16.174  0.00  0.00    +0.000 A 
ATOM     14  C   UNL     1      -1.099   9.907  17.164  0.00  0.00    +0.000 A 
ATOM     15  C   UNL     1      -1.384  10.636  18.325  0.00  0.00    +0.000 A 
ATOM     16  C   UNL     1      -2.718  10.908  18.649  0.00  0.00    +0.000 A 
BRANCH  11  18
ATOM     17  C   UNL     1      -5.288  11.665  19.380  0.00  0.00    +0.000 C 
ATOM     18  C   UNL     1      -5.141  11.208  17.930  0.00  0.00    +0.000 C 
ATOM     19  C   UNL     1      -5.630  12.285  16.956  0.00  0.00    +0.000 C 
ENDBRANCH  11  18
ENDBRANCH   1  15
BRANCH   8  20
ATOM     20  C   UNL     1      -0.130   9.231  22.705  0.00  0.00    +0.000 C 
ATOM     21  F   UNL     1      -0.153   8.925  24.028  0.00  0.00    +0.000 F 
ATOM     22  F   UNL     1      -0.836   8.248  22.088  0.00  0.00    +0.000 F 
ATOM     23  F   UNL     1       1.167   9.072  22.309  0.00  0.00    +0.000 F 
ENDBRANCH   8  20
BRANCH   6  24
ATOM     24  C   UNL     1      -3.280  13.047  23.842  0.00  0.00    +0.000 C 
BRANCH  24  25
ATOM     25  N   UNL     1      -4.645  12.584  23.517  0.00  0.00    +0.000 NA
ATOM     26  C   UNL     1      -5.368  13.627  22.762  0.00  0.00    +0.000 C 
ATOM     27  C   UNL     1      -6.820  13.589  23.267  0.00  0.00    +0.000 C 
ATOM     28  C   UNL     1      -7.206  14.943  23.890  0.00  0.00    +0.000 C 
ATOM     29  C   UNL     1      -7.808  13.251  22.147  0.00  0.00    +0.000 C 
ATOM     30  C   UNL     1      -6.805  12.487  24.328  0.00  0.00    +0.000 C 
ATOM     31  N   UNL     1      -5.406  12.399  24.738  0.00  0.00    +0.000 NA
ATOM     32  H   UNL     1      -5.228  11.469  25.130  0.00  0.00    +0.000 HD
ENDBRANCH  24  25
ENDBRANCH   6  24
TORSDOF 5
ENDMDL
MODEL 3
REMARK VINA RESULT:      -7.9      4.069      6.620
REMARK  Name = 
REMARK  9 active torsions:
REMARK  status: ('A' for Active; 'I' for Inactive)
REMARK    1  A    between atoms: C_1  and  C_2
REMARK    2  A    between atoms: C_2  and  C_3
REMARK    3  A    between atoms: C_2  and  C_4
REMARK    4  A    between atoms: C_8  and  N_9
REMARK    5  A    between atoms: C_14  and  C_15
REMARK    6  A    between atoms: C_15  and  N_16
REMARK    7  A    between atoms: C_18  and  C_19
REMARK    8  A    between atoms: C_18  and  C_20
REMARK    9  A    between atoms: C_24  and  C_25
REMARK                            x       y       z     vdW  Elec       q    Type
REMARK                         _______ _______ _______ _____ _____    ______ ____
ROOT
ATOM      1  N   UNL     1       6.455   4.339  18.052  0.00  0.00    +0.000 N 
ATOM      2  C   UNL     1       5.389   3.309  18.037  0.00  0.00    +0.000 C 
ATOM      3  C   UNL     1       4.225   4.040  18.631  0.00  0.00    +0.000 A 
ATOM      4  C   UNL     1       4.735   5.055  19.441  0.00  0.00    +0.000 A 
ATOM      5  C   UNL     1       3.944   6.012  20.043  0.00  0.00    +0.000 A 
ATOM      6  C   UNL     1       2.565   5.975  19.786  0.00  0.00    +0.000 A 
ATOM      7  C   UNL     1       2.038   4.960  18.956  0.00  0.00    +0.000 A 
ATOM      8  C   UNL     1       2.858   3.970  18.364  0.00  0.00    +0.000 A 
ATOM      9  C   UNL     1       6.197   5.144  19.195  0.00  0.00    +0.000 C 
ATOM     10  O   UNL     1       6.932   5.929  19.752  0.00  0.00    +0.000 OA
ENDROOT
BRANCH   1  15
ATOM     11  C   UNL     1       6.066   4.551  14.450  0.00  0.00    +0.000 A 
ATOM     12  C   UNL     1       5.180   5.637  14.420  0.00  0.00    +0.000 A 
ATOM     13  C   UNL     1       5.116   6.526  15.490  0.00  0.00    +0.000 A 
ATOM     14  C   UNL     1       5.836   6.269  16.649  0.00  0.00    +0.000 A 
ATOM     15  C   UNL     1       6.504   5.044  16.780  0.00  0.00    +0.000 A 
ATOM     16  C   UNL     1       6.766   4.286  15.634  0.00  0.00    +0.000 A 
BRANCH  11  18
ATOM     17  C   UNL     1       4.849   3.474  12.563  0.00  0.00    +0.000 C 
ATOM     18  C   UNL     1       6.211   3.665  13.229  0.00  0.00    +0.000 C 
ATOM     19  C   UNL     1       7.246   4.195  12.232  0.00  0.00    +0.000 C 
ENDBRANCH  11  18
ENDBRANCH   1  15
BRANCH   8  20
ATOM     20  C   UNL     1       2.254   2.977  17.404  0.00  0.00    +0.000 C 
ATOM     21  F   UNL     1       2.630   1.690  17.624  0.00  0.00    +0.000 F 
ATOM     22  F   UNL     1       0.896   2.976  17.453  0.00  0.00    +0.000 F 
ATOM     23  F   UNL     1       2.586   3.245  16.108  0.00  0.00    +0.000 F 
ENDBRANCH   8  20
BRANCH   6  24
ATOM     24  C   UNL     1       1.687   7.110  20.297  0.00  0.00    +0.000 C 
BRANCH  24  25
ATOM     25  N   UNL     1       2.002   8.436  19.725  0.00  0.00    +0.000 NA
ATOM     26  C   UNL     1       0.935   9.398  20.060  0.00  0.00    +0.000 C 
ATOM     27  C   UNL     1       0.761  10.289  18.818  0.00  0.00    +0.000 C 
ATOM     28  C   UNL     1      -0.670  10.163  18.265  0.00  0.00    +0.000 C 
ATOM     29  C   UNL     1       1.053  11.762  19.123  0.00  0.00    +0.000 C 
ATOM     30  C   UNL     1       1.780   9.728  17.825  0.00  0.00    +0.000 C 
ATOM     31  N   UNL     1       2.009   8.358  18.277  0.00  0.00    +0.000 NA
ATOM     32  H   UNL     1       2.923   8.041  17.942  0.00  0.00    +0.000 HD
ENDBRANCH  24  25
ENDBRANCH   6  24
TORSDOF 5
ENDMDL
MODEL 4
REMARK VINA RESULT:      -7.8      4.112      5.940
REMARK  Name = 
REMARK  9 active torsions:
REMARK  status: ('A' for Active; 'I' for Inactive)
REMARK    1  A    between atoms: C_1  and  C_2
REMARK    2  A    between atoms: C_2  and  C_3
REMARK    3  A    between atoms: C_2  and  C_4
REMARK    4  A    between atoms: C_8  and  N_9
REMARK    5  A    between atoms: C_14  and  C_15
REMARK    6  A    between atoms: C_15  and  N_16
REMARK    7  A    between atoms: C_18  and  C_19
REMARK    8  A    between atoms: C_18  and  C_20
REMARK    9  A    between atoms: C_24  and  C_25
REMARK                            x       y       z     vdW  Elec       q    Type
REMARK                         _______ _______ _______ _____ _____    ______ ____
ROOT
ATOM      1  N   UNL     1       0.705   8.340  21.274  0.00  0.00    +0.000 N 
ATOM      2  C   UNL     1      -0.512   8.681  20.498  0.00  0.00    +0.000 C 
ATOM      3  C   UNL     1      -0.255  10.102  20.104  0.00  0.00    +0.000 A 
ATOM      4  C   UNL     1       0.613  10.651  21.049  0.00  0.00    +0.000 A 
ATOM      5  C   UNL     1       1.168  11.908  20.927  0.00  0.00    +0.000 A 
ATOM      6  C   UNL     1       0.870  12.644  19.771  0.00  0.00    +0.000 A 
ATOM      7  C   UNL     1       0.004  12.094  18.798  0.00  0.00    +0.000 A 
ATOM      8  C   UNL     1      -0.579  10.812  18.948  0.00  0.00    +0.000 A 
ATOM      9  C   UNL     1       1.107   9.546  21.910  0.00  0.00    +0.000 C 
ATOM     10  O   UNL     1       1.877   9.697  22.832  0.00  0.00    +0.000 OA
ENDROOT
BRANCH   1  15
ATOM     11  C   UNL     1       2.052   5.556  19.374  0.00  0.00    +0.000 A 
ATOM     12  C   UNL     1       2.162   6.209  18.138  0.00  0.00    +0.000 A 
ATOM     13  C   UNL     1       2.242   7.597  18.077  0.00  0.00    +0.000 A 
ATOM     14  C   UNL     1       2.083   8.353  19.231  0.00  0.00    +0.000 A 
ATOM     15  C   UNL     1       1.700   7.713  20.417  0.00  0.00    +0.000 A 
ATOM     16  C   UNL     1       1.865   6.328  20.528  0.00  0.00    +0.000 A 
BRANCH  11  18
ATOM     17  C   UNL     1       1.309   3.551  20.650  0.00  0.00    +0.000 C 
ATOM     18  C   UNL     1       2.088   4.043  19.431  0.00  0.00    +0.000 C 
ATOM     19  C   UNL     1       1.575   3.389  18.144  0.00  0.00    +0.000 C 
ENDBRANCH  11  18
ENDBRANCH   1  15
BRANCH   8  20
ATOM     20  C   UNL     1      -1.410  10.235  17.831  0.00  0.00    +0.000 C 
ATOM     21  F   UNL     1      -2.548   9.618  18.243  0.00  0.00    +0.000 F 
ATOM     22  F   UNL     1      -1.809  11.184  16.944  0.00  0.00    +0.000 F 
ATOM     23  F   UNL     1      -0.725   9.304  17.106  0.00  0.00    +0.000 F 
ENDBRANCH   8  20
BRANCH   6  24
ATOM     24  C   UNL     1       1.595  13.961  19.525  0.00  0.00    +0.000 C 
BRANCH  24  25
ATOM     25  N   UNL     1       3.055  13.832  19.337  0.00  0.00    +0.000 NA
ATOM     26  C   UNL     1       3.762  14.817  20.181  0.00  0.00    +0.000 C 
ATOM     27  C   UNL     1       4.956  15.310  19.347  0.00  0.00    +0.000 C 
ATOM     28  C   UNL     1       4.853  16.828  19.110  0.00  0.00    +0.000 C 
ATOM     29  C   UNL     1       6.295  14.998  20.022  0.00  0.00    +0.000 C 
ATOM     30  C   UNL     1       4.820  14.544  18.030  0.00  0.00    +0.000 C 
ATOM     31  N   UNL     1       3.408  14.172  17.973  0.00  0.00    +0.000 NA
ATOM     32  H   UNL     1       3.299  13.356  17.364  0.00  0.00    +0.000 HD
ENDBRANCH  24  25
ENDBRANCH   6  24
TORSDOF 5
ENDMDL
MODEL 5
REMARK VINA RESULT:      -7.8      4.069      6.753
REMARK  Name = 
REMARK  9 active torsions:
REMARK  status: ('A' for Active; 'I' for Inactive)
REMARK    1  A    between atoms: C_1  and  C_2
REMARK    2  A    between atoms: C_2  and  C_3
REMARK    3  A    between atoms: C_2  and  C_4
REMARK    4  A    between atoms: C_8  and  N_9
REMARK    5  A    between atoms: C_14  and  C_15
REMARK    6  A    between atoms: C_15  and  N_16
REMARK    7  A    between atoms: C_18  and  C_19
REMARK    8  A    between atoms: C_18  and  C_20
REMARK    9  A    between atoms: C_24  and  C_25
REMARK                            x       y       z     vdW  Elec       q    Type
REMARK                         _______ _______ _______ _____ _____    ______ ____
ROOT
ATOM      1  N   UNL     1      -0.307  11.153  18.390  0.00  0.00    +0.000 N 
ATOM      2  C   UNL     1       0.391  10.383  19.448  0.00  0.00    +0.000 C 
ATOM      3  C   UNL     1      -0.003  11.114  20.693  0.00  0.00    +0.000 A 
ATOM      4  C   UNL     1      -0.300  12.429  20.333  0.00  0.00    +0.000 A 
ATOM      5  C   UNL     1      -0.827  13.354  21.211  0.00  0.00    +0.000 A 
ATOM      6  C   UNL     1      -1.111  12.927  22.516  0.00  0.00    +0.000 A 
ATOM      7  C   UNL     1      -0.827  11.593  22.890  0.00  0.00    +0.000 A 
ATOM      8  C   UNL     1      -0.264  10.662  21.986  0.00  0.00    +0.000 A 
ATOM      9  C   UNL     1      -0.336  12.498  18.849  0.00  0.00    +0.000 C 
ATOM     10  O   UNL     1      -0.565  13.509  18.222  0.00  0.00    +0.000 OA
ENDROOT
BRANCH   1  15
ATOM     11  C   UNL     1      -3.910  11.279  17.967  0.00  0.00    +0.000 A 
ATOM     12  C   UNL     1      -3.963  10.771  16.661  0.00  0.00    +0.000 A 
ATOM     13  C   UNL     1      -2.921   9.995  16.162  0.00  0.00    +0.000 A 
ATOM     14  C   UNL     1      -1.763   9.826  16.910  0.00  0.00    +0.000 A 
ATOM     15  C   UNL     1      -1.602  10.558  18.093  0.00  0.00    +0.000 A 
ATOM     16  C   UNL     1      -2.727  11.126  18.700  0.00  0.00    +0.000 A 
BRANCH  11  18
ATOM     17  C   UNL     1      -6.330  11.108  18.524  0.00  0.00    +0.000 C 
ATOM     18  C   UNL     1      -5.104  12.019  18.535  0.00  0.00    +0.000 C 
ATOM     19  C   UNL     1      -4.842  12.580  19.936  0.00  0.00    +0.000 C 
ENDBRANCH  11  18
ENDBRANCH   1  15
BRANCH   8  20
ATOM     20  C   UNL     1      -0.082   9.227  22.411  0.00  0.00    +0.000 C 
ATOM     21  F   UNL     1      -0.922   8.353  21.798  0.00  0.00    +0.000 F 
ATOM     22  F   UNL     1       1.172   8.770  22.155  0.00  0.00    +0.000 F 
ATOM     23  F   UNL     1      -0.281   9.056  23.750  0.00  0.00    +0.000 F 
ENDBRANCH   8  20
BRANCH   6  24
ATOM     24  C   UNL     1      -1.845  13.871  23.460  0.00  0.00    +0.000 C 
BRANCH  24  25
ATOM     25  N   UNL     1      -3.183  14.288  22.993  0.00  0.00    +0.000 NA
ATOM     26  C   UNL     1      -3.311  15.757  23.069  0.00  0.00    +0.000 C 
ATOM     27  C   UNL     1      -4.754  16.035  23.521  0.00  0.00    +0.000 C 
ATOM     28  C   UNL     1      -4.758  16.797  24.859  0.00  0.00    +0.000 C 
ATOM     29  C   UNL     1      -5.536  16.843  22.482  0.00  0.00    +0.000 C 
ATOM     30  C   UNL     1      -5.356  14.639  23.689  0.00  0.00    +0.000 C 
ATOM     31  N   UNL     1      -4.200  13.768  23.886  0.00  0.00    +0.000 NA
ATOM     32  H   UNL     1      -4.451  12.811  23.621  0.00  0.00    +0.000 HD
ENDBRANCH  24  25
ENDBRANCH   6  24
TORSDOF 5
ENDMDL
MODEL 6
REMARK VINA RESULT:      -7.7      4.223      7.476
REMARK  Name = 
REMARK  9 active torsions:
REMARK  status: ('A' for Active; 'I' for Inactive)
REMARK    1  A    between atoms: C_1  and  C_2
REMARK    2  A    between atoms: C_2  and  C_3
REMARK    3  A    between atoms: C_2  and  C_4
REMARK    4  A    between atoms: C_8  and  N_9
REMARK    5  A    between atoms: C_14  and  C_15
REMARK    6  A    between atoms: C_15  and  N_16
REMARK    7  A    between atoms: C_18  and  C_19
REMARK    8  A    between atoms: C_18  and  C_20
REMARK    9  A    between atoms: C_24  and  C_25
REMARK                            x       y       z     vdW  Elec       q    Type
REMARK                         _______ _______ _______ _____ _____    ______ ____
ROOT
ATOM      1  N   UNL     1      -0.317  11.193  18.422  0.00  0.00    +0.000 N 
ATOM      2  C   UNL     1       0.388  10.432  19.481  0.00  0.00    +0.000 C 
ATOM      3  C   UNL     1       0.001  11.173  20.723  0.00  0.00    +0.000 A 
ATOM      4  C   UNL     1      -0.301  12.484  20.354  0.00  0.00    +0.000 A 
ATOM      5  C   UNL     1      -0.823  13.416  21.228  0.00  0.00    +0.000 A 
ATOM      6  C   UNL     1      -1.099  12.998  22.538  0.00  0.00    +0.000 A 
ATOM      7  C   UNL     1      -0.812  11.668  22.921  0.00  0.00    +0.000 A 
ATOM      8  C   UNL     1      -0.252  10.730  22.021  0.00  0.00    +0.000 A 
ATOM      9  C   UNL     1      -0.345  12.541  18.870  0.00  0.00    +0.000 C 
ATOM     10  O   UNL     1      -0.579  13.547  18.237  0.00  0.00    +0.000 OA
ENDROOT
BRANCH   1  15
ATOM     11  C   UNL     1      -3.908  11.333  17.905  0.00  0.00    +0.000 A 
ATOM     12  C   UNL     1      -3.938  10.734  16.638  0.00  0.00    +0.000 A 
ATOM     13  C   UNL     1      -2.896   9.912  16.220  0.00  0.00    +0.000 A 
ATOM     14  C   UNL     1      -1.757   9.782  17.005  0.00  0.00    +0.000 A 
ATOM     15  C   UNL     1      -1.613  10.594  18.136  0.00  0.00    +0.000 A 
ATOM     16  C   UNL     1      -2.743  11.218  18.676  0.00  0.00    +0.000 A 
BRANCH  11  18
ATOM     17  C   UNL     1      -6.390  11.355  18.096  0.00  0.00    +0.000 C 
ATOM     18  C   UNL     1      -5.104  12.125  18.392  0.00  0.00    +0.000 C 
ATOM     19  C   UNL     1      -5.007  12.494  19.876  0.00  0.00    +0.000 C 
ENDBRANCH  11  18
ENDBRANCH   1  15
BRANCH   8  20
ATOM     20  C   UNL     1      -0.066   9.298  22.456  0.00  0.00    +0.000 C 
ATOM     21  F   UNL     1      -0.937   8.425  21.886  0.00  0.00    +0.000 F 
ATOM     22  F   UNL     1       1.173   8.828  22.157  0.00  0.00    +0.000 F 
ATOM     23  F   UNL     1      -0.215   9.146  23.804  0.00  0.00    +0.000 F 
ENDBRANCH   8  20
BRANCH   6  24
ATOM     24  C   UNL     1      -1.828  13.949  23.479  0.00  0.00    +0.000 C 
BRANCH  24  25
ATOM     25  N   UNL     1      -0.947  14.703  24.394  0.00  0.00    +0.000 NA
ATOM     26  C   UNL     1      -1.748  15.344  25.455  0.00  0.00    +0.000 C 
ATOM     27  C   UNL     1      -1.100  16.716  25.707  0.00  0.00    +0.000 C 
ATOM     28  C   UNL     1      -2.106  17.844  25.417  0.00  0.00    +0.000 C 
ATOM     29  C   UNL     1      -0.592  16.855  27.145  0.00  0.00    +0.000 C 
ATOM     30  C   UNL     1       0.062  16.755  24.714  0.00  0.00    +0.000 C 
ATOM     31  N   UNL     1      -0.313  15.795  23.680  0.00  0.00    +0.000 NA
ATOM     32  H   UNL     1       0.531  15.465  23.203  0.00  0.00    +0.000 HD
ENDBRANCH  24  25
ENDBRANCH   6  24
TORSDOF 5
ENDMDL
MODEL 7
REMARK VINA RESULT:      -7.7      4.084      6.464
REMARK  Name = 
REMARK  9 active torsions:
REMARK  status: ('A' for Active; 'I' for Inactive)
REMARK    1  A    between atoms: C_1  and  C_2
REMARK    2  A    between atoms: C_2  and  C_3
REMARK    3  A    between atoms: C_2  and  C_4
REMARK    4  A    between atoms: C_8  and  N_9
REMARK    5  A    between atoms: C_14  and  C_15
REMARK    6  A    between atoms: C_15  and  N_16
REMARK    7  A    between atoms: C_18  and  C_19
REMARK    8  A    between atoms: C_18  and  C_20
REMARK    9  A    between atoms: C_24  and  C_25
REMARK                            x       y       z     vdW  Elec       q    Type
REMARK                         _______ _______ _______ _____ _____    ______ ____
ROOT
ATOM      1  N   UNL     1      -0.335  11.203  18.389  0.00  0.00    +0.000 N 
ATOM      2  C   UNL     1       0.382  10.474  19.464  0.00  0.00    +0.000 C 
ATOM      3  C   UNL     1      -0.117  11.153  20.702  0.00  0.00    +0.000 A 
ATOM      4  C   UNL     1      -0.505  12.445  20.346  0.00  0.00    +0.000 A 
ATOM      5  C   UNL     1      -1.137  13.311  21.214  0.00  0.00    +0.000 A 
ATOM      6  C   UNL     1      -1.436  12.842  22.502  0.00  0.00    +0.000 A 
ATOM      7  C   UNL     1      -1.061  11.530  22.870  0.00  0.00    +0.000 A 
ATOM      8  C   UNL     1      -0.390  10.660  21.977  0.00  0.00    +0.000 A 
ATOM      9  C   UNL     1      -0.489  12.534  18.863  0.00  0.00    +0.000 C 
ATOM     10  O   UNL     1      -0.774  13.533  18.241  0.00  0.00    +0.000 OA
ENDROOT
BRANCH   1  15
ATOM     11  C   UNL     1      -3.908  11.062  17.766  0.00  0.00    +0.000 A 
ATOM     12  C   UNL     1      -3.851  10.530  16.470  0.00  0.00    +0.000 A 
ATOM     13  C   UNL     1      -2.730   9.823  16.045  0.00  0.00    +0.000 A 
ATOM     14  C   UNL     1      -1.606   9.750  16.858  0.00  0.00    +0.000 A 
ATOM     15  C   UNL     1      -1.564  10.512  18.033  0.00  0.00    +0.000 A 
ATOM     16  C   UNL     1      -2.759  11.007  18.566  0.00  0.00    +0.000 A 
BRANCH  11  18
ATOM     17  C   UNL     1      -5.803  12.543  17.124  0.00  0.00    +0.000 C 
ATOM     18  C   UNL     1      -5.181  11.723  18.253  0.00  0.00    +0.000 C 
ATOM     19  C   UNL     1      -6.186  10.720  18.828  0.00  0.00    +0.000 C 
ENDBRANCH  11  18
ENDBRANCH   1  15
BRANCH   8  20
ATOM     20  C   UNL     1      -0.110   9.238  22.391  0.00  0.00    +0.000 C 
ATOM     21  F   UNL     1      -0.308   8.992  23.712  0.00  0.00    +0.000 F 
ATOM     22  F   UNL     1      -0.895   8.347  21.731  0.00  0.00    +0.000 F 
ATOM     23  F   UNL     1       1.179   8.870  22.134  0.00  0.00    +0.000 F 
ENDBRANCH   8  20
BRANCH   6  24
ATOM     24  C   UNL     1      -2.279  13.710  23.428  0.00  0.00    +0.000 C 
BRANCH  24  25
ATOM     25  N   UNL     1      -3.565  14.152  22.852  0.00  0.00    +0.000 NA
ATOM     26  C   UNL     1      -4.559  14.352  23.925  0.00  0.00    +0.000 C 
ATOM     27  C   UNL     1      -5.902  13.861  23.358  0.00  0.00    +0.000 C 
ATOM     28  C   UNL     1      -6.447  12.698  24.207  0.00  0.00    +0.000 C 
ATOM     29  C   UNL     1      -6.947  14.979  23.308  0.00  0.00    +0.000 C 
ATOM     30  C   UNL     1      -5.547  13.385  21.948  0.00  0.00    +0.000 C 
ATOM     31  N   UNL     1      -4.115  13.107  22.011  0.00  0.00    +0.000 NA
ATOM     32  H   UNL     1      -3.719  13.165  21.068  0.00  0.00    +0.000 HD
ENDBRANCH  24  25
ENDBRANCH   6  24
TORSDOF 5
ENDMDL
MODEL 8
REMARK VINA RESULT:      -7.6      3.871      4.815
REMARK  Name = 
REMARK  9 active torsions:
REMARK  status: ('A' for Active; 'I' for Inactive)
REMARK    1  A    between atoms: C_1  and  C_2
REMARK    2  A    between atoms: C_2  and  C_3
REMARK    3  A    between atoms: C_2  and  C_4
REMARK    4  A    between atoms: C_8  and  N_9
REMARK    5  A    between atoms: C_14  and  C_15
REMARK    6  A    between atoms: C_15  and  N_16
REMARK    7  A    between atoms: C_18  and  C_19
REMARK    8  A    between atoms: C_18  and  C_20
REMARK    9  A    between atoms: C_24  and  C_25
REMARK                            x       y       z     vdW  Elec       q    Type
REMARK                         _______ _______ _______ _____ _____    ______ ____
ROOT
ATOM      1  N   UNL     1       0.685   8.298  21.232  0.00  0.00    +0.000 N 
ATOM      2  C   UNL     1      -0.538   8.622  20.458  0.00  0.00    +0.000 C 
ATOM      3  C   UNL     1      -0.329  10.064  20.114  0.00  0.00    +0.000 A 
ATOM      4  C   UNL     1       0.513  10.610  21.084  0.00  0.00    +0.000 A 
ATOM      5  C   UNL     1       1.023  11.890  21.008  0.00  0.00    +0.000 A 
ATOM      6  C   UNL     1       0.707  12.654  19.875  0.00  0.00    +0.000 A 
ATOM      7  C   UNL     1      -0.133  12.106  18.879  0.00  0.00    +0.000 A 
ATOM      8  C   UNL     1      -0.671  10.801  18.981  0.00  0.00    +0.000 A 
ATOM      9  C   UNL     1       1.040   9.495  21.910  0.00  0.00    +0.000 C 
ATOM     10  O   UNL     1       1.799   9.641  22.843  0.00  0.00    +0.000 OA
ENDROOT
BRANCH   1  15
ATOM     11  C   UNL     1       2.129   5.638  19.227  0.00  0.00    +0.000 A 
ATOM     12  C   UNL     1       2.239   6.349  18.023  0.00  0.00    +0.000 A 
ATOM     13  C   UNL     1       2.283   7.741  18.026  0.00  0.00    +0.000 A 
ATOM     14  C   UNL     1       2.089   8.439  19.211  0.00  0.00    +0.000 A 
ATOM     15  C   UNL     1       1.708   7.736  20.361  0.00  0.00    +0.000 A 
ATOM     16  C   UNL     1       1.907   6.352  20.411  0.00  0.00    +0.000 A 
BRANCH  11  18
ATOM     17  C   UNL     1       1.191   3.549  20.203  0.00  0.00    +0.000 C 
ATOM     18  C   UNL     1       2.204   4.125  19.216  0.00  0.00    +0.000 C 
ATOM     19  C   UNL     1       2.014   3.533  17.816  0.00  0.00    +0.000 C 
ENDBRANCH  11  18
ENDBRANCH   1  15
BRANCH   8  20
ATOM     20  C   UNL     1      -1.474  10.233  17.838  0.00  0.00    +0.000 C 
ATOM     21  F   UNL     1      -0.810   9.309  17.096  0.00  0.00    +0.000 F 
ATOM     22  F   UNL     1      -2.607   9.617  18.263  0.00  0.00    +0.000 F 
ATOM     23  F   UNL     1      -1.874  11.198  16.959  0.00  0.00    +0.000 F 
ENDBRANCH   8  20
BRANCH   6  24
ATOM     24  C   UNL     1       1.385  14.003  19.680  0.00  0.00    +0.000 C 
BRANCH  24  25
ATOM     25  N   UNL     1       0.519  15.170  19.944  0.00  0.00    +0.000 NA
ATOM     26  C   UNL     1      -0.081  15.651  18.684  0.00  0.00    +0.000 C 
ATOM     27  C   UNL     1      -0.103  17.186  18.783  0.00  0.00    +0.000 C 
ATOM     28  C   UNL     1       0.736  17.807  17.652  0.00  0.00    +0.000 C 
ATOM     29  C   UNL     1      -1.528  17.745  18.716  0.00  0.00    +0.000 C 
ATOM     30  C   UNL     1       0.528  17.470  20.147  0.00  0.00    +0.000 C 
ATOM     31  N   UNL     1       1.318  16.276  20.436  0.00  0.00    +0.000 NA
ATOM     32  H   UNL     1       1.451  16.196  21.448  0.00  0.00    +0.000 HD
ENDBRANCH  24  25
ENDBRANCH   6  24
TORSDOF 5
ENDMDL
MODEL 9
REMARK VINA RESULT:      -7.6      3.985      5.722
REMARK  Name = 
REMARK  9 active torsions:
REMARK  status: ('A' for Active; 'I' for Inactive)
REMARK    1  A    between atoms: C_1  and  C_2
REMARK    2  A    between atoms: C_2  and  C_3
REMARK    3  A    between atoms: C_2  and  C_4
REMARK    4  A    between atoms: C_8  and  N_9
REMARK    5  A    between atoms: C_14  and  C_15
REMARK    6  A    between atoms: C_15  and  N_16
REMARK    7  A    between atoms: C_18  and  C_19
REMARK    8  A    between atoms: C_18  and  C_20
REMARK    9  A    between atoms: C_24  and  C_25
REMARK                            x       y       z     vdW  Elec       q    Type
REMARK                         _______ _______ _______ _____ _____    ______ ____
ROOT
ATOM      1  N   UNL     1       0.545   8.394  21.231  0.00  0.00    +0.000 N 
ATOM      2  C   UNL     1      -0.654   8.729  20.426  0.00  0.00    +0.000 C 
ATOM      3  C   UNL     1      -0.483  10.197  20.186  0.00  0.00    +0.000 A 
ATOM      4  C   UNL     1       0.296  10.705  21.227  0.00  0.00    +0.000 A 
ATOM      5  C   UNL     1       0.764  12.002  21.259  0.00  0.00    +0.000 A 
ATOM      6  C   UNL     1       0.469  12.829  20.165  0.00  0.00    +0.000 A 
ATOM      7  C   UNL     1      -0.307  12.323  19.097  0.00  0.00    +0.000 A 
ATOM      8  C   UNL     1      -0.802  10.997  19.089  0.00  0.00    +0.000 A 
ATOM      9  C   UNL     1       0.827   9.554  22.002  0.00  0.00    +0.000 C 
ATOM     10  O   UNL     1       1.539   9.663  22.976  0.00  0.00    +0.000 OA
ENDROOT
BRANCH   1  15
ATOM     11  C   UNL     1       2.201   5.900  19.179  0.00  0.00    +0.000 A 
ATOM     12  C   UNL     1       2.302   6.660  18.005  0.00  0.00    +0.000 A 
ATOM     13  C   UNL     1       2.263   8.050  18.058  0.00  0.00    +0.000 A 
ATOM     14  C   UNL     1       1.995   8.691  19.261  0.00  0.00    +0.000 A 
ATOM     15  C   UNL     1       1.623   7.926  20.373  0.00  0.00    +0.000 A 
ATOM     16  C   UNL     1       1.903   6.555  20.381  0.00  0.00    +0.000 A 
BRANCH  11  18
ATOM     17  C   UNL     1       1.570   3.740  20.244  0.00  0.00    +0.000 C 
ATOM     18  C   UNL     1       2.367   4.395  19.117  0.00  0.00    +0.000 C 
ATOM     19  C   UNL     1       1.982   3.812  17.753  0.00  0.00    +0.000 C 
ENDBRANCH  11  18
ENDBRANCH   1  15
BRANCH   8  20
ATOM     20  C   UNL     1      -1.534  10.481  17.877  0.00  0.00    +0.000 C 
ATOM     21  F   UNL     1      -1.875  11.443  16.980  0.00  0.00    +0.000 F 
ATOM     22  F   UNL     1      -0.799   9.575  17.180  0.00  0.00    +0.000 F 
ATOM     23  F   UNL     1      -2.699   9.851  18.207  0.00  0.00    +0.000 F 
ENDBRANCH   8  20
BRANCH   6  24
ATOM     24  C   UNL     1       1.107  14.210  20.089  0.00  0.00    +0.000 C 
BRANCH  24  25
ATOM     25  N   UNL     1       2.050  14.390  18.966  0.00  0.00    +0.000 NA
ATOM     26  C   UNL     1       3.440  14.267  19.448  0.00  0.00    +0.000 C 
ATOM     27  C   UNL     1       4.255  15.309  18.664  0.00  0.00    +0.000 C 
ATOM     28  C   UNL     1       4.890  16.328  19.628  0.00  0.00    +0.000 C 
ATOM     29  C   UNL     1       5.359  14.660  17.823  0.00  0.00    +0.000 C 
ATOM     30  C   UNL     1       3.215  15.983  17.768  0.00  0.00    +0.000 C 
ATOM     31  N   UNL     1       1.944  15.738  18.443  0.00  0.00    +0.000 NA
ATOM     32  H   UNL     1       1.183  15.795  17.760  0.00  0.00    +0.000 HD
ENDBRANCH  24  25
ENDBRANCH   6  24
TORSDOF 5
ENDMDL
