MODEL 1
REMARK VINA RESULT:      -9.0      0.000      0.000
REMARK  Name = 
REMARK  7 active torsions:
REMARK  status: ('A' for Active; 'I' for Inactive)
REMARK    1  A    between atoms: C_1  and  C_2
REMARK    2  A    between atoms: C_2  and  C_4
REMARK    3  A    between atoms: N_12  and  C_13
REMARK    4  A    between atoms: C_17  and  C_18
REMARK    5  A    between atoms: C_18  and  C_19
REMARK    6  A    between atoms: C_19  and  C_20
REMARK    7  A    between atoms: N_24  and  C_25
REMARK                            x       y       z     vdW  Elec       q    Type
REMARK                         _______ _______ _______ _____ _____    ______ ____
ROOT
ATOM      1  C   UNL     1       4.590   4.926  16.971  0.00  0.00    +0.000 A 
ATOM      2  C   UNL     1       4.600   3.512  16.976  0.00  0.00    +0.000 A 
ATOM      3  C   UNL     1       3.773   2.776  17.837  0.00  0.00    +0.000 A 
ATOM      4  F   UNL     1       3.816   1.440  17.808  0.00  0.00    +0.000 F 
ATOM      5  C   UNL     1       2.929   3.408  18.726  0.00  0.00    +0.000 A 
ATOM      6  C   UNL     1       2.930   4.789  18.698  0.00  0.00    +0.000 A 
ATOM      7  C   UNL     1       3.702   5.564  17.833  0.00  0.00    +0.000 A 
ATOM      8  C   UNL     1       3.365   7.020  18.050  0.00  0.00    +0.000 C 
ATOM      9  N   UNL     1       2.445   6.975  19.187  0.00  0.00    +0.000 N 
ATOM     10  C   UNL     1       2.157   5.663  19.557  0.00  0.00    +0.000 C 
ATOM     11  O   UNL     1       1.394   5.209  20.395  0.00  0.00    +0.000 OA
ENDROOT
BRANCH   9  12
ATOM     12  C   UNL     1       1.783   8.090  19.762  0.00  0.00    +0.000 A 
ATOM     13  C   UNL     1       1.583   8.114  21.153  0.00  0.00    +0.000 A 
ATOM     14  C   UNL     1       0.786   9.078  21.761  0.00  0.00    +0.000 A 
ATOM     15  C   UNL     1       0.149  10.029  20.979  0.00  0.00    +0.000 A 
ATOM     16  C   UNL     1       0.340  10.046  19.589  0.00  0.00    +0.000 A 
ATOM     17  C   UNL     1       1.216   9.113  18.991  0.00  0.00    +0.000 A 
BRANCH  16  18
ATOM     18  C   UNL     1      -0.512  10.979  18.754  0.00  0.00    +0.000 C 
BRANCH  18  19
ATOM     19  C   UNL     1      -1.324  10.273  17.670  0.00  0.00    +0.000 C 
BRANCH  19  20
ATOM     20  C   UNL     1      -2.700  10.842  17.534  0.00  0.00    +0.000 A 
ATOM     21  N   UNL     1      -3.449  11.381  18.476  0.00  0.00    +0.000 NA
ATOM     22  N   UNL     1      -4.631  11.792  17.905  0.00  0.00    +0.000 NA
ATOM     23  C   UNL     1      -4.580  11.496  16.627  0.00  0.00    +0.000 A 
ATOM     24  N   UNL     1      -3.395  10.890  16.353  0.00  0.00    +0.000 N 
ATOM     25  C   UNL     1      -2.968  10.389  15.075  0.00  0.00    +0.000 C 
ENDBRANCH  19  20
ENDBRANCH  18  19
ENDBRANCH  16  18
ENDBRANCH   9  12
BRANCH   1  27
ATOM     26  C   UNL     1       6.356   4.731  15.193  0.00  0.00    +0.000 C 
ATOM     27  C   UNL     1       5.555   5.667  16.079  0.00  0.00    +0.000 C 
ATOM     28  F   UNL     1       4.921   6.567  15.272  0.00  0.00    +0.000 F 
ENDBRANCH   1  27
TORSDOF 5
ENDMDL
MODEL 2
REMARK VINA RESULT:      -8.6      3.901      8.140
REMARK  Name = 
REMARK  7 active torsions:
REMARK  status: ('A' for Active; 'I' for Inactive)
REMARK    1  A    between atoms: C_1  and  C_2
REMARK    2  A    between atoms: C_2  and  C_4
REMARK    3  A    between atoms: N_12  and  C_13
REMARK    4  A    between atoms: C_17  and  C_18
REMARK    5  A    between atoms: C_18  and  C_19
REMARK    6  A    between atoms: C_19  and  C_20
REMARK    7  A    between atoms: N_24  and  C_25
REMARK                            x       y       z     vdW  Elec       q    Type
REMARK                         _______ _______ _______ _____ _____    ______ ____
ROOT
ATOM      1  C   UNL     1       0.276  10.758  19.784  0.00  0.00    +0.000 A 
ATOM      2  C   UNL     1      -0.354  11.006  21.026  0.00  0.00    +0.000 A 
ATOM      3  C   UNL     1      -0.296  10.077  22.075  0.00  0.00    +0.000 A 
ATOM      4  F   UNL     1      -0.908  10.353  23.232  0.00  0.00    +0.000 F 
ATOM      5  C   UNL     1       0.366   8.876  21.928  0.00  0.00    +0.000 A 
ATOM      6  C   UNL     1       0.981   8.660  20.711  0.00  0.00    +0.000 A 
ATOM      7  C   UNL     1       0.987   9.568  19.653  0.00  0.00    +0.000 A 
ATOM      8  C   UNL     1       1.828   9.005  18.531  0.00  0.00    +0.000 C 
ATOM      9  N   UNL     1       2.169   7.668  19.019  0.00  0.00    +0.000 N 
ATOM     10  C   UNL     1       1.701   7.466  20.316  0.00  0.00    +0.000 C 
ATOM     11  O   UNL     1       1.838   6.529  21.087  0.00  0.00    +0.000 OA
ENDROOT
BRANCH   9  12
ATOM     12  C   UNL     1       3.004   6.731  18.357  0.00  0.00    +0.000 A 
ATOM     13  C   UNL     1       4.070   7.209  17.576  0.00  0.00    +0.000 A 
ATOM     14  C   UNL     1       4.812   6.365  16.757  0.00  0.00    +0.000 A 
ATOM     15  C   UNL     1       4.481   5.020  16.685  0.00  0.00    +0.000 A 
ATOM     16  C   UNL     1       3.435   4.505  17.463  0.00  0.00    +0.000 A 
ATOM     17  C   UNL     1       2.740   5.355  18.353  0.00  0.00    +0.000 A 
BRANCH  16  18
ATOM     18  C   UNL     1       2.987   3.080  17.221  0.00  0.00    +0.000 C 
BRANCH  18  19
ATOM     19  C   UNL     1       3.536   2.076  18.233  0.00  0.00    +0.000 C 
BRANCH  19  20
ATOM     20  C   UNL     1       2.995   2.308  19.607  0.00  0.00    +0.000 A 
ATOM     21  N   UNL     1       3.673   2.495  20.723  0.00  0.00    +0.000 NA
ATOM     22  N   UNL     1       2.775   2.691  21.746  0.00  0.00    +0.000 NA
ATOM     23  C   UNL     1       1.568   2.620  21.235  0.00  0.00    +0.000 A 
ATOM     24  N   UNL     1       1.657   2.371  19.903  0.00  0.00    +0.000 N 
ATOM     25  C   UNL     1       0.559   2.196  18.992  0.00  0.00    +0.000 C 
ENDBRANCH  19  20
ENDBRANCH  18  19
ENDBRANCH  16  18
ENDBRANCH   9  12
BRANCH   1  27
ATOM     26  C   UNL     1      -0.939  12.801  18.970  0.00  0.00    +0.000 C 
ATOM     27  C   UNL     1       0.118  11.755  18.664  0.00  0.00    +0.000 C 
ATOM     28  F   UNL     1       1.284  12.407  18.388  0.00  0.00    +0.000 F 
ENDBRANCH   1  27
TORSDOF 5
ENDMDL
MODEL 3
REMARK VINA RESULT:      -8.6      3.932      8.217
REMARK  Name = 
REMARK  7 active torsions:
REMARK  status: ('A' for Active; 'I' for Inactive)
REMARK    1  A    between atoms: C_1  and  C_2
REMARK    2  A    between atoms: C_2  and  C_4
REMARK    3  A    between atoms: N_12  and  C_13
REMARK    4  A    between atoms: C_17  and  C_18
REMARK    5  A    between atoms: C_18  and  C_19
REMARK    6  A    between atoms: C_19  and  C_20
REMARK    7  A    between atoms: N_24  and  C_25
REMARK                            x       y       z     vdW  Elec       q    Type
REMARK                         _______ _______ _______ _____ _____    ______ ____
ROOT
ATOM      1  C   UNL     1       0.268  10.953  19.876  0.00  0.00    +0.000 A 
ATOM      2  C   UNL     1      -0.316  11.258  21.128  0.00  0.00    +0.000 A 
ATOM      3  C   UNL     1      -0.270  10.352  22.198  0.00  0.00    +0.000 A 
ATOM      4  F   UNL     1      -0.836  10.682  23.364  0.00  0.00    +0.000 F 
ATOM      5  C   UNL     1       0.334   9.120  22.062  0.00  0.00    +0.000 A 
ATOM      6  C   UNL     1       0.905   8.847  20.835  0.00  0.00    +0.000 A 
ATOM      7  C   UNL     1       0.921   9.729  19.755  0.00  0.00    +0.000 A 
ATOM      8  C   UNL     1       1.705   9.103  18.625  0.00  0.00    +0.000 C 
ATOM      9  N   UNL     1       2.000   7.765  19.136  0.00  0.00    +0.000 N 
ATOM     10  C   UNL     1       1.560   7.613  20.450  0.00  0.00    +0.000 C 
ATOM     11  O   UNL     1       1.677   6.690  21.241  0.00  0.00    +0.000 OA
ENDROOT
BRANCH   9  12
ATOM     12  C   UNL     1       2.774   6.776  18.475  0.00  0.00    +0.000 A 
ATOM     13  C   UNL     1       3.954   7.167  17.820  0.00  0.00    +0.000 A 
ATOM     14  C   UNL     1       4.660   6.292  17.002  0.00  0.00    +0.000 A 
ATOM     15  C   UNL     1       4.181   5.006  16.804  0.00  0.00    +0.000 A 
ATOM     16  C   UNL     1       3.016   4.576  17.456  0.00  0.00    +0.000 A 
ATOM     17  C   UNL     1       2.351   5.446  18.348  0.00  0.00    +0.000 A 
BRANCH  16  18
ATOM     18  C   UNL     1       2.427   3.235  17.074  0.00  0.00    +0.000 C 
BRANCH  18  19
ATOM     19  C   UNL     1       2.788   2.102  18.032  0.00  0.00    +0.000 C 
BRANCH  19  20
ATOM     20  C   UNL     1       2.338   2.381  19.430  0.00  0.00    +0.000 A 
ATOM     21  N   UNL     1       1.108   2.581  19.860  0.00  0.00    +0.000 NA
ATOM     22  N   UNL     1       1.152   2.779  21.220  0.00  0.00    +0.000 NA
ATOM     23  C   UNL     1       2.408   2.695  21.594  0.00  0.00    +0.000 A 
ATOM     24  N   UNL     1       3.186   2.458  20.506  0.00  0.00    +0.000 N 
ATOM     25  C   UNL     1       4.617   2.328  20.493  0.00  0.00    +0.000 C 
ENDBRANCH  19  20
ENDBRANCH  18  19
ENDBRANCH  16  18
ENDBRANCH   9  12
BRANCH   1  27
ATOM     26  C   UNL     1      -1.323  12.098  18.303  0.00  0.00    +0.000 C 
ATOM     27  C   UNL     1       0.122  11.930  18.737  0.00  0.00    +0.000 C 
ATOM     28  F   UNL     1       0.610  13.164  19.053  0.00  0.00    +0.000 F 
ENDBRANCH   1  27
TORSDOF 5
ENDMDL
MODEL 4
REMARK VINA RESULT:      -8.5      4.213      8.479
REMARK  Name = 
REMARK  7 active torsions:
REMARK  status: ('A' for Active; 'I' for Inactive)
REMARK    1  A    between atoms: C_1  and  C_2
REMARK    2  A    between atoms: C_2  and  C_4
REMARK    3  A    between atoms: N_12  and  C_13
REMARK    4  A    between atoms: C_17  and  C_18
REMARK    5  A    between atoms: C_18  and  C_19
REMARK    6  A    between atoms: C_19  and  C_20
REMARK    7  A    between atoms: N_24  and  C_25
REMARK                            x       y       z     vdW  Elec       q    Type
REMARK                         _______ _______ _______ _____ _____    ______ ____
ROOT
ATOM      1  C   UNL     1       0.068   9.848  21.279  0.00  0.00    +0.000 A 
ATOM      2  C   UNL     1      -0.486  11.103  20.932  0.00  0.00    +0.000 A 
ATOM      3  C   UNL     1      -0.270  11.674  19.669  0.00  0.00    +0.000 A 
ATOM      4  F   UNL     1      -0.812  12.863  19.384  0.00  0.00    +0.000 F 
ATOM      5  C   UNL     1       0.507  11.039  18.723  0.00  0.00    +0.000 A 
ATOM      6  C   UNL     1       1.029   9.812  19.081  0.00  0.00    +0.000 A 
ATOM      7  C   UNL     1       0.810   9.184  20.306  0.00  0.00    +0.000 A 
ATOM      8  C   UNL     1       1.478   7.829  20.287  0.00  0.00    +0.000 C 
ATOM      9  N   UNL     1       2.179   7.830  19.003  0.00  0.00    +0.000 N 
ATOM     10  C   UNL     1       1.897   8.981  18.270  0.00  0.00    +0.000 C 
ATOM     11  O   UNL     1       2.222   9.322  17.143  0.00  0.00    +0.000 OA
ENDROOT
BRANCH   9  12
ATOM     12  C   UNL     1       2.928   6.751  18.465  0.00  0.00    +0.000 A 
ATOM     13  C   UNL     1       4.220   7.003  17.976  0.00  0.00    +0.000 A 
ATOM     14  C   UNL     1       4.936   6.040  17.272  0.00  0.00    +0.000 A 
ATOM     15  C   UNL     1       4.356   4.805  17.023  0.00  0.00    +0.000 A 
ATOM     16  C   UNL     1       3.075   4.513  17.512  0.00  0.00    +0.000 A 
ATOM     17  C   UNL     1       2.389   5.469  18.295  0.00  0.00    +0.000 A 
BRANCH  16  18
ATOM     18  C   UNL     1       2.406   3.231  17.065  0.00  0.00    +0.000 C 
BRANCH  18  19
ATOM     19  C   UNL     1       2.662   2.042  17.990  0.00  0.00    +0.000 C 
BRANCH  19  20
ATOM     20  C   UNL     1       2.294   2.341  19.408  0.00  0.00    +0.000 A 
ATOM     21  N   UNL     1       1.093   2.576  19.900  0.00  0.00    +0.000 NA
ATOM     22  N   UNL     1       1.214   2.780  21.255  0.00  0.00    +0.000 NA
ATOM     23  C   UNL     1       2.485   2.665  21.563  0.00  0.00    +0.000 A 
ATOM     24  N   UNL     1       3.198   2.401  20.437  0.00  0.00    +0.000 N 
ATOM     25  C   UNL     1       4.623   2.233  20.350  0.00  0.00    +0.000 C 
ENDBRANCH  19  20
ENDBRANCH  18  19
ENDBRANCH  16  18
ENDBRANCH   9  12
BRANCH   1  27
ATOM     26  C   UNL     1       1.161   9.289  23.472  0.00  0.00    +0.000 C 
ATOM     27  C   UNL     1      -0.131   9.316  22.676  0.00  0.00    +0.000 C 
ATOM     28  F   UNL     1      -1.041  10.050  23.381  0.00  0.00    +0.000 F 
ENDBRANCH   1  27
TORSDOF 5
ENDMDL
MODEL 5
REMARK VINA RESULT:      -8.5      1.349      2.571
REMARK  Name = 
REMARK  7 active torsions:
REMARK  status: ('A' for Active; 'I' for Inactive)
REMARK    1  A    between atoms: C_1  and  C_2
REMARK    2  A    between atoms: C_2  and  C_4
REMARK    3  A    between atoms: N_12  and  C_13
REMARK    4  A    between atoms: C_17  and  C_18
REMARK    5  A    between atoms: C_18  and  C_19
REMARK    6  A    between atoms: C_19  and  C_20
REMARK    7  A    between atoms: N_24  and  C_25
REMARK                            x       y       z     vdW  Elec       q    Type
REMARK                         _______ _______ _______ _____ _____    ______ ____
ROOT
ATOM      1  C   UNL     1       3.605   4.062  18.444  0.00  0.00    +0.000 A 
ATOM      2  C   UNL     1       4.491   3.850  17.361  0.00  0.00    +0.000 A 
ATOM      3  C   UNL     1       4.902   4.906  16.534  0.00  0.00    +0.000 A 
ATOM      4  F   UNL     1       5.740   4.659  15.521  0.00  0.00    +0.000 F 
ATOM      5  C   UNL     1       4.444   6.190  16.737  0.00  0.00    +0.000 A 
ATOM      6  C   UNL     1       3.588   6.375  17.805  0.00  0.00    +0.000 A 
ATOM      7  C   UNL     1       3.182   5.368  18.679  0.00  0.00    +0.000 A 
ATOM      8  C   UNL     1       2.317   5.976  19.757  0.00  0.00    +0.000 C 
ATOM      9  N   UNL     1       2.185   7.367  19.323  0.00  0.00    +0.000 N 
ATOM     10  C   UNL     1       2.955   7.621  18.190  0.00  0.00    +0.000 C 
ATOM     11  O   UNL     1       3.170   8.653  17.572  0.00  0.00    +0.000 OA
ENDROOT
BRANCH   9  12
ATOM     12  C   UNL     1       1.504   8.395  20.025  0.00  0.00    +0.000 A 
ATOM     13  C   UNL     1       1.408   8.309  21.424  0.00  0.00    +0.000 A 
ATOM     14  C   UNL     1       0.604   9.175  22.156  0.00  0.00    +0.000 A 
ATOM     15  C   UNL     1      -0.144  10.137  21.493  0.00  0.00    +0.000 A 
ATOM     16  C   UNL     1      -0.059  10.263  20.099  0.00  0.00    +0.000 A 
ATOM     17  C   UNL     1       0.823   9.431  19.373  0.00  0.00    +0.000 A 
BRANCH  16  18
ATOM     18  C   UNL     1      -1.023  11.196  19.397  0.00  0.00    +0.000 C 
BRANCH  18  19
ATOM     19  C   UNL     1      -1.639  10.611  18.128  0.00  0.00    +0.000 C 
BRANCH  19  20
ATOM     20  C   UNL     1      -3.014  11.140  17.873  0.00  0.00    +0.000 A 
ATOM     21  N   UNL     1      -3.871  11.625  18.750  0.00  0.00    +0.000 NA
ATOM     22  N   UNL     1      -5.004  12.016  18.077  0.00  0.00    +0.000 NA
ATOM     23  C   UNL     1      -4.817  11.762  16.802  0.00  0.00    +0.000 A 
ATOM     24  N   UNL     1      -3.591  11.204  16.630  0.00  0.00    +0.000 N 
ATOM     25  C   UNL     1      -3.023  10.759  15.387  0.00  0.00    +0.000 C 
ENDBRANCH  19  20
ENDBRANCH  18  19
ENDBRANCH  16  18
ENDBRANCH   9  12
BRANCH   1  27
ATOM     26  C   UNL     1       3.372   1.562  18.539  0.00  0.00    +0.000 C 
ATOM     27  C   UNL     1       3.134   2.880  19.253  0.00  0.00    +0.000 C 
ATOM     28  F   UNL     1       3.749   2.814  20.470  0.00  0.00    +0.000 F 
ENDBRANCH   1  27
TORSDOF 5
ENDMDL
MODEL 6
REMARK VINA RESULT:      -8.4      1.639      3.092
REMARK  Name = 
REMARK  7 active torsions:
REMARK  status: ('A' for Active; 'I' for Inactive)
REMARK    1  A    between atoms: C_1  and  C_2
REMARK    2  A    between atoms: C_2  and  C_4
REMARK    3  A    between atoms: N_12  and  C_13
REMARK    4  A    between atoms: C_17  and  C_18
REMARK    5  A    between atoms: C_18  and  C_19
REMARK    6  A    between atoms: C_19  and  C_20
REMARK    7  A    between atoms: N_24  and  C_25
REMARK                            x       y       z     vdW  Elec       q    Type
REMARK                         _______ _______ _______ _____ _____    ______ ____
ROOT
ATOM      1  C   UNL     1       3.229   4.046  19.784  0.00  0.00    +0.000 A 
ATOM      2  C   UNL     1       4.044   3.517  18.756  0.00  0.00    +0.000 A 
ATOM      3  C   UNL     1       4.407   4.286  17.640  0.00  0.00    +0.000 A 
ATOM      4  F   UNL     1       5.179   3.744  16.692  0.00  0.00    +0.000 F 
ATOM      5  C   UNL     1       3.968   5.585  17.497  0.00  0.00    +0.000 A 
ATOM      6  C   UNL     1       3.181   6.083  18.517  0.00  0.00    +0.000 A 
ATOM      7  C   UNL     1       2.827   5.374  19.663  0.00  0.00    +0.000 A 
ATOM      8  C   UNL     1       2.033   6.282  20.573  0.00  0.00    +0.000 C 
ATOM      9  N   UNL     1       1.880   7.495  19.769  0.00  0.00    +0.000 N 
ATOM     10  C   UNL     1       2.579   7.400  18.568  0.00  0.00    +0.000 C 
ATOM     11  O   UNL     1       2.759   8.210  17.671  0.00  0.00    +0.000 OA
ENDROOT
BRANCH   9  12
ATOM     12  C   UNL     1       1.248   8.694  20.189  0.00  0.00    +0.000 A 
ATOM     13  C   UNL     1       1.028   8.897  21.562  0.00  0.00    +0.000 A 
ATOM     14  C   UNL     1       0.256   9.955  22.030  0.00  0.00    +0.000 A 
ATOM     15  C   UNL     1      -0.334  10.823  21.123  0.00  0.00    +0.000 A 
ATOM     16  C   UNL     1      -0.121  10.661  19.746  0.00  0.00    +0.000 A 
ATOM     17  C   UNL     1       0.731   9.632  19.286  0.00  0.00    +0.000 A 
BRANCH  16  18
ATOM     18  C   UNL     1      -0.926  11.510  18.785  0.00  0.00    +0.000 C 
BRANCH  18  19
ATOM     19  C   UNL     1      -2.387  11.084  18.655  0.00  0.00    +0.000 C 
BRANCH  19  20
ATOM     20  C   UNL     1      -2.753  10.746  17.246  0.00  0.00    +0.000 A 
ATOM     21  N   UNL     1      -2.048  10.058  16.369  0.00  0.00    +0.000 NA
ATOM     22  N   UNL     1      -2.775   9.970  15.205  0.00  0.00    +0.000 NA
ATOM     23  C   UNL     1      -3.908  10.605  15.394  0.00  0.00    +0.000 A 
ATOM     24  N   UNL     1      -3.933  11.116  16.652  0.00  0.00    +0.000 N 
ATOM     25  C   UNL     1      -4.988  11.899  17.234  0.00  0.00    +0.000 C 
ENDBRANCH  19  20
ENDBRANCH  18  19
ENDBRANCH  16  18
ENDBRANCH   9  12
BRANCH   1  27
ATOM     26  C   UNL     1       1.409   2.589  20.722  0.00  0.00    +0.000 C 
ATOM     27  C   UNL     1       2.804   3.153  20.922  0.00  0.00    +0.000 C 
ATOM     28  F   UNL     1       3.658   2.103  21.097  0.00  0.00    +0.000 F 
ENDBRANCH   1  27
TORSDOF 5
ENDMDL
MODEL 7
REMARK VINA RESULT:      -8.4      1.605      2.947
REMARK  Name = 
REMARK  7 active torsions:
REMARK  status: ('A' for Active; 'I' for Inactive)
REMARK    1  A    between atoms: C_1  and  C_2
REMARK    2  A    between atoms: C_2  and  C_4
REMARK    3  A    between atoms: N_12  and  C_13
REMARK    4  A    between atoms: C_17  and  C_18
REMARK    5  A    between atoms: C_18  and  C_19
REMARK    6  A    between atoms: C_19  and  C_20
REMARK    7  A    between atoms: N_24  and  C_25
REMARK                            x       y       z     vdW  Elec       q    Type
REMARK                         _______ _______ _______ _____ _____    ______ ____
ROOT
ATOM      1  C   UNL     1       3.045   4.372  19.672  0.00  0.00    +0.000 A 
ATOM      2  C   UNL     1       3.840   3.958  18.577  0.00  0.00    +0.000 A 
ATOM      3  C   UNL     1       4.170   4.838  17.536  0.00  0.00    +0.000 A 
ATOM      4  F   UNL     1       4.923   4.403  16.521  0.00  0.00    +0.000 F 
ATOM      5  C   UNL     1       3.715   6.140  17.534  0.00  0.00    +0.000 A 
ATOM      6  C   UNL     1       2.948   6.525  18.616  0.00  0.00    +0.000 A 
ATOM      7  C   UNL     1       2.628   5.700  19.694  0.00  0.00    +0.000 A 
ATOM      8  C   UNL     1       1.848   6.504  20.708  0.00  0.00    +0.000 C 
ATOM      9  N   UNL     1       1.664   7.789  20.034  0.00  0.00    +0.000 N 
ATOM     10  C   UNL     1       2.335   7.823  18.813  0.00  0.00    +0.000 C 
ATOM     11  O   UNL     1       2.486   8.721  17.998  0.00  0.00    +0.000 OA
ENDROOT
BRANCH   9  12
ATOM     12  C   UNL     1       1.032   8.933  20.586  0.00  0.00    +0.000 A 
ATOM     13  C   UNL     1       0.743   8.948  21.961  0.00  0.00    +0.000 A 
ATOM     14  C   UNL     1      -0.035   9.948  22.534  0.00  0.00    +0.000 A 
ATOM     15  C   UNL     1      -0.562  10.948  21.730  0.00  0.00    +0.000 A 
ATOM     16  C   UNL     1      -0.279  10.974  20.356  0.00  0.00    +0.000 A 
ATOM     17  C   UNL     1       0.578   9.999  19.799  0.00  0.00    +0.000 A 
BRANCH  16  18
ATOM     18  C   UNL     1      -1.018  11.968  19.485  0.00  0.00    +0.000 C 
BRANCH  18  19
ATOM     19  C   UNL     1      -1.456  11.404  18.135  0.00  0.00    +0.000 C 
BRANCH  19  20
ATOM     20  C   UNL     1      -2.932  11.523  17.926  0.00  0.00    +0.000 A 
ATOM     21  N   UNL     1      -3.849  11.868  18.807  0.00  0.00    +0.000 NA
ATOM     22  N   UNL     1      -5.073  11.869  18.180  0.00  0.00    +0.000 NA
ATOM     23  C   UNL     1      -4.878  11.525  16.928  0.00  0.00    +0.000 A 
ATOM     24  N   UNL     1      -3.556  11.289  16.726  0.00  0.00    +0.000 N 
ATOM     25  C   UNL     1      -2.942  10.864  15.498  0.00  0.00    +0.000 C 
ENDBRANCH  19  20
ENDBRANCH  18  19
ENDBRANCH  16  18
ENDBRANCH   9  12
BRANCH   1  27
ATOM     26  C   UNL     1       1.285   2.767  20.470  0.00  0.00    +0.000 C 
ATOM     27  C   UNL     1       2.657   3.365  20.724  0.00  0.00    +0.000 C 
ATOM     28  F   UNL     1       3.552   2.338  20.807  0.00  0.00    +0.000 F 
ENDBRANCH   1  27
TORSDOF 5
ENDMDL
MODEL 8
REMARK VINA RESULT:      -8.4      3.891      8.738
REMARK  Name = 
REMARK  7 active torsions:
REMARK  status: ('A' for Active; 'I' for Inactive)
REMARK    1  A    between atoms: C_1  and  C_2
REMARK    2  A    between atoms: C_2  and  C_4
REMARK    3  A    between atoms: N_12  and  C_13
REMARK    4  A    between atoms: C_17  and  C_18
REMARK    5  A    between atoms: C_18  and  C_19
REMARK    6  A    between atoms: C_19  and  C_20
REMARK    7  A    between atoms: N_24  and  C_25
REMARK                            x       y       z     vdW  Elec       q    Type
REMARK                         _______ _______ _______ _____ _____    ______ ____
ROOT
ATOM      1  C   UNL     1       0.532  10.652  19.846  0.00  0.00    +0.000 A 
ATOM      2  C   UNL     1       0.072  10.914  21.158  0.00  0.00    +0.000 A 
ATOM      3  C   UNL     1       0.187   9.960  22.179  0.00  0.00    +0.000 A 
ATOM      4  F   UNL     1      -0.262  10.250  23.405  0.00  0.00    +0.000 F 
ATOM      5  C   UNL     1       0.741   8.720  21.936  0.00  0.00    +0.000 A 
ATOM      6  C   UNL     1       1.191   8.490  20.651  0.00  0.00    +0.000 A 
ATOM      7  C   UNL     1       1.137   9.419  19.614  0.00  0.00    +0.000 A 
ATOM      8  C   UNL     1       1.797   8.826  18.392  0.00  0.00    +0.000 C 
ATOM      9  N   UNL     1       2.098   7.458  18.816  0.00  0.00    +0.000 N 
ATOM     10  C   UNL     1       1.773   7.259  20.156  0.00  0.00    +0.000 C 
ATOM     11  O   UNL     1       1.933   6.297  20.892  0.00  0.00    +0.000 OA
ENDROOT
BRANCH   9  12
ATOM     12  C   UNL     1       2.780   6.481  18.045  0.00  0.00    +0.000 A 
ATOM     13  C   UNL     1       2.262   5.176  17.997  0.00  0.00    +0.000 A 
ATOM     14  C   UNL     1       2.971   4.129  17.418  0.00  0.00    +0.000 A 
ATOM     15  C   UNL     1       4.231   4.368  16.892  0.00  0.00    +0.000 A 
ATOM     16  C   UNL     1       4.772   5.662  16.906  0.00  0.00    +0.000 A 
ATOM     17  C   UNL     1       4.010   6.733  17.424  0.00  0.00    +0.000 A 
BRANCH  16  18
ATOM     18  C   UNL     1       6.216   5.847  16.493  0.00  0.00    +0.000 C 
BRANCH  18  19
ATOM     19  C   UNL     1       6.831   4.621  15.820  0.00  0.00    +0.000 C 
BRANCH  19  20
ATOM     20  C   UNL     1       7.231   4.895  14.406  0.00  0.00    +0.000 A 
ATOM     21  N   UNL     1       8.210   5.667  13.976  0.00  0.00    +0.000 NA
ATOM     22  N   UNL     1       8.234   5.611  12.603  0.00  0.00    +0.000 NA
ATOM     23  C   UNL     1       7.271   4.805  12.220  0.00  0.00    +0.000 A 
ATOM     24  N   UNL     1       6.610   4.343  13.314  0.00  0.00    +0.000 N 
ATOM     25  C   UNL     1       5.477   3.460  13.316  0.00  0.00    +0.000 C 
ENDBRANCH  19  20
ENDBRANCH  18  19
ENDBRANCH  16  18
ENDBRANCH   9  12
BRANCH   1  27
ATOM     26  C   UNL     1      -0.692  12.743  19.180  0.00  0.00    +0.000 C 
ATOM     27  C   UNL     1       0.314  11.683  18.768  0.00  0.00    +0.000 C 
ATOM     28  F   UNL     1       1.471  12.318  18.422  0.00  0.00    +0.000 F 
ENDBRANCH   1  27
TORSDOF 5
ENDMDL
MODEL 9
REMARK VINA RESULT:      -8.3      4.071      8.707
REMARK  Name = 
REMARK  7 active torsions:
REMARK  status: ('A' for Active; 'I' for Inactive)
REMARK    1  A    between atoms: C_1  and  C_2
REMARK    2  A    between atoms: C_2  and  C_4
REMARK    3  A    between atoms: N_12  and  C_13
REMARK    4  A    between atoms: C_17  and  C_18
REMARK    5  A    between atoms: C_18  and  C_19
REMARK    6  A    between atoms: C_19  and  C_20
REMARK    7  A    between atoms: N_24  and  C_25
REMARK                            x       y       z     vdW  Elec       q    Type
REMARK                         _______ _______ _______ _____ _____    ______ ____
ROOT
ATOM      1  C   UNL     1       0.730  10.137  21.116  0.00  0.00    +0.000 A 
ATOM      2  C   UNL     1       0.391  11.380  20.530  0.00  0.00    +0.000 A 
ATOM      3  C   UNL     1       0.612  11.632  19.168  0.00  0.00    +0.000 A 
ATOM      4  F   UNL     1       0.276  12.822  18.657  0.00  0.00    +0.000 F 
ATOM      5  C   UNL     1       1.184  10.680  18.351  0.00  0.00    +0.000 A 
ATOM      6  C   UNL     1       1.499   9.473  18.942  0.00  0.00    +0.000 A 
ATOM      7  C   UNL     1       1.262   9.159  20.279  0.00  0.00    +0.000 A 
ATOM      8  C   UNL     1       1.666   7.724  20.523  0.00  0.00    +0.000 C 
ATOM      9  N   UNL     1       2.257   7.330  19.244  0.00  0.00    +0.000 N 
ATOM     10  C   UNL     1       2.135   8.343  18.295  0.00  0.00    +0.000 C 
ATOM     11  O   UNL     1       2.431   8.380  17.110  0.00  0.00    +0.000 OA
ENDROOT
BRANCH   9  12
ATOM     12  C   UNL     1       2.752   6.040  18.921  0.00  0.00    +0.000 A 
ATOM     13  C   UNL     1       2.522   4.984  19.818  0.00  0.00    +0.000 A 
ATOM     14  C   UNL     1       3.131   3.744  19.659  0.00  0.00    +0.000 A 
ATOM     15  C   UNL     1       4.006   3.544  18.601  0.00  0.00    +0.000 A 
ATOM     16  C   UNL     1       4.244   4.570  17.676  0.00  0.00    +0.000 A 
ATOM     17  C   UNL     1       3.559   5.800  17.802  0.00  0.00    +0.000 A 
BRANCH  16  18
ATOM     18  C   UNL     1       5.339   4.378  16.648  0.00  0.00    +0.000 C 
BRANCH  18  19
ATOM     19  C   UNL     1       6.751   4.420  17.230  0.00  0.00    +0.000 C 
BRANCH  19  20
ATOM     20  C   UNL     1       7.253   5.819  17.389  0.00  0.00    +0.000 A 
ATOM     21  N   UNL     1       7.282   6.777  16.484  0.00  0.00    +0.000 NA
ATOM     22  N   UNL     1       7.805   7.908  17.067  0.00  0.00    +0.000 NA
ATOM     23  C   UNL     1       8.084   7.618  18.317  0.00  0.00    +0.000 A 
ATOM     24  N   UNL     1       7.766   6.320  18.560  0.00  0.00    +0.000 N 
ATOM     25  C   UNL     1       7.946   5.615  19.799  0.00  0.00    +0.000 C 
ENDBRANCH  19  20
ENDBRANCH  18  19
ENDBRANCH  16  18
ENDBRANCH   9  12
BRANCH   1  27
ATOM     26  C   UNL     1      -0.749   9.220  22.929  0.00  0.00    +0.000 C 
ATOM     27  C   UNL     1       0.543   9.946  22.599  0.00  0.00    +0.000 C 
ATOM     28  F   UNL     1       1.571   9.246  23.161  0.00  0.00    +0.000 F 
ENDBRANCH   1  27
TORSDOF 5
ENDMDL
