MODEL 1
REMARK VINA RESULT:      -7.8      0.000      0.000
REMARK  Name = 
REMARK  5 active torsions:
REMARK  status: ('A' for Active; 'I' for Inactive)
REMARK    1  A    between atoms: C_1  and  C_2
REMARK    2  A    between atoms: C_4  and  N_5
REMARK    3  A    between atoms: C_8  and  N_9
REMARK    4  A    between atoms: C_10  and  C_12
REMARK    5  A    between atoms: C_25  and  C_26
REMARK                            x       y       z     vdW  Elec       q    Type
REMARK                         _______ _______ _______ _____ _____    ______ ____
ROOT
ATOM      1  N   UNL     1      -1.216  11.796  20.846  0.00  0.00    +0.000 N 
ATOM      2  C   UNL     1      -0.146  11.260  21.681  0.00  0.00    +0.000 C 
ATOM      3  C   UNL     1       0.895  10.805  20.695  0.00  0.00    +0.000 C 
ATOM      4  C   UNL     1       0.560   9.793  19.623  0.00  0.00    +0.000 C 
ATOM      5  C   UNL     1       0.490  11.279  19.343  0.00  0.00    +0.000 C 
ATOM      6  C   UNL     1      -0.806  12.030  19.464  0.00  0.00    +0.000 C 
ENDROOT
BRANCH   1  10
ATOM      7  C   UNL     1      -5.706  13.651  20.043  0.00  0.00    +0.000 C 
ATOM      8  C   UNL     1      -4.621  13.114  20.925  0.00  0.00    +0.000 A 
ATOM      9  C   UNL     1      -3.416  12.678  20.399  0.00  0.00    +0.000 A 
ATOM     10  C   UNL     1      -2.454  12.206  21.276  0.00  0.00    +0.000 A 
ATOM     11  N   UNL     1      -2.709  12.172  22.598  0.00  0.00    +0.000 NA
ATOM     12  C   UNL     1      -3.907  12.610  23.032  0.00  0.00    +0.000 A 
ATOM     13  C   UNL     1      -4.182  12.578  24.503  0.00  0.00    +0.000 C 
ATOM     14  N   UNL     1      -4.882  13.085  22.243  0.00  0.00    +0.000 NA
ENDBRANCH   1  10
BRANCH   4  15
ATOM     15  N   UNL     1       1.562   9.001  18.975  0.00  0.00    +0.000 N 
ATOM     16  C   UNL     1       2.007   7.780  19.453  0.00  0.00    +0.000 C 
ATOM     17  O   UNL     1       1.680   7.334  20.549  0.00  0.00    +0.000 OA
ATOM     18  H   UNL     1       1.818   9.226  18.017  0.00  0.00    +0.000 HD
BRANCH  16  19
ATOM     19  C   UNL     1       2.890   7.077  18.534  0.00  0.00    +0.000 A 
ATOM     20  C   UNL     1       3.724   7.540  17.530  0.00  0.00    +0.000 A 
ATOM     21  C   UNL     1       4.330   6.403  16.929  0.00  0.00    +0.000 A 
ATOM     22  C   UNL     1       5.232   6.176  15.872  0.00  0.00    +0.000 A 
ATOM     23  C   UNL     1       5.575   4.854  15.569  0.00  0.00    +0.000 A 
ATOM     24  F   UNL     1       6.418   4.618  14.554  0.00  0.00    +0.000 F 
ATOM     25  C   UNL     1       5.063   3.775  16.285  0.00  0.00    +0.000 A 
ATOM     26  C   UNL     1       4.176   3.981  17.348  0.00  0.00    +0.000 A 
ATOM     27  C   UNL     1       3.836   5.305  17.627  0.00  0.00    +0.000 A 
ATOM     28  O   UNL     1       2.975   5.708  18.601  0.00  0.00    +0.000 OA
ENDBRANCH  16  19
ENDBRANCH   4  15
TORSDOF 3
ENDMDL
MODEL 2
REMARK VINA RESULT:      -7.8      1.037      2.109
REMARK  Name = 
REMARK  5 active torsions:
REMARK  status: ('A' for Active; 'I' for Inactive)
REMARK    1  A    between atoms: C_1  and  C_2
REMARK    2  A    between atoms: C_4  and  N_5
REMARK    3  A    between atoms: C_8  and  N_9
REMARK    4  A    between atoms: C_10  and  C_12
REMARK    5  A    between atoms: C_25  and  C_26
REMARK                            x       y       z     vdW  Elec       q    Type
REMARK                         _______ _______ _______ _____ _____    ______ ____
ROOT
ATOM      1  N   UNL     1      -1.587  11.914  19.896  0.00  0.00    +0.000 N 
ATOM      2  C   UNL     1      -0.184  12.308  19.977  0.00  0.00    +0.000 C 
ATOM      3  C   UNL     1       0.515  11.366  19.036  0.00  0.00    +0.000 C 
ATOM      4  C   UNL     1       0.418   9.869  19.220  0.00  0.00    +0.000 C 
ATOM      5  C   UNL     1      -0.522  10.603  18.289  0.00  0.00    +0.000 C 
ATOM      6  C   UNL     1      -1.878  11.053  18.753  0.00  0.00    +0.000 C 
ENDROOT
BRANCH   1  10
ATOM      7  C   UNL     1      -3.490  13.199  24.251  0.00  0.00    +0.000 C 
ATOM      8  C   UNL     1      -3.564  12.998  22.769  0.00  0.00    +0.000 A 
ATOM      9  C   UNL     1      -2.465  12.562  22.047  0.00  0.00    +0.000 A 
ATOM     10  C   UNL     1      -2.610  12.386  20.681  0.00  0.00    +0.000 A 
ATOM     11  N   UNL     1      -3.793  12.647  20.092  0.00  0.00    +0.000 NA
ATOM     12  C   UNL     1      -4.813  13.071  20.863  0.00  0.00    +0.000 A 
ATOM     13  C   UNL     1      -6.128  13.352  20.204  0.00  0.00    +0.000 C 
ATOM     14  N   UNL     1      -4.747  13.258  22.189  0.00  0.00    +0.000 NA
ENDBRANCH   1  10
BRANCH   4  15
ATOM     15  N   UNL     1       1.385   8.963  18.675  0.00  0.00    +0.000 N 
ATOM     16  C   UNL     1       1.911   7.887  19.370  0.00  0.00    +0.000 C 
ATOM     17  O   UNL     1       1.698   7.698  20.564  0.00  0.00    +0.000 OA
ATOM     18  H   UNL     1       1.547   8.969  17.671  0.00  0.00    +0.000 HD
BRANCH  16  19
ATOM     19  C   UNL     1       2.731   7.006  18.553  0.00  0.00    +0.000 A 
ATOM     20  C   UNL     1       2.832   5.626  18.511  0.00  0.00    +0.000 A 
ATOM     21  C   UNL     1       3.820   5.305  17.540  0.00  0.00    +0.000 A 
ATOM     22  C   UNL     1       4.403   4.126  17.040  0.00  0.00    +0.000 A 
ATOM     23  C   UNL     1       5.398   4.244  16.064  0.00  0.00    +0.000 A 
ATOM     24  F   UNL     1       5.978   3.132  15.590  0.00  0.00    +0.000 F 
ATOM     25  C   UNL     1       5.810   5.480  15.573  0.00  0.00    +0.000 A 
ATOM     26  C   UNL     1       5.231   6.663  16.048  0.00  0.00    +0.000 A 
ATOM     27  C   UNL     1       4.250   6.526  17.030  0.00  0.00    +0.000 A 
ATOM     28  O   UNL     1       3.590   7.554  17.632  0.00  0.00    +0.000 OA
ENDBRANCH  16  19
ENDBRANCH   4  15
TORSDOF 3
ENDMDL
MODEL 3
REMARK VINA RESULT:      -7.8      1.165      2.145
REMARK  Name = 
REMARK  5 active torsions:
REMARK  status: ('A' for Active; 'I' for Inactive)
REMARK    1  A    between atoms: C_1  and  C_2
REMARK    2  A    between atoms: C_4  and  N_5
REMARK    3  A    between atoms: C_8  and  N_9
REMARK    4  A    between atoms: C_10  and  C_12
REMARK    5  A    between atoms: C_25  and  C_26
REMARK                            x       y       z     vdW  Elec       q    Type
REMARK                         _______ _______ _______ _____ _____    ______ ____
ROOT
ATOM      1  N   UNL     1      -0.755  11.435  21.996  0.00  0.00    +0.000 N 
ATOM      2  C   UNL     1      -0.253  10.244  22.675  0.00  0.00    +0.000 C 
ATOM      3  C   UNL     1       0.894   9.789  21.815  0.00  0.00    +0.000 C 
ATOM      4  C   UNL     1       0.689   9.466  20.353  0.00  0.00    +0.000 C 
ATOM      5  C   UNL     1       1.150  10.840  20.791  0.00  0.00    +0.000 C 
ATOM      6  C   UNL     1       0.169  11.959  20.994  0.00  0.00    +0.000 C 
ENDROOT
BRANCH   1  10
ATOM      7  C   UNL     1      -4.657  12.315  24.868  0.00  0.00    +0.000 C 
ATOM      8  C   UNL     1      -3.793  12.574  23.672  0.00  0.00    +0.000 A 
ATOM      9  C   UNL     1      -2.635  11.849  23.450  0.00  0.00    +0.000 A 
ATOM     10  C   UNL     1      -1.893  12.134  22.317  0.00  0.00    +0.000 A 
ATOM     11  N   UNL     1      -2.302  13.100  21.472  0.00  0.00    +0.000 NA
ATOM     12  C   UNL     1      -3.439  13.764  21.759  0.00  0.00    +0.000 A 
ATOM     13  C   UNL     1      -3.893  14.830  20.812  0.00  0.00    +0.000 C 
ATOM     14  N   UNL     1      -4.209  13.537  22.833  0.00  0.00    +0.000 NA
ENDBRANCH   1  10
BRANCH   4  15
ATOM     15  N   UNL     1       1.585   8.624  19.620  0.00  0.00    +0.000 N 
ATOM     16  C   UNL     1       1.850   7.305  19.953  0.00  0.00    +0.000 C 
ATOM     17  O   UNL     1       1.444   6.786  20.988  0.00  0.00    +0.000 OA
ATOM     18  H   UNL     1       1.887   8.920  18.695  0.00  0.00    +0.000 HD
BRANCH  16  19
ATOM     19  C   UNL     1       2.645   6.598  18.961  0.00  0.00    +0.000 A 
ATOM     20  C   UNL     1       2.774   5.248  18.682  0.00  0.00    +0.000 A 
ATOM     21  C   UNL     1       3.716   5.124  17.625  0.00  0.00    +0.000 A 
ATOM     22  C   UNL     1       4.298   4.063  16.906  0.00  0.00    +0.000 A 
ATOM     23  C   UNL     1       5.236   4.372  15.916  0.00  0.00    +0.000 A 
ATOM     24  F   UNL     1       5.815   3.374  15.234  0.00  0.00    +0.000 F 
ATOM     25  C   UNL     1       5.594   5.686  15.620  0.00  0.00    +0.000 A 
ATOM     26  C   UNL     1       5.015   6.755  16.314  0.00  0.00    +0.000 A 
ATOM     27  C   UNL     1       4.091   6.425  17.307  0.00  0.00    +0.000 A 
ATOM     28  O   UNL     1       3.441   7.318  18.103  0.00  0.00    +0.000 OA
ENDBRANCH  16  19
ENDBRANCH   4  15
TORSDOF 3
ENDMDL
MODEL 4
REMARK VINA RESULT:      -7.7      1.187      1.611
REMARK  Name = 
REMARK  5 active torsions:
REMARK  status: ('A' for Active; 'I' for Inactive)
REMARK    1  A    between atoms: C_1  and  C_2
REMARK    2  A    between atoms: C_4  and  N_5
REMARK    3  A    between atoms: C_8  and  N_9
REMARK    4  A    between atoms: C_10  and  C_12
REMARK    5  A    between atoms: C_25  and  C_26
REMARK                            x       y       z     vdW  Elec       q    Type
REMARK                         _______ _______ _______ _____ _____    ______ ____
ROOT
ATOM      1  N   UNL     1      -1.163  12.038  20.045  0.00  0.00    +0.000 N 
ATOM      2  C   UNL     1       0.224  12.456  19.871  0.00  0.00    +0.000 C 
ATOM      3  C   UNL     1       0.809  11.413  18.958  0.00  0.00    +0.000 C 
ATOM      4  C   UNL     1       0.785   9.949  19.333  0.00  0.00    +0.000 C 
ATOM      5  C   UNL     1      -0.302  10.551  18.468  0.00  0.00    +0.000 C 
ATOM      6  C   UNL     1      -1.590  11.038  19.069  0.00  0.00    +0.000 C 
ENDROOT
BRANCH   1  10
ATOM      7  C   UNL     1      -5.760  13.248  21.328  0.00  0.00    +0.000 C 
ATOM      8  C   UNL     1      -4.280  13.202  21.551  0.00  0.00    +0.000 A 
ATOM      9  C   UNL     1      -3.435  12.582  20.645  0.00  0.00    +0.000 A 
ATOM     10  C   UNL     1      -2.076  12.589  20.909  0.00  0.00    +0.000 A 
ATOM     11  N   UNL     1      -1.613  13.181  22.027  0.00  0.00    +0.000 NA
ATOM     12  C   UNL     1      -2.499  13.760  22.861  0.00  0.00    +0.000 A 
ATOM     13  C   UNL     1      -1.977  14.423  24.097  0.00  0.00    +0.000 C 
ATOM     14  N   UNL     1      -3.825  13.796  22.666  0.00  0.00    +0.000 NA
ENDBRANCH   1  10
BRANCH   4  15
ATOM     15  N   UNL     1       1.690   8.996  18.765  0.00  0.00    +0.000 N 
ATOM     16  C   UNL     1       2.041   7.805  19.380  0.00  0.00    +0.000 C 
ATOM     17  O   UNL     1       1.714   7.528  20.530  0.00  0.00    +0.000 OA
ATOM     18  H   UNL     1       1.931   9.078  17.781  0.00  0.00    +0.000 HD
BRANCH  16  19
ATOM     19  C   UNL     1       2.825   6.918  18.534  0.00  0.00    +0.000 A 
ATOM     20  C   UNL     1       2.891   5.537  18.468  0.00  0.00    +0.000 A 
ATOM     21  C   UNL     1       3.854   5.209  17.475  0.00  0.00    +0.000 A 
ATOM     22  C   UNL     1       4.399   4.023  16.945  0.00  0.00    +0.000 A 
ATOM     23  C   UNL     1       5.380   4.133  15.954  0.00  0.00    +0.000 A 
ATOM     24  F   UNL     1       5.924   3.016  15.452  0.00  0.00    +0.000 F 
ATOM     25  C   UNL     1       5.814   5.368  15.477  0.00  0.00    +0.000 A 
ATOM     26  C   UNL     1       5.273   6.556  15.981  0.00  0.00    +0.000 A 
ATOM     27  C   UNL     1       4.306   6.427  16.978  0.00  0.00    +0.000 A 
ATOM     28  O   UNL     1       3.682   7.460  17.607  0.00  0.00    +0.000 OA
ENDBRANCH  16  19
ENDBRANCH   4  15
TORSDOF 3
ENDMDL
MODEL 5
REMARK VINA RESULT:      -7.7      4.497     11.089
REMARK  Name = 
REMARK  5 active torsions:
REMARK  status: ('A' for Active; 'I' for Inactive)
REMARK    1  A    between atoms: C_1  and  C_2
REMARK    2  A    between atoms: C_4  and  N_5
REMARK    3  A    between atoms: C_8  and  N_9
REMARK    4  A    between atoms: C_10  and  C_12
REMARK    5  A    between atoms: C_25  and  C_26
REMARK                            x       y       z     vdW  Elec       q    Type
REMARK                         _______ _______ _______ _____ _____    ______ ____
ROOT
ATOM      1  N   UNL     1       5.581   5.288  15.881  0.00  0.00    +0.000 N 
ATOM      2  C   UNL     1       6.276   6.076  16.894  0.00  0.00    +0.000 C 
ATOM      3  C   UNL     1       5.216   6.367  17.921  0.00  0.00    +0.000 C 
ATOM      4  C   UNL     1       3.940   7.081  17.540  0.00  0.00    +0.000 C 
ATOM      5  C   UNL     1       4.007   5.569  17.578  0.00  0.00    +0.000 C 
ATOM      6  C   UNL     1       4.292   4.775  16.335  0.00  0.00    +0.000 C 
ENDROOT
BRANCH   1  10
ATOM      7  C   UNL     1       5.531   2.463  11.849  0.00  0.00    +0.000 C 
ATOM      8  C   UNL     1       6.102   3.542  12.716  0.00  0.00    +0.000 A 
ATOM      9  C   UNL     1       5.497   3.902  13.909  0.00  0.00    +0.000 A 
ATOM     10  C   UNL     1       6.088   4.899  14.666  0.00  0.00    +0.000 A 
ATOM     11  N   UNL     1       7.214   5.496  14.229  0.00  0.00    +0.000 NA
ATOM     12  C   UNL     1       7.741   5.091  13.056  0.00  0.00    +0.000 A 
ATOM     13  C   UNL     1       8.997   5.751  12.580  0.00  0.00    +0.000 C 
ATOM     14  N   UNL     1       7.227   4.130  12.275  0.00  0.00    +0.000 NA
ENDBRANCH   1  10
BRANCH   4  15
ATOM     15  N   UNL     1       3.132   7.773  18.499  0.00  0.00    +0.000 N 
ATOM     16  C   UNL     1       2.258   8.798  18.173  0.00  0.00    +0.000 C 
ATOM     17  O   UNL     1       2.202   9.295  17.052  0.00  0.00    +0.000 OA
ATOM     18  H   UNL     1       3.024   7.373  19.427  0.00  0.00    +0.000 HD
BRANCH  16  19
ATOM     19  C   UNL     1       1.413   9.221  19.279  0.00  0.00    +0.000 A 
ATOM     20  C   UNL     1       0.387  10.149  19.346  0.00  0.00    +0.000 A 
ATOM     21  C   UNL     1      -0.067  10.178  20.693  0.00  0.00    +0.000 A 
ATOM     22  C   UNL     1      -1.037  10.894  21.419  0.00  0.00    +0.000 A 
ATOM     23  C   UNL     1      -1.163  10.634  22.788  0.00  0.00    +0.000 A 
ATOM     24  F   UNL     1      -2.069  11.319  23.499  0.00  0.00    +0.000 F 
ATOM     25  C   UNL     1      -0.373   9.688  23.436  0.00  0.00    +0.000 A 
ATOM     26  C   UNL     1       0.587   8.956  22.728  0.00  0.00    +0.000 A 
ATOM     27  C   UNL     1       0.707   9.239  21.367  0.00  0.00    +0.000 A 
ATOM     28  O   UNL     1       1.594   8.653  20.517  0.00  0.00    +0.000 OA
ENDBRANCH  16  19
ENDBRANCH   4  15
TORSDOF 3
ENDMDL
MODEL 6
REMARK VINA RESULT:      -7.6      0.922      1.766
REMARK  Name = 
REMARK  5 active torsions:
REMARK  status: ('A' for Active; 'I' for Inactive)
REMARK    1  A    between atoms: C_1  and  C_2
REMARK    2  A    between atoms: C_4  and  N_5
REMARK    3  A    between atoms: C_8  and  N_9
REMARK    4  A    between atoms: C_10  and  C_12
REMARK    5  A    between atoms: C_25  and  C_26
REMARK                            x       y       z     vdW  Elec       q    Type
REMARK                         _______ _______ _______ _____ _____    ______ ____
ROOT
ATOM      1  N   UNL     1      -0.987  11.586  22.004  0.00  0.00    +0.000 N 
ATOM      2  C   UNL     1      -0.462  10.375  22.625  0.00  0.00    +0.000 C 
ATOM      3  C   UNL     1       0.741  10.028  21.792  0.00  0.00    +0.000 C 
ATOM      4  C   UNL     1       0.615   9.798  20.303  0.00  0.00    +0.000 C 
ATOM      5  C   UNL     1       0.994  11.156  20.853  0.00  0.00    +0.000 C 
ATOM      6  C   UNL     1      -0.045  12.216  21.083  0.00  0.00    +0.000 C 
ENDROOT
BRANCH   1  10
ATOM      7  C   UNL     1      -4.823  12.406  24.981  0.00  0.00    +0.000 C 
ATOM      8  C   UNL     1      -4.040  12.619  23.722  0.00  0.00    +0.000 A 
ATOM      9  C   UNL     1      -2.831  11.978  23.509  0.00  0.00    +0.000 A 
ATOM     10  C   UNL     1      -2.169  12.213  22.316  0.00  0.00    +0.000 A 
ATOM     11  N   UNL     1      -2.700  13.053  21.407  0.00  0.00    +0.000 NA
ATOM     12  C   UNL     1      -3.880  13.640  21.689  0.00  0.00    +0.000 A 
ATOM     13  C   UNL     1      -4.470  14.565  20.671  0.00  0.00    +0.000 C 
ATOM     14  N   UNL     1      -4.578  13.456  22.819  0.00  0.00    +0.000 NA
ENDBRANCH   1  10
BRANCH   4  15
ATOM     15  N   UNL     1       1.581   9.046  19.558  0.00  0.00    +0.000 N 
ATOM     16  C   UNL     1       1.875   7.714  19.801  0.00  0.00    +0.000 C 
ATOM     17  O   UNL     1       1.433   7.101  20.768  0.00  0.00    +0.000 OA
ATOM     18  H   UNL     1       1.922   9.425  18.679  0.00  0.00    +0.000 HD
BRANCH  16  19
ATOM     19  C   UNL     1       2.748   7.115  18.804  0.00  0.00    +0.000 A 
ATOM     20  C   UNL     1       3.537   7.682  17.817  0.00  0.00    +0.000 A 
ATOM     21  C   UNL     1       4.156   6.617  17.109  0.00  0.00    +0.000 A 
ATOM     22  C   UNL     1       5.031   6.503  16.012  0.00  0.00    +0.000 A 
ATOM     23  C   UNL     1       5.402   5.221  15.593  0.00  0.00    +0.000 A 
ATOM     24  F   UNL     1       6.220   5.093  14.539  0.00  0.00    +0.000 F 
ATOM     25  C   UNL     1       4.944   4.072  16.234  0.00  0.00    +0.000 A 
ATOM     26  C   UNL     1       4.085   4.166  17.335  0.00  0.00    +0.000 A 
ATOM     27  C   UNL     1       3.716   5.452  17.730  0.00  0.00    +0.000 A 
ATOM     28  O   UNL     1       2.874   5.748  18.758  0.00  0.00    +0.000 OA
ENDBRANCH  16  19
ENDBRANCH   4  15
TORSDOF 3
ENDMDL
MODEL 7
REMARK VINA RESULT:      -7.6      2.120      2.831
REMARK  Name = 
REMARK  5 active torsions:
REMARK  status: ('A' for Active; 'I' for Inactive)
REMARK    1  A    between atoms: C_1  and  C_2
REMARK    2  A    between atoms: C_4  and  N_5
REMARK    3  A    between atoms: C_8  and  N_9
REMARK    4  A    between atoms: C_10  and  C_12
REMARK    5  A    between atoms: C_25  and  C_26
REMARK                            x       y       z     vdW  Elec       q    Type
REMARK                         _______ _______ _______ _____ _____    ______ ____
ROOT
ATOM      1  N   UNL     1      -0.771  11.766  21.721  0.00  0.00    +0.000 N 
ATOM      2  C   UNL     1      -1.100  11.570  20.313  0.00  0.00    +0.000 C 
ATOM      3  C   UNL     1      -0.590  10.189  20.005  0.00  0.00    +0.000 C 
ATOM      4  C   UNL     1       0.864   9.833  20.219  0.00  0.00    +0.000 C 
ATOM      5  C   UNL     1      -0.173   9.554  21.286  0.00  0.00    +0.000 C 
ATOM      6  C   UNL     1      -0.414  10.526  22.406  0.00  0.00    +0.000 C 
ENDROOT
BRANCH   1  10
ATOM      7  C   UNL     1      -3.090  14.617  24.998  0.00  0.00    +0.000 C 
ATOM      8  C   UNL     1      -2.012  14.339  23.996  0.00  0.00    +0.000 A 
ATOM      9  C   UNL     1      -1.922  13.114  23.356  0.00  0.00    +0.000 A 
ATOM     10  C   UNL     1      -0.907  12.932  22.433  0.00  0.00    +0.000 A 
ATOM     11  N   UNL     1      -0.037  13.930  22.187  0.00  0.00    +0.000 NA
ATOM     12  C   UNL     1      -0.188  15.092  22.852  0.00  0.00    +0.000 A 
ATOM     13  C   UNL     1       0.777  16.200  22.568  0.00  0.00    +0.000 C 
ATOM     14  N   UNL     1      -1.149  15.340  23.754  0.00  0.00    +0.000 NA
ENDBRANCH   1  10
BRANCH   4  15
ATOM     15  N   UNL     1       1.493   8.737  19.546  0.00  0.00    +0.000 N 
ATOM     16  C   UNL     1       2.093   8.839  18.302  0.00  0.00    +0.000 C 
ATOM     17  O   UNL     1       2.017   9.848  17.606  0.00  0.00    +0.000 OA
ATOM     18  H   UNL     1       1.702   7.894  20.074  0.00  0.00    +0.000 HD
BRANCH  16  19
ATOM     19  C   UNL     1       2.824   7.646  17.903  0.00  0.00    +0.000 A 
ATOM     20  C   UNL     1       3.976   7.484  17.153  0.00  0.00    +0.000 A 
ATOM     21  C   UNL     1       4.220   6.087  17.052  0.00  0.00    +0.000 A 
ATOM     22  C   UNL     1       5.182   5.270  16.428  0.00  0.00    +0.000 A 
ATOM     23  C   UNL     1       5.052   3.883  16.555  0.00  0.00    +0.000 A 
ATOM     24  F   UNL     1       5.947   3.088  15.953  0.00  0.00    +0.000 F 
ATOM     25  C   UNL     1       4.017   3.300  17.284  0.00  0.00    +0.000 A 
ATOM     26  C   UNL     1       3.060   4.097  17.923  0.00  0.00    +0.000 A 
ATOM     27  C   UNL     1       3.199   5.478  17.774  0.00  0.00    +0.000 A 
ATOM     28  O   UNL     1       2.360   6.414  18.296  0.00  0.00    +0.000 OA
ENDBRANCH  16  19
ENDBRANCH   4  15
TORSDOF 3
ENDMDL
MODEL 8
REMARK VINA RESULT:      -7.6      3.485      4.713
REMARK  Name = 
REMARK  5 active torsions:
REMARK  status: ('A' for Active; 'I' for Inactive)
REMARK    1  A    between atoms: C_1  and  C_2
REMARK    2  A    between atoms: C_4  and  N_5
REMARK    3  A    between atoms: C_8  and  N_9
REMARK    4  A    between atoms: C_10  and  C_12
REMARK    5  A    between atoms: C_25  and  C_26
REMARK                            x       y       z     vdW  Elec       q    Type
REMARK                         _______ _______ _______ _____ _____    ______ ____
ROOT
ATOM      1  N   UNL     1       0.339  13.255  19.300  0.00  0.00    +0.000 N 
ATOM      2  C   UNL     1      -0.584  12.329  18.654  0.00  0.00    +0.000 C 
ATOM      3  C   UNL     1      -0.209  10.985  19.217  0.00  0.00    +0.000 C 
ATOM      4  C   UNL     1       1.197  10.449  19.075  0.00  0.00    +0.000 C 
ATOM      5  C   UNL     1       0.770  11.202  20.317  0.00  0.00    +0.000 C 
ATOM      6  C   UNL     1       1.022  12.677  20.454  0.00  0.00    +0.000 C 
ENDROOT
BRANCH   1  10
ATOM      7  C   UNL     1      -1.456  17.786  18.594  0.00  0.00    +0.000 C 
ATOM      8  C   UNL     1      -0.345  16.782  18.644  0.00  0.00    +0.000 A 
ATOM      9  C   UNL     1      -0.582  15.463  18.995  0.00  0.00    +0.000 A 
ATOM     10  C   UNL     1       0.491  14.588  19.008  0.00  0.00    +0.000 A 
ATOM     11  N   UNL     1       1.723  15.032  18.694  0.00  0.00    +0.000 NA
ATOM     12  C   UNL     1       1.873  16.331  18.366  0.00  0.00    +0.000 A 
ATOM     13  C   UNL     1       3.243  16.816  18.009  0.00  0.00    +0.000 C 
ATOM     14  N   UNL     1       0.881  17.232  18.327  0.00  0.00    +0.000 NA
ENDBRANCH   1  10
BRANCH   4  15
ATOM     15  N   UNL     1       1.499   9.052  19.168  0.00  0.00    +0.000 N 
ATOM     16  C   UNL     1       2.211   8.352  18.208  0.00  0.00    +0.000 C 
ATOM     17  O   UNL     1       2.526   8.839  17.126  0.00  0.00    +0.000 OA
ATOM     18  H   UNL     1       1.377   8.585  20.063  0.00  0.00    +0.000 HD
BRANCH  16  19
ATOM     19  C   UNL     1       2.552   6.994  18.605  0.00  0.00    +0.000 A 
ATOM     20  C   UNL     1       3.309   6.019  17.978  0.00  0.00    +0.000 A 
ATOM     21  C   UNL     1       3.282   4.866  18.809  0.00  0.00    +0.000 A 
ATOM     22  C   UNL     1       3.810   3.563  18.750  0.00  0.00    +0.000 A 
ATOM     23  C   UNL     1       3.526   2.687  19.804  0.00  0.00    +0.000 A 
ATOM     24  F   UNL     1       4.004   1.436  19.755  0.00  0.00    +0.000 F 
ATOM     25  C   UNL     1       2.756   3.072  20.898  0.00  0.00    +0.000 A 
ATOM     26  C   UNL     1       2.234   4.368  20.981  0.00  0.00    +0.000 A 
ATOM     27  C   UNL     1       2.518   5.223  19.916  0.00  0.00    +0.000 A 
ATOM     28  O   UNL     1       2.083   6.508  19.801  0.00  0.00    +0.000 OA
ENDBRANCH  16  19
ENDBRANCH   4  15
TORSDOF 3
ENDMDL
MODEL 9
REMARK VINA RESULT:      -7.6      1.458      1.632
REMARK  Name = 
REMARK  5 active torsions:
REMARK  status: ('A' for Active; 'I' for Inactive)
REMARK    1  A    between atoms: C_1  and  C_2
REMARK    2  A    between atoms: C_4  and  N_5
REMARK    3  A    between atoms: C_8  and  N_9
REMARK    4  A    between atoms: C_10  and  C_12
REMARK    5  A    between atoms: C_25  and  C_26
REMARK                            x       y       z     vdW  Elec       q    Type
REMARK                         _______ _______ _______ _____ _____    ______ ____
ROOT
ATOM      1  N   UNL     1      -1.098  11.454  22.281  0.00  0.00    +0.000 N 
ATOM      2  C   UNL     1      -0.780  10.220  22.992  0.00  0.00    +0.000 C 
ATOM      3  C   UNL     1       0.430   9.686  22.276  0.00  0.00    +0.000 C 
ATOM      4  C   UNL     1       0.389   9.397  20.793  0.00  0.00    +0.000 C 
ATOM      5  C   UNL     1       0.895  10.724  21.315  0.00  0.00    +0.000 C 
ATOM      6  C   UNL     1      -0.016  11.915  21.416  0.00  0.00    +0.000 C 
ENDROOT
BRANCH   1  10
ATOM      7  C   UNL     1      -3.942  15.315  21.161  0.00  0.00    +0.000 C 
ATOM      8  C   UNL     1      -3.595  14.100  21.966  0.00  0.00    +0.000 A 
ATOM      9  C   UNL     1      -2.475  13.340  21.675  0.00  0.00    +0.000 A 
ATOM     10  C   UNL     1      -2.210  12.237  22.470  0.00  0.00    +0.000 A 
ATOM     11  N   UNL     1      -3.039  11.926  23.485  0.00  0.00    +0.000 NA
ATOM     12  C   UNL     1      -4.111  12.714  23.702  0.00  0.00    +0.000 A 
ATOM     13  C   UNL     1      -5.024  12.369  24.837  0.00  0.00    +0.000 C 
ATOM     14  N   UNL     1      -4.426  13.798  22.978  0.00  0.00    +0.000 NA
ENDBRANCH   1  10
BRANCH   4  15
ATOM     15  N   UNL     1       1.305   8.495  20.161  0.00  0.00    +0.000 N 
ATOM     16  C   UNL     1       1.620   8.535  18.813  0.00  0.00    +0.000 C 
ATOM     17  O   UNL     1       1.037   9.261  18.014  0.00  0.00    +0.000 OA
ATOM     18  H   UNL     1       1.916   7.930  20.746  0.00  0.00    +0.000 HD
BRANCH  16  19
ATOM     19  C   UNL     1       2.708   7.644  18.438  0.00  0.00    +0.000 A 
ATOM     20  C   UNL     1       3.562   7.649  17.349  0.00  0.00    +0.000 A 
ATOM     21  C   UNL     1       4.415   6.519  17.478  0.00  0.00    +0.000 A 
ATOM     22  C   UNL     1       5.458   5.946  16.725  0.00  0.00    +0.000 A 
ATOM     23  C   UNL     1       6.050   4.772  17.204  0.00  0.00    +0.000 A 
ATOM     24  F   UNL     1       7.032   4.202  16.492  0.00  0.00    +0.000 F 
ATOM     25  C   UNL     1       5.648   4.174  18.396  0.00  0.00    +0.000 A 
ATOM     26  C   UNL     1       4.623   4.737  19.165  0.00  0.00    +0.000 A 
ATOM     27  C   UNL     1       4.036   5.900  18.664  0.00  0.00    +0.000 A 
ATOM     28  O   UNL     1       3.013   6.580  19.251  0.00  0.00    +0.000 OA
ENDBRANCH  16  19
ENDBRANCH   4  15
TORSDOF 3
ENDMDL
