MODEL 1
REMARK VINA RESULT:      -7.9      0.000      0.000
REMARK  Name = 
REMARK  6 active torsions:
REMARK  status: ('A' for Active; 'I' for Inactive)
REMARK    1  A    between atoms: C_2  and  C_16
REMARK    2  A    between atoms: N_3  and  C_4
REMARK    3  A    between atoms: C_6  and  C_7
REMARK    4  A    between atoms: C_7  and  N_8
REMARK    5  A    between atoms: C_14  and  O_15
REMARK    6  A    between atoms: C_16  and  C_17
REMARK                            x       y       z     vdW  Elec       q    Type
REMARK                         _______ _______ _______ _____ _____    ______ ____
ROOT
ATOM      1  O   UNL     1       1.292   8.245  21.103  0.00  0.00    +0.000 OA
ATOM      2  C   UNL     1       1.620   8.183  19.926  0.00  0.00    +0.000 C 
ATOM      3  N   UNL     1       2.254   7.106  19.352  0.00  0.00    +0.000 N 
ATOM      4  H   UNL     1       2.503   7.186  18.369  0.00  0.00    +0.000 HD
ENDROOT
BRANCH   3   5
ATOM      5  C   UNL     1       2.633   5.939  20.134  0.00  0.00    +0.000 C 
ATOM      6  C   UNL     1       3.867   5.252  19.529  0.00  0.00    +0.000 C 
ATOM      7  C   UNL     1       3.345   4.075  18.678  0.00  0.00    +0.000 C 
ATOM      8  C   UNL     1       1.815   4.128  18.787  0.00  0.00    +0.000 C 
ATOM      9  C   UNL     1       1.557   4.833  20.114  0.00  0.00    +0.000 C 
BRANCH   9  10
ATOM     10  O   UNL     1       1.708   3.914  21.196  0.00  0.00    +0.000 OA
ATOM     11  H   UNL     1       1.269   4.264  21.987  0.00  0.00    +0.000 HD
ENDBRANCH   9  10
BRANCH   7  12
ATOM     12  C   UNL     1       3.819   4.097  17.222  0.00  0.00    +0.000 C 
BRANCH  12  13
ATOM     13  N   UNL     1       4.965   4.959  17.006  0.00  0.00    +0.000 N 
ATOM     14  C   UNL     1       6.279   4.634  17.198  0.00  0.00    +0.000 A 
ATOM     15  C   UNL     1       6.973   5.788  16.918  0.00  0.00    +0.000 A 
ATOM     16  N   UNL     1       6.119   6.788  16.533  0.00  0.00    +0.000 NA
ATOM     17  C   UNL     1       4.918   6.257  16.583  0.00  0.00    +0.000 A 
ENDBRANCH  12  13
ENDBRANCH   7  12
ENDBRANCH   3   5
BRANCH   2  18
ATOM     18  C   UNL     1       1.350   9.327  18.998  0.00  0.00    +0.000 C 
ATOM     19  C   UNL     1       1.192   9.014  17.508  0.00  0.00    +0.000 C 
ATOM     20  C   UNL     1       2.442   9.675  17.980  0.00  0.00    +0.000 C 
BRANCH  18  21
ATOM     21  C   UNL     1       0.463  10.443  19.557  0.00  0.00    +0.000 A 
ATOM     22  N   UNL     1       0.963  11.106  20.643  0.00  0.00    +0.000 NA
ATOM     23  C   UNL     1       0.173  12.007  21.260  0.00  0.00    +0.000 A 
ATOM     24  C   UNL     1      -1.113  12.302  20.858  0.00  0.00    +0.000 A 
ATOM     25  C   UNL     1      -1.625  11.668  19.725  0.00  0.00    +0.000 A 
ATOM     26  C   UNL     1      -2.933  11.930  19.286  0.00  0.00    +0.000 A 
ATOM     27  C   UNL     1      -3.447  11.298  18.153  0.00  0.00    +0.000 A 
ATOM     28  C   UNL     1      -2.651  10.418  17.432  0.00  0.00    +0.000 A 
ATOM     29  C   UNL     1      -1.351  10.147  17.858  0.00  0.00    +0.000 A 
ATOM     30  C   UNL     1      -0.820  10.738  19.028  0.00  0.00    +0.000 A 
ENDBRANCH  18  21
ENDBRANCH   2  18
TORSDOF 6
ENDMDL
MODEL 2
REMARK VINA RESULT:      -7.7      2.068      7.816
REMARK  Name = 
REMARK  6 active torsions:
REMARK  status: ('A' for Active; 'I' for Inactive)
REMARK    1  A    between atoms: C_2  and  C_16
REMARK    2  A    between atoms: N_3  and  C_4
REMARK    3  A    between atoms: C_6  and  C_7
REMARK    4  A    between atoms: C_7  and  N_8
REMARK    5  A    between atoms: C_14  and  O_15
REMARK    6  A    between atoms: C_16  and  C_17
REMARK                            x       y       z     vdW  Elec       q    Type
REMARK                         _______ _______ _______ _____ _____    ______ ____
ROOT
ATOM      1  O   UNL     1       1.675   6.781  20.940  0.00  0.00    +0.000 OA
ATOM      2  C   UNL     1       1.791   7.479  19.943  0.00  0.00    +0.000 C 
ATOM      3  N   UNL     1       1.207   8.716  19.789  0.00  0.00    +0.000 N 
ATOM      4  H   UNL     1       1.353   9.188  18.900  0.00  0.00    +0.000 HD
ENDROOT
BRANCH   3   5
ATOM      5  C   UNL     1       0.347   9.286  20.814  0.00  0.00    +0.000 C 
ATOM      6  C   UNL     1      -0.938   9.856  20.195  0.00  0.00    +0.000 C 
ATOM      7  C   UNL     1      -0.716  11.375  20.035  0.00  0.00    +0.000 C 
ATOM      8  C   UNL     1       0.709  11.643  20.539  0.00  0.00    +0.000 C 
ATOM      9  C   UNL     1       0.983  10.505  21.515  0.00  0.00    +0.000 C 
BRANCH   9  10
ATOM     10  O   UNL     1       0.371  10.781  22.775  0.00  0.00    +0.000 OA
ATOM     11  H   UNL     1       0.919  10.422  23.491  0.00  0.00    +0.000 HD
ENDBRANCH   9  10
BRANCH   7  12
ATOM     12  C   UNL     1      -0.929  11.891  18.609  0.00  0.00    +0.000 C 
BRANCH  12  13
ATOM     13  N   UNL     1      -2.008  11.218  17.911  0.00  0.00    +0.000 N 
ATOM     14  C   UNL     1      -1.882  10.217  16.988  0.00  0.00    +0.000 A 
ATOM     15  C   UNL     1      -3.167   9.953  16.577  0.00  0.00    +0.000 A 
ATOM     16  N   UNL     1      -4.065  10.742  17.247  0.00  0.00    +0.000 NA
ATOM     17  C   UNL     1      -3.339  11.485  18.053  0.00  0.00    +0.000 A 
ENDBRANCH  12  13
ENDBRANCH   7  12
ENDBRANCH   3   5
BRANCH   2  18
ATOM     18  C   UNL     1       2.600   7.012  18.773  0.00  0.00    +0.000 C 
ATOM     19  C   UNL     1       3.248   8.076  17.882  0.00  0.00    +0.000 C 
ATOM     20  C   UNL     1       2.060   7.331  17.375  0.00  0.00    +0.000 C 
BRANCH  18  21
ATOM     21  C   UNL     1       3.404   5.726  18.991  0.00  0.00    +0.000 A 
ATOM     22  N   UNL     1       4.745   5.897  19.202  0.00  0.00    +0.000 NA
ATOM     23  C   UNL     1       5.524   4.800  19.267  0.00  0.00    +0.000 A 
ATOM     24  C   UNL     1       5.049   3.512  19.137  0.00  0.00    +0.000 A 
ATOM     25  C   UNL     1       3.678   3.316  18.965  0.00  0.00    +0.000 A 
ATOM     26  C   UNL     1       3.152   2.023  18.817  0.00  0.00    +0.000 A 
ATOM     27  C   UNL     1       1.782   1.822  18.646  0.00  0.00    +0.000 A 
ATOM     28  C   UNL     1       0.920   2.911  18.648  0.00  0.00    +0.000 A 
ATOM     29  C   UNL     1       1.429   4.201  18.792  0.00  0.00    +0.000 A 
ATOM     30  C   UNL     1       2.818   4.436  18.921  0.00  0.00    +0.000 A 
ENDBRANCH  18  21
ENDBRANCH   2  18
TORSDOF 6
ENDMDL
MODEL 3
REMARK VINA RESULT:      -7.7      2.266      8.214
REMARK  Name = 
REMARK  6 active torsions:
REMARK  status: ('A' for Active; 'I' for Inactive)
REMARK    1  A    between atoms: C_2  and  C_16
REMARK    2  A    between atoms: N_3  and  C_4
REMARK    3  A    between atoms: C_6  and  C_7
REMARK    4  A    between atoms: C_7  and  N_8
REMARK    5  A    between atoms: C_14  and  O_15
REMARK    6  A    between atoms: C_16  and  C_17
REMARK                            x       y       z     vdW  Elec       q    Type
REMARK                         _______ _______ _______ _____ _____    ______ ____
ROOT
ATOM      1  O   UNL     1       1.636   7.075  20.866  0.00  0.00    +0.000 OA
ATOM      2  C   UNL     1       1.859   7.710  19.845  0.00  0.00    +0.000 C 
ATOM      3  N   UNL     1       1.457   9.009  19.635  0.00  0.00    +0.000 N 
ATOM      4  H   UNL     1       1.676   9.420  18.731  0.00  0.00    +0.000 HD
ENDROOT
BRANCH   3   5
ATOM      5  C   UNL     1       0.676   9.736  20.625  0.00  0.00    +0.000 C 
ATOM      6  C   UNL     1      -0.815   9.733  20.256  0.00  0.00    +0.000 C 
ATOM      7  C   UNL     1      -1.100  11.080  19.559  0.00  0.00    +0.000 C 
ATOM      8  C   UNL     1       0.245  11.819  19.513  0.00  0.00    +0.000 C 
ATOM      9  C   UNL     1       1.033  11.236  20.680  0.00  0.00    +0.000 C 
BRANCH   9  10
ATOM     10  O   UNL     1       0.619  11.844  21.904  0.00  0.00    +0.000 OA
ATOM     11  H   UNL     1       0.063  11.226  22.405  0.00  0.00    +0.000 HD
ENDBRANCH   9  10
BRANCH   7  12
ATOM     12  C   UNL     1      -1.729  10.944  18.169  0.00  0.00    +0.000 C 
BRANCH  12  13
ATOM     13  N   UNL     1      -3.117  11.363  18.124  0.00  0.00    +0.000 N 
ATOM     14  C   UNL     1      -3.806  12.010  19.112  0.00  0.00    +0.000 A 
ATOM     15  C   UNL     1      -5.086  12.135  18.626  0.00  0.00    +0.000 A 
ATOM     16  N   UNL     1      -5.180  11.612  17.363  0.00  0.00    +0.000 NA
ATOM     17  C   UNL     1      -3.976  11.166  17.082  0.00  0.00    +0.000 A 
ENDBRANCH  12  13
ENDBRANCH   7  12
ENDBRANCH   3   5
BRANCH   2  18
ATOM     18  C   UNL     1       2.604   7.087  18.707  0.00  0.00    +0.000 C 
ATOM     19  C   UNL     1       3.249   8.021  17.679  0.00  0.00    +0.000 C 
ATOM     20  C   UNL     1       2.018   7.268  17.302  0.00  0.00    +0.000 C 
BRANCH  18  21
ATOM     21  C   UNL     1       3.374   5.805  19.037  0.00  0.00    +0.000 A 
ATOM     22  N   UNL     1       4.717   5.961  19.248  0.00  0.00    +0.000 NA
ATOM     23  C   UNL     1       5.469   4.855  19.411  0.00  0.00    +0.000 A 
ATOM     24  C   UNL     1       4.964   3.572  19.382  0.00  0.00    +0.000 A 
ATOM     25  C   UNL     1       3.590   3.395  19.212  0.00  0.00    +0.000 A 
ATOM     26  C   UNL     1       3.033   2.106  19.166  0.00  0.00    +0.000 A 
ATOM     27  C   UNL     1       1.660   1.925  18.997  0.00  0.00    +0.000 A 
ATOM     28  C   UNL     1       0.825   3.031  18.901  0.00  0.00    +0.000 A 
ATOM     29  C   UNL     1       1.365   4.316  18.944  0.00  0.00    +0.000 A 
ATOM     30  C   UNL     1       2.757   4.527  19.068  0.00  0.00    +0.000 A 
ENDBRANCH  18  21
ENDBRANCH   2  18
TORSDOF 6
ENDMDL
MODEL 4
REMARK VINA RESULT:      -7.7      3.063      5.553
REMARK  Name = 
REMARK  6 active torsions:
REMARK  status: ('A' for Active; 'I' for Inactive)
REMARK    1  A    between atoms: C_2  and  C_16
REMARK    2  A    between atoms: N_3  and  C_4
REMARK    3  A    between atoms: C_6  and  C_7
REMARK    4  A    between atoms: C_7  and  N_8
REMARK    5  A    between atoms: C_14  and  O_15
REMARK    6  A    between atoms: C_16  and  C_17
REMARK                            x       y       z     vdW  Elec       q    Type
REMARK                         _______ _______ _______ _____ _____    ______ ____
ROOT
ATOM      1  O   UNL     1       4.723   3.325  19.802  0.00  0.00    +0.000 OA
ATOM      2  C   UNL     1       4.411   4.481  19.553  0.00  0.00    +0.000 C 
ATOM      3  N   UNL     1       5.288   5.444  19.110  0.00  0.00    +0.000 N 
ATOM      4  H   UNL     1       4.914   6.379  18.967  0.00  0.00    +0.000 HD
ENDROOT
BRANCH   3   5
ATOM      5  C   UNL     1       6.705   5.163  18.937  0.00  0.00    +0.000 C 
ATOM      6  C   UNL     1       7.549   6.416  19.218  0.00  0.00    +0.000 C 
ATOM      7  C   UNL     1       7.868   7.051  17.848  0.00  0.00    +0.000 C 
ATOM      8  C   UNL     1       7.172   6.164  16.806  0.00  0.00    +0.000 C 
ATOM      9  C   UNL     1       7.067   4.802  17.481  0.00  0.00    +0.000 C 
BRANCH   9  10
ATOM     10  O   UNL     1       8.314   4.112  17.392  0.00  0.00    +0.000 OA
ATOM     11  H   UNL     1       8.848   4.491  16.675  0.00  0.00    +0.000 HD
ENDBRANCH   9  10
BRANCH   7  12
ATOM     12  C   UNL     1       7.449   8.519  17.726  0.00  0.00    +0.000 C 
BRANCH  12  13
ATOM     13  N   UNL     1       8.446   9.443  18.233  0.00  0.00    +0.000 N 
ATOM     14  C   UNL     1       8.914   9.514  19.516  0.00  0.00    +0.000 A 
ATOM     15  C   UNL     1       9.790  10.574  19.513  0.00  0.00    +0.000 A 
ATOM     16  N   UNL     1       9.888  11.122  18.261  0.00  0.00    +0.000 NA
ATOM     17  C   UNL     1       9.077  10.412  17.508  0.00  0.00    +0.000 A 
ENDBRANCH  12  13
ENDBRANCH   7  12
ENDBRANCH   3   5
BRANCH   2  18
ATOM     18  C   UNL     1       2.999   4.946  19.732  0.00  0.00    +0.000 C 
ATOM     19  C   UNL     1       2.321   4.667  21.077  0.00  0.00    +0.000 C 
ATOM     20  C   UNL     1       1.921   3.867  19.885  0.00  0.00    +0.000 C 
BRANCH  18  21
ATOM     21  C   UNL     1       2.642   6.271  19.052  0.00  0.00    +0.000 A 
ATOM     22  N   UNL     1       3.063   6.401  17.757  0.00  0.00    +0.000 NA
ATOM     23  C   UNL     1       2.897   7.592  17.150  0.00  0.00    +0.000 A 
ATOM     24  C   UNL     1       2.323   8.690  17.757  0.00  0.00    +0.000 A 
ATOM     25  C   UNL     1       1.848   8.563  19.063  0.00  0.00    +0.000 A 
ATOM     26  C   UNL     1       1.266   9.657  19.724  0.00  0.00    +0.000 A 
ATOM     27  C   UNL     1       0.789   9.534  21.029  0.00  0.00    +0.000 A 
ATOM     28  C   UNL     1       0.864   8.308  21.678  0.00  0.00    +0.000 A 
ATOM     29  C   UNL     1       1.440   7.214  21.034  0.00  0.00    +0.000 A 
ATOM     30  C   UNL     1       1.973   7.323  19.729  0.00  0.00    +0.000 A 
ENDBRANCH  18  21
ENDBRANCH   2  18
TORSDOF 6
ENDMDL
MODEL 5
REMARK VINA RESULT:      -7.7      1.171      2.153
REMARK  Name = 
REMARK  6 active torsions:
REMARK  status: ('A' for Active; 'I' for Inactive)
REMARK    1  A    between atoms: C_2  and  C_16
REMARK    2  A    between atoms: N_3  and  C_4
REMARK    3  A    between atoms: C_6  and  C_7
REMARK    4  A    between atoms: C_7  and  N_8
REMARK    5  A    between atoms: C_14  and  O_15
REMARK    6  A    between atoms: C_16  and  C_17
REMARK                            x       y       z     vdW  Elec       q    Type
REMARK                         _______ _______ _______ _____ _____    ______ ____
ROOT
ATOM      1  O   UNL     1       0.897   8.683  20.945  0.00  0.00    +0.000 OA
ATOM      2  C   UNL     1       1.307   8.677  19.793  0.00  0.00    +0.000 C 
ATOM      3  N   UNL     1       2.020   7.645  19.227  0.00  0.00    +0.000 N 
ATOM      4  H   UNL     1       2.332   7.771  18.268  0.00  0.00    +0.000 HD
ENDROOT
BRANCH   3   5
ATOM      5  C   UNL     1       2.389   6.464  19.993  0.00  0.00    +0.000 C 
ATOM      6  C   UNL     1       3.737   5.903  19.516  0.00  0.00    +0.000 C 
ATOM      7  C   UNL     1       3.416   4.743  18.549  0.00  0.00    +0.000 C 
ATOM      8  C   UNL     1       1.884   4.682  18.465  0.00  0.00    +0.000 C 
ATOM      9  C   UNL     1       1.412   5.288  19.781  0.00  0.00    +0.000 C 
BRANCH   9  10
ATOM     10  O   UNL     1       1.499   4.320  20.827  0.00  0.00    +0.000 OA
ATOM     11  H   UNL     1       2.407   3.981  20.884  0.00  0.00    +0.000 HD
ENDBRANCH   9  10
BRANCH   7  12
ATOM     12  C   UNL     1       4.063   4.884  17.168  0.00  0.00    +0.000 C 
BRANCH  12  13
ATOM     13  N   UNL     1       5.440   5.334  17.223  0.00  0.00    +0.000 N 
ATOM     14  C   UNL     1       5.900   6.591  16.946  0.00  0.00    +0.000 A 
ATOM     15  C   UNL     1       7.266   6.506  17.082  0.00  0.00    +0.000 A 
ATOM     16  N   UNL     1       7.639   5.244  17.463  0.00  0.00    +0.000 NA
ATOM     17  C   UNL     1       6.518   4.563  17.553  0.00  0.00    +0.000 A 
ENDBRANCH  12  13
ENDBRANCH   7  12
ENDBRANCH   3   5
BRANCH   2  18
ATOM     18  C   UNL     1       1.058   9.844  18.888  0.00  0.00    +0.000 C 
ATOM     19  C   UNL     1       2.031  10.067  17.727  0.00  0.00    +0.000 C 
ATOM     20  C   UNL     1       2.090  10.977  18.907  0.00  0.00    +0.000 C 
BRANCH  18  21
ATOM     21  C   UNL     1      -0.413  10.174  18.617  0.00  0.00    +0.000 A 
ATOM     22  N   UNL     1      -0.955   9.584  17.508  0.00  0.00    +0.000 NA
ATOM     23  C   UNL     1      -2.202   9.938  17.142  0.00  0.00    +0.000 A 
ATOM     24  C   UNL     1      -2.968  10.861  17.823  0.00  0.00    +0.000 A 
ATOM     25  C   UNL     1      -2.449  11.441  18.982  0.00  0.00    +0.000 A 
ATOM     26  C   UNL     1      -3.189  12.394  19.700  0.00  0.00    +0.000 A 
ATOM     27  C   UNL     1      -2.674  12.974  20.859  0.00  0.00    +0.000 A 
ATOM     28  C   UNL     1      -1.425  12.590  21.327  0.00  0.00    +0.000 A 
ATOM     29  C   UNL     1      -0.678  11.647  20.622  0.00  0.00    +0.000 A 
ATOM     30  C   UNL     1      -1.156  11.076  19.420  0.00  0.00    +0.000 A 
ENDBRANCH  18  21
ENDBRANCH   2  18
TORSDOF 6
ENDMDL
MODEL 6
REMARK VINA RESULT:      -7.6      2.085      3.433
REMARK  Name = 
REMARK  6 active torsions:
REMARK  status: ('A' for Active; 'I' for Inactive)
REMARK    1  A    between atoms: C_2  and  C_16
REMARK    2  A    between atoms: N_3  and  C_4
REMARK    3  A    between atoms: C_6  and  C_7
REMARK    4  A    between atoms: C_7  and  N_8
REMARK    5  A    between atoms: C_14  and  O_15
REMARK    6  A    between atoms: C_16  and  C_17
REMARK                            x       y       z     vdW  Elec       q    Type
REMARK                         _______ _______ _______ _____ _____    ______ ____
ROOT
ATOM      1  O   UNL     1       2.206   9.032  17.397  0.00  0.00    +0.000 OA
ATOM      2  C   UNL     1       2.168   8.351  18.413  0.00  0.00    +0.000 C 
ATOM      3  N   UNL     1       2.822   7.151  18.568  0.00  0.00    +0.000 N 
ATOM      4  H   UNL     1       2.689   6.664  19.451  0.00  0.00    +0.000 HD
ENDROOT
BRANCH   3   5
ATOM      5  C   UNL     1       3.600   6.561  17.489  0.00  0.00    +0.000 C 
ATOM      6  C   UNL     1       3.475   5.030  17.500  0.00  0.00    +0.000 C 
ATOM      7  C   UNL     1       4.727   4.490  18.224  0.00  0.00    +0.000 C 
ATOM      8  C   UNL     1       5.533   5.727  18.643  0.00  0.00    +0.000 C 
ATOM      9  C   UNL     1       5.116   6.803  17.646  0.00  0.00    +0.000 C 
BRANCH   9  10
ATOM     10  O   UNL     1       5.819   6.630  16.416  0.00  0.00    +0.000 OA
ATOM     11  H   UNL     1       6.121   5.711  16.337  0.00  0.00    +0.000 HD
ENDBRANCH   9  10
BRANCH   7  12
ATOM     12  C   UNL     1       4.417   3.576  19.412  0.00  0.00    +0.000 C 
BRANCH  12  13
ATOM     13  N   UNL     1       3.005   3.524  19.742  0.00  0.00    +0.000 N 
ATOM     14  C   UNL     1       2.083   2.645  19.246  0.00  0.00    +0.000 A 
ATOM     15  C   UNL     1       0.889   3.032  19.808  0.00  0.00    +0.000 A 
ATOM     16  N   UNL     1       1.070   4.096  20.652  0.00  0.00    +0.000 NA
ATOM     17  C   UNL     1       2.356   4.363  20.602  0.00  0.00    +0.000 A 
ENDBRANCH  12  13
ENDBRANCH   7  12
ENDBRANCH   3   5
BRANCH   2  18
ATOM     18  C   UNL     1       1.366   8.793  19.597  0.00  0.00    +0.000 C 
ATOM     19  C   UNL     1       1.830   8.336  20.983  0.00  0.00    +0.000 C 
ATOM     20  C   UNL     1       0.619   7.708  20.381  0.00  0.00    +0.000 C 
BRANCH  18  21
ATOM     21  C   UNL     1       0.768  10.200  19.509  0.00  0.00    +0.000 A 
ATOM     22  N   UNL     1       1.365  11.145  20.298  0.00  0.00    +0.000 NA
ATOM     23  C   UNL     1       0.802  12.368  20.365  0.00  0.00    +0.000 A 
ATOM     24  C   UNL     1      -0.341  12.725  19.681  0.00  0.00    +0.000 A 
ATOM     25  C   UNL     1      -0.939  11.788  18.837  0.00  0.00    +0.000 A 
ATOM     26  C   UNL     1      -2.110  12.104  18.129  0.00  0.00    +0.000 A 
ATOM     27  C   UNL     1      -2.709  11.171  17.284  0.00  0.00    +0.000 A 
ATOM     28  C   UNL     1      -2.131   9.920  17.116  0.00  0.00    +0.000 A 
ATOM     29  C   UNL     1      -0.969   9.591  17.814  0.00  0.00    +0.000 A 
ATOM     30  C   UNL     1      -0.366  10.502  18.712  0.00  0.00    +0.000 A 
ENDBRANCH  18  21
ENDBRANCH   2  18
TORSDOF 6
ENDMDL
MODEL 7
REMARK VINA RESULT:      -7.6      2.865      5.151
REMARK  Name = 
REMARK  6 active torsions:
REMARK  status: ('A' for Active; 'I' for Inactive)
REMARK    1  A    between atoms: C_2  and  C_16
REMARK    2  A    between atoms: N_3  and  C_4
REMARK    3  A    between atoms: C_6  and  C_7
REMARK    4  A    between atoms: C_7  and  N_8
REMARK    5  A    between atoms: C_14  and  O_15
REMARK    6  A    between atoms: C_16  and  C_17
REMARK                            x       y       z     vdW  Elec       q    Type
REMARK                         _______ _______ _______ _____ _____    ______ ____
ROOT
ATOM      1  O   UNL     1       4.304   3.929  20.171  0.00  0.00    +0.000 OA
ATOM      2  C   UNL     1       3.999   4.666  19.243  0.00  0.00    +0.000 C 
ATOM      3  N   UNL     1       4.899   5.220  18.363  0.00  0.00    +0.000 N 
ATOM      4  H   UNL     1       4.525   5.842  17.650  0.00  0.00    +0.000 HD
ENDROOT
BRANCH   3   5
ATOM      5  C   UNL     1       6.331   4.999  18.496  0.00  0.00    +0.000 C 
ATOM      6  C   UNL     1       7.043   6.282  18.952  0.00  0.00    +0.000 C 
ATOM      7  C   UNL     1       7.620   6.942  17.681  0.00  0.00    +0.000 C 
ATOM      8  C   UNL     1       7.200   6.038  16.514  0.00  0.00    +0.000 C 
ATOM      9  C   UNL     1       7.010   4.666  17.151  0.00  0.00    +0.000 C 
BRANCH   9  10
ATOM     10  O   UNL     1       8.275   4.028  17.329  0.00  0.00    +0.000 OA
ATOM     11  H   UNL     1       8.276   3.529  18.161  0.00  0.00    +0.000 HD
ENDBRANCH   9  10
BRANCH   7  12
ATOM     12  C   UNL     1       7.176   8.393  17.474  0.00  0.00    +0.000 C 
BRANCH  12  13
ATOM     13  N   UNL     1       8.098   9.360  18.037  0.00  0.00    +0.000 N 
ATOM     14  C   UNL     1       8.950   9.159  19.088  0.00  0.00    +0.000 A 
ATOM     15  C   UNL     1       9.564  10.374  19.281  0.00  0.00    +0.000 A 
ATOM     16  N   UNL     1       9.131  11.291  18.360  0.00  0.00    +0.000 NA
ATOM     17  C   UNL     1       8.258  10.649  17.616  0.00  0.00    +0.000 A 
ENDBRANCH  12  13
ENDBRANCH   7  12
ENDBRANCH   3   5
BRANCH   2  18
ATOM     18  C   UNL     1       2.568   5.037  19.002  0.00  0.00    +0.000 C 
ATOM     19  C   UNL     1       1.552   3.901  18.856  0.00  0.00    +0.000 C 
ATOM     20  C   UNL     1       1.968   4.662  17.643  0.00  0.00    +0.000 C 
BRANCH  18  21
ATOM     21  C   UNL     1       2.078   6.300  19.716  0.00  0.00    +0.000 A 
ATOM     22  N   UNL     1       1.549   6.106  20.962  0.00  0.00    +0.000 NA
ATOM     23  C   UNL     1       0.980   7.157  21.584  0.00  0.00    +0.000 A 
ATOM     24  C   UNL     1       0.904   8.422  21.039  0.00  0.00    +0.000 A 
ATOM     25  C   UNL     1       1.478   8.649  19.787  0.00  0.00    +0.000 A 
ATOM     26  C   UNL     1       1.414   9.918  19.190  0.00  0.00    +0.000 A 
ATOM     27  C   UNL     1       1.988  10.150  17.939  0.00  0.00    +0.000 A 
ATOM     28  C   UNL     1       2.654   9.123  17.284  0.00  0.00    +0.000 A 
ATOM     29  C   UNL     1       2.723   7.857  17.866  0.00  0.00    +0.000 A 
ATOM     30  C   UNL     1       2.112   7.583  19.111  0.00  0.00    +0.000 A 
ENDBRANCH  18  21
ENDBRANCH   2  18
TORSDOF 6
ENDMDL
MODEL 8
REMARK VINA RESULT:      -7.4      2.993      4.899
REMARK  Name = 
REMARK  6 active torsions:
REMARK  status: ('A' for Active; 'I' for Inactive)
REMARK    1  A    between atoms: C_2  and  C_16
REMARK    2  A    between atoms: N_3  and  C_4
REMARK    3  A    between atoms: C_6  and  C_7
REMARK    4  A    between atoms: C_7  and  N_8
REMARK    5  A    between atoms: C_14  and  O_15
REMARK    6  A    between atoms: C_16  and  C_17
REMARK                            x       y       z     vdW  Elec       q    Type
REMARK                         _______ _______ _______ _____ _____    ______ ____
ROOT
ATOM      1  O   UNL     1       4.938   5.349  20.034  0.00  0.00    +0.000 OA
ATOM      2  C   UNL     1       4.233   5.671  19.088  0.00  0.00    +0.000 C 
ATOM      3  N   UNL     1       4.694   5.859  17.805  0.00  0.00    +0.000 N 
ATOM      4  H   UNL     1       4.014   6.155  17.109  0.00  0.00    +0.000 HD
ENDROOT
BRANCH   3   5
ATOM      5  C   UNL     1       6.105   5.728  17.474  0.00  0.00    +0.000 C 
ATOM      6  C   UNL     1       6.372   6.173  16.029  0.00  0.00    +0.000 C 
ATOM      7  C   UNL     1       6.414   4.889  15.172  0.00  0.00    +0.000 C 
ATOM      8  C   UNL     1       6.138   3.732  16.141  0.00  0.00    +0.000 C 
ATOM      9  C   UNL     1       6.588   4.262  17.497  0.00  0.00    +0.000 C 
BRANCH   9  10
ATOM     10  O   UNL     1       8.007   4.165  17.616  0.00  0.00    +0.000 OA
ATOM     11  H   UNL     1       8.237   3.430  18.207  0.00  0.00    +0.000 HD
ENDBRANCH   9  10
BRANCH   7  12
ATOM     12  C   UNL     1       5.440   4.894  13.990  0.00  0.00    +0.000 C 
BRANCH  12  13
ATOM     13  N   UNL     1       5.762   3.907  12.978  0.00  0.00    +0.000 N 
ATOM     14  C   UNL     1       6.990   3.679  12.421  0.00  0.00    +0.000 A 
ATOM     15  C   UNL     1       6.776   2.697  11.483  0.00  0.00    +0.000 A 
ATOM     16  N   UNL     1       5.463   2.305  11.479  0.00  0.00    +0.000 NA
ATOM     17  C   UNL     1       4.879   3.041  12.399  0.00  0.00    +0.000 A 
ENDBRANCH  12  13
ENDBRANCH   7  12
ENDBRANCH   3   5
BRANCH   2  18
ATOM     18  C   UNL     1       2.765   5.899  19.272  0.00  0.00    +0.000 C 
ATOM     19  C   UNL     1       2.073   5.185  20.437  0.00  0.00    +0.000 C 
ATOM     20  C   UNL     1       1.837   4.701  19.047  0.00  0.00    +0.000 C 
BRANCH  18  21
ATOM     21  C   UNL     1       2.264   7.308  18.944  0.00  0.00    +0.000 A 
ATOM     22  N   UNL     1       2.522   7.745  17.673  0.00  0.00    +0.000 NA
ATOM     23  C   UNL     1       2.225   9.023  17.366  0.00  0.00    +0.000 A 
ATOM     24  C   UNL     1       1.670   9.918  18.257  0.00  0.00    +0.000 A 
ATOM     25  C   UNL     1       1.359   9.477  19.545  0.00  0.00    +0.000 A 
ATOM     26  C   UNL     1       0.803  10.357  20.488  0.00  0.00    +0.000 A 
ATOM     27  C   UNL     1       0.489   9.920  21.775  0.00  0.00    +0.000 A 
ATOM     28  C   UNL     1       0.703   8.593  22.125  0.00  0.00    +0.000 A 
ATOM     29  C   UNL     1       1.255   7.710  21.199  0.00  0.00    +0.000 A 
ATOM     30  C   UNL     1       1.625   8.137  19.902  0.00  0.00    +0.000 A 
ENDBRANCH  18  21
ENDBRANCH   2  18
TORSDOF 6
ENDMDL
MODEL 9
REMARK VINA RESULT:      -7.4      2.081      8.218
REMARK  Name = 
REMARK  6 active torsions:
REMARK  status: ('A' for Active; 'I' for Inactive)
REMARK    1  A    between atoms: C_2  and  C_16
REMARK    2  A    between atoms: N_3  and  C_4
REMARK    3  A    between atoms: C_6  and  C_7
REMARK    4  A    between atoms: C_7  and  N_8
REMARK    5  A    between atoms: C_14  and  O_15
REMARK    6  A    between atoms: C_16  and  C_17
REMARK                            x       y       z     vdW  Elec       q    Type
REMARK                         _______ _______ _______ _____ _____    ______ ____
ROOT
ATOM      1  O   UNL     1       1.881   6.381  20.934  0.00  0.00    +0.000 OA
ATOM      2  C   UNL     1       1.895   7.223  20.047  0.00  0.00    +0.000 C 
ATOM      3  N   UNL     1       1.262   8.442  20.124  0.00  0.00    +0.000 N 
ATOM      4  H   UNL     1       1.321   9.045  19.308  0.00  0.00    +0.000 HD
ENDROOT
BRANCH   3   5
ATOM      5  C   UNL     1       0.468   8.818  21.285  0.00  0.00    +0.000 C 
ATOM      6  C   UNL     1      -0.867   9.444  20.855  0.00  0.00    +0.000 C 
ATOM      7  C   UNL     1      -0.681  10.975  20.928  0.00  0.00    +0.000 C 
ATOM      8  C   UNL     1       0.773  11.197  21.369  0.00  0.00    +0.000 C 
ATOM      9  C   UNL     1       1.134   9.926  22.128  0.00  0.00    +0.000 C 
BRANCH   9  10
ATOM     10  O   UNL     1       0.610   9.981  23.455  0.00  0.00    +0.000 OA
ATOM     11  H   UNL     1      -0.076  10.664  23.508  0.00  0.00    +0.000 HD
ENDBRANCH   9  10
BRANCH   7  12
ATOM     12  C   UNL     1      -1.004  11.706  19.622  0.00  0.00    +0.000 C 
BRANCH  12  13
ATOM     13  N   UNL     1      -2.422  11.950  19.438  0.00  0.00    +0.000 N 
ATOM     14  C   UNL     1      -3.250  12.628  20.288  0.00  0.00    +0.000 A 
ATOM     15  C   UNL     1      -4.496  12.541  19.712  0.00  0.00    +0.000 A 
ATOM     16  N   UNL     1      -4.436  11.860  18.525  0.00  0.00    +0.000 NA
ATOM     17  C   UNL     1      -3.173  11.527  18.379  0.00  0.00    +0.000 A 
ENDBRANCH  12  13
ENDBRANCH   7  12
ENDBRANCH   3   5
BRANCH   2  18
ATOM     18  C   UNL     1       2.622   6.968  18.764  0.00  0.00    +0.000 C 
ATOM     19  C   UNL     1       3.104   8.181  17.964  0.00  0.00    +0.000 C 
ATOM     20  C   UNL     1       1.931   7.405  17.468  0.00  0.00    +0.000 C 
BRANCH  18  21
ATOM     21  C   UNL     1       3.534   5.737  18.749  0.00  0.00    +0.000 A 
ATOM     22  N   UNL     1       4.876   5.996  18.822  0.00  0.00    +0.000 NA
ATOM     23  C   UNL     1       5.732   4.966  18.679  0.00  0.00    +0.000 A 
ATOM     24  C   UNL     1       5.336   3.662  18.467  0.00  0.00    +0.000 A 
ATOM     25  C   UNL     1       3.971   3.372  18.434  0.00  0.00    +0.000 A 
ATOM     26  C   UNL     1       3.523   2.060  18.210  0.00  0.00    +0.000 A 
ATOM     27  C   UNL     1       2.159   1.766  18.177  0.00  0.00    +0.000 A 
ATOM     28  C   UNL     1       1.230   2.775  18.395  0.00  0.00    +0.000 A 
ATOM     29  C   UNL     1       1.662   4.082  18.617  0.00  0.00    +0.000 A 
ATOM     30  C   UNL     1       3.036   4.416  18.610  0.00  0.00    +0.000 A 
ENDBRANCH  18  21
ENDBRANCH   2  18
TORSDOF 6
ENDMDL
