MODEL 1
REMARK VINA RESULT:      -9.1      0.000      0.000
REMARK  Name = 
REMARK  3 active torsions:
REMARK  status: ('A' for Active; 'I' for Inactive)
REMARK    1  A    between atoms: C_2  and  C_4
REMARK    2  A    between atoms: C_13  and  C_15
REMARK    3  A    between atoms: C_18  and  C_19
REMARK                            x       y       z     vdW  Elec       q    Type
REMARK                         _______ _______ _______ _____ _____    ______ ____
ROOT
ATOM      1  C   UNL     1      -4.651  11.938  19.123  0.00  0.00    +0.000 A 
ATOM      2  C   UNL     1      -5.326  12.537  20.201  0.00  0.00    +0.000 A 
ATOM      3  C   UNL     1      -4.626  13.163  21.232  0.00  0.00    +0.000 A 
ATOM      4  C   UNL     1      -3.235  13.163  21.223  0.00  0.00    +0.000 A 
ATOM      5  C   UNL     1      -2.541  12.548  20.181  0.00  0.00    +0.000 A 
ATOM      6  C   UNL     1      -3.244  11.951  19.111  0.00  0.00    +0.000 A 
ATOM      7  C   UNL     1      -2.376  11.361  18.022  0.00  0.00    +0.000 C 
ATOM      8  C   UNL     1      -1.304  10.504  18.696  0.00  0.00    +0.000 C 
ATOM      9  N   UNL     1      -0.512  11.209  19.717  0.00  0.00    +0.000 N 
ATOM     10  C   UNL     1       0.731  10.787  20.218  0.00  0.00    +0.000 C 
ATOM     11  O   UNL     1       1.410  11.499  20.956  0.00  0.00    +0.000 OA
ATOM     12  C   UNL     1      -1.025  12.502  20.183  0.00  0.00    +0.000 C 
ENDROOT
BRANCH  10  13
ATOM     13  C   UNL     1       1.255   9.436  19.873  0.00  0.00    +0.000 A 
ATOM     14  C   UNL     1       1.252   8.392  20.798  0.00  0.00    +0.000 A 
ATOM     15  C   UNL     1       1.659   7.107  20.432  0.00  0.00    +0.000 A 
ATOM     16  C   UNL     1       2.168   6.835  19.153  0.00  0.00    +0.000 A 
ATOM     17  C   UNL     1       2.271   7.918  18.263  0.00  0.00    +0.000 A 
ATOM     18  C   UNL     1       1.815   9.196  18.617  0.00  0.00    +0.000 A 
ATOM     19  F   UNL     1       1.924  10.171  17.704  0.00  0.00    +0.000 F 
BRANCH  16  20
ATOM     20  C   UNL     1       2.601   5.466  18.794  0.00  0.00    +0.000 A 
ATOM     21  C   UNL     1       3.772   4.905  19.348  0.00  0.00    +0.000 A 
ATOM     22  C   UNL     1       4.219   3.635  18.975  0.00  0.00    +0.000 A 
ATOM     23  C   UNL     1       3.488   2.900  18.055  0.00  0.00    +0.000 A 
ATOM     24  F   UNL     1       3.915   1.682  17.693  0.00  0.00    +0.000 F 
ATOM     25  C   UNL     1       2.323   3.410  17.502  0.00  0.00    +0.000 A 
ATOM     26  C   UNL     1       1.884   4.688  17.868  0.00  0.00    +0.000 A 
ENDBRANCH  16  20
ENDBRANCH  10  13
BRANCH   1  28
ATOM     27  N   UNL     1      -5.644  11.866  16.897  0.00  0.00    +0.000 N 
ATOM     28  C   UNL     1      -5.460  11.223  18.092  0.00  0.00    +0.000 C 
ATOM     29  O   UNL     1      -5.960  10.122  18.286  0.00  0.00    +0.000 OA
ATOM     30  H   UNL     1      -6.159  11.372  16.180  0.00  0.00    +0.000 HD
ATOM     31  H   UNL     1      -5.176  12.725  16.647  0.00  0.00    +0.000 HD
ENDBRANCH   1  28
TORSDOF 3
ENDMDL
MODEL 2
REMARK VINA RESULT:      -9.0      1.357      1.748
REMARK  Name = 
REMARK  3 active torsions:
REMARK  status: ('A' for Active; 'I' for Inactive)
REMARK    1  A    between atoms: C_2  and  C_4
REMARK    2  A    between atoms: C_13  and  C_15
REMARK    3  A    between atoms: C_18  and  C_19
REMARK                            x       y       z     vdW  Elec       q    Type
REMARK                         _______ _______ _______ _____ _____    ______ ____
ROOT
ATOM      1  C   UNL     1      -5.118  11.997  19.450  0.00  0.00    +0.000 A 
ATOM      2  C   UNL     1      -5.802  12.351  20.625  0.00  0.00    +0.000 A 
ATOM      3  C   UNL     1      -5.122  12.872  21.726  0.00  0.00    +0.000 A 
ATOM      4  C   UNL     1      -3.738  13.010  21.682  0.00  0.00    +0.000 A 
ATOM      5  C   UNL     1      -3.032  12.636  20.538  0.00  0.00    +0.000 A 
ATOM      6  C   UNL     1      -3.720  12.148  19.405  0.00  0.00    +0.000 A 
ATOM      7  C   UNL     1      -2.845  11.823  18.215  0.00  0.00    +0.000 C 
ATOM      8  C   UNL     1      -1.673  10.978  18.715  0.00  0.00    +0.000 C 
ATOM      9  N   UNL     1      -0.909  11.589  19.817  0.00  0.00    +0.000 N 
ATOM     10  C   UNL     1       0.386  11.216  20.213  0.00  0.00    +0.000 C 
ATOM     11  O   UNL     1       1.026  11.866  21.038  0.00  0.00    +0.000 OA
ATOM     12  C   UNL     1      -1.520  12.737  20.495  0.00  0.00    +0.000 C 
ENDROOT
BRANCH  10  13
ATOM     13  C   UNL     1       1.018   9.993  19.643  0.00  0.00    +0.000 A 
ATOM     14  C   UNL     1       1.456   9.945  18.320  0.00  0.00    +0.000 A 
ATOM     15  C   UNL     1       2.131   8.826  17.827  0.00  0.00    +0.000 A 
ATOM     16  C   UNL     1       2.316   7.676  18.610  0.00  0.00    +0.000 A 
ATOM     17  C   UNL     1       1.772   7.693  19.907  0.00  0.00    +0.000 A 
ATOM     18  C   UNL     1       1.139   8.836  20.415  0.00  0.00    +0.000 A 
ATOM     19  F   UNL     1       0.669   8.782  21.669  0.00  0.00    +0.000 F 
BRANCH  16  20
ATOM     20  C   UNL     1       3.025   6.501  18.060  0.00  0.00    +0.000 A 
ATOM     21  C   UNL     1       2.502   5.199  18.211  0.00  0.00    +0.000 A 
ATOM     22  C   UNL     1       3.192   4.077  17.743  0.00  0.00    +0.000 A 
ATOM     23  C   UNL     1       4.407   4.245  17.098  0.00  0.00    +0.000 A 
ATOM     24  F   UNL     1       5.072   3.172  16.650  0.00  0.00    +0.000 F 
ATOM     25  C   UNL     1       4.945   5.510  16.916  0.00  0.00    +0.000 A 
ATOM     26  C   UNL     1       4.259   6.631  17.397  0.00  0.00    +0.000 A 
ENDBRANCH  16  20
ENDBRANCH  10  13
BRANCH   1  28
ATOM     27  N   UNL     1      -6.050  12.123  17.200  0.00  0.00    +0.000 N 
ATOM     28  C   UNL     1      -5.898  11.377  18.338  0.00  0.00    +0.000 C 
ATOM     29  O   UNL     1      -6.402  10.264  18.420  0.00  0.00    +0.000 OA
ATOM     30  H   UNL     1      -6.545  11.696  16.429  0.00  0.00    +0.000 HD
ATOM     31  H   UNL     1      -5.577  13.001  17.039  0.00  0.00    +0.000 HD
ENDBRANCH   1  28
TORSDOF 3
ENDMDL
MODEL 3
REMARK VINA RESULT:      -8.9      1.554      1.835
REMARK  Name = 
REMARK  3 active torsions:
REMARK  status: ('A' for Active; 'I' for Inactive)
REMARK    1  A    between atoms: C_2  and  C_4
REMARK    2  A    between atoms: C_13  and  C_15
REMARK    3  A    between atoms: C_18  and  C_19
REMARK                            x       y       z     vdW  Elec       q    Type
REMARK                         _______ _______ _______ _____ _____    ______ ____
ROOT
ATOM      1  C   UNL     1      -5.169  12.044  19.636  0.00  0.00    +0.000 A 
ATOM      2  C   UNL     1      -5.850  12.368  20.822  0.00  0.00    +0.000 A 
ATOM      3  C   UNL     1      -5.169  12.868  21.932  0.00  0.00    +0.000 A 
ATOM      4  C   UNL     1      -3.786  13.015  21.885  0.00  0.00    +0.000 A 
ATOM      5  C   UNL     1      -3.083  12.672  20.731  0.00  0.00    +0.000 A 
ATOM      6  C   UNL     1      -3.772  12.206  19.589  0.00  0.00    +0.000 A 
ATOM      7  C   UNL     1      -2.900  11.913  18.388  0.00  0.00    +0.000 C 
ATOM      8  C   UNL     1      -1.721  11.065  18.865  0.00  0.00    +0.000 C 
ATOM      9  N   UNL     1      -0.956  11.655  19.977  0.00  0.00    +0.000 N 
ATOM     10  C   UNL     1       0.343  11.281  20.359  0.00  0.00    +0.000 C 
ATOM     11  O   UNL     1       0.982  11.917  21.197  0.00  0.00    +0.000 OA
ATOM     12  C   UNL     1      -1.571  12.783  20.684  0.00  0.00    +0.000 C 
ENDROOT
BRANCH  10  13
ATOM     13  C   UNL     1       0.980  10.076  19.760  0.00  0.00    +0.000 A 
ATOM     14  C   UNL     1       1.400  10.056  18.430  0.00  0.00    +0.000 A 
ATOM     15  C   UNL     1       2.080   8.953  17.908  0.00  0.00    +0.000 A 
ATOM     16  C   UNL     1       2.289   7.793  18.668  0.00  0.00    +0.000 A 
ATOM     17  C   UNL     1       1.764   7.781  19.972  0.00  0.00    +0.000 A 
ATOM     18  C   UNL     1       1.125   8.908  20.509  0.00  0.00    +0.000 A 
ATOM     19  F   UNL     1       0.674   8.826  21.769  0.00  0.00    +0.000 F 
BRANCH  16  20
ATOM     20  C   UNL     1       3.004   6.635  18.088  0.00  0.00    +0.000 A 
ATOM     21  C   UNL     1       4.236   6.800  17.421  0.00  0.00    +0.000 A 
ATOM     22  C   UNL     1       4.892   5.721  16.822  0.00  0.00    +0.000 A 
ATOM     23  C   UNL     1       4.332   4.456  16.901  0.00  0.00    +0.000 A 
ATOM     24  F   UNL     1       4.957   3.419  16.326  0.00  0.00    +0.000 F 
ATOM     25  C   UNL     1       3.131   4.251  17.563  0.00  0.00    +0.000 A 
ATOM     26  C   UNL     1       2.469   5.335  18.151  0.00  0.00    +0.000 A 
ENDBRANCH  16  20
ENDBRANCH  10  13
BRANCH   1  28
ATOM     27  N   UNL     1      -6.514  10.218  18.740  0.00  0.00    +0.000 N 
ATOM     28  C   UNL     1      -5.950  11.445  18.513  0.00  0.00    +0.000 C 
ATOM     29  O   UNL     1      -6.080  11.995  17.427  0.00  0.00    +0.000 OA
ATOM     30  H   UNL     1      -7.076   9.823  17.998  0.00  0.00    +0.000 HD
ATOM     31  H   UNL     1      -6.523   9.765  19.642  0.00  0.00    +0.000 HD
ENDBRANCH   1  28
TORSDOF 3
ENDMDL
MODEL 4
REMARK VINA RESULT:      -8.8      1.110      1.679
REMARK  Name = 
REMARK  3 active torsions:
REMARK  status: ('A' for Active; 'I' for Inactive)
REMARK    1  A    between atoms: C_2  and  C_4
REMARK    2  A    between atoms: C_13  and  C_15
REMARK    3  A    between atoms: C_18  and  C_19
REMARK                            x       y       z     vdW  Elec       q    Type
REMARK                         _______ _______ _______ _____ _____    ______ ____
ROOT
ATOM      1  C   UNL     1      -4.691  12.191  19.334  0.00  0.00    +0.000 A 
ATOM      2  C   UNL     1      -5.355  12.740  20.445  0.00  0.00    +0.000 A 
ATOM      3  C   UNL     1      -4.643  13.278  21.517  0.00  0.00    +0.000 A 
ATOM      4  C   UNL     1      -3.253  13.241  21.512  0.00  0.00    +0.000 A 
ATOM      5  C   UNL     1      -2.570  12.674  20.436  0.00  0.00    +0.000 A 
ATOM      6  C   UNL     1      -3.283  12.166  19.328  0.00  0.00    +0.000 A 
ATOM      7  C   UNL     1      -2.426  11.622  18.207  0.00  0.00    +0.000 C 
ATOM      8  C   UNL     1      -1.383  10.693  18.829  0.00  0.00    +0.000 C 
ATOM      9  N   UNL     1      -0.577  11.310  19.896  0.00  0.00    +0.000 N 
ATOM     10  C   UNL     1       0.651  10.822  20.374  0.00  0.00    +0.000 C 
ATOM     11  O   UNL     1       1.345  11.466  21.158  0.00  0.00    +0.000 OA
ATOM     12  C   UNL     1      -1.056  12.584  20.441  0.00  0.00    +0.000 C 
ENDROOT
BRANCH  10  13
ATOM     13  C   UNL     1       1.139   9.481  19.945  0.00  0.00    +0.000 A 
ATOM     14  C   UNL     1       1.589   9.248  18.646  0.00  0.00    +0.000 A 
ATOM     15  C   UNL     1       2.132   8.012  18.285  0.00  0.00    +0.000 A 
ATOM     16  C   UNL     1       2.164   6.934  19.182  0.00  0.00    +0.000 A 
ATOM     17  C   UNL     1       1.605   7.147  20.455  0.00  0.00    +0.000 A 
ATOM     18  C   UNL     1       1.107   8.402  20.830  0.00  0.00    +0.000 A 
ATOM     19  F   UNL     1       0.614   8.531  22.070  0.00  0.00    +0.000 F 
BRANCH  16  20
ATOM     20  C   UNL     1       2.734   5.633  18.771  0.00  0.00    +0.000 A 
ATOM     21  C   UNL     1       2.053   4.793  17.865  0.00  0.00    +0.000 A 
ATOM     22  C   UNL     1       2.557   3.539  17.512  0.00  0.00    +0.000 A 
ATOM     23  C   UNL     1       3.763   3.116  18.047  0.00  0.00    +0.000 A 
ATOM     24  F   UNL     1       4.249   1.913  17.713  0.00  0.00    +0.000 F 
ATOM     25  C   UNL     1       4.471   3.921  18.927  0.00  0.00    +0.000 A 
ATOM     26  C   UNL     1       3.958   5.171  19.289  0.00  0.00    +0.000 A 
ENDBRANCH  16  20
ENDBRANCH  10  13
BRANCH   1  28
ATOM     27  N   UNL     1      -6.225  10.446  18.594  0.00  0.00    +0.000 N 
ATOM     28  C   UNL     1      -5.513  11.566  18.256  0.00  0.00    +0.000 C 
ATOM     29  O   UNL     1      -5.554  12.004  17.114  0.00  0.00    +0.000 OA
ATOM     30  H   UNL     1      -6.813  10.039  17.880  0.00  0.00    +0.000 HD
ATOM     31  H   UNL     1      -6.307  10.099  19.539  0.00  0.00    +0.000 HD
ENDBRANCH   1  28
TORSDOF 3
ENDMDL
MODEL 5
REMARK VINA RESULT:      -8.7      3.308      4.990
REMARK  Name = 
REMARK  3 active torsions:
REMARK  status: ('A' for Active; 'I' for Inactive)
REMARK    1  A    between atoms: C_2  and  C_4
REMARK    2  A    between atoms: C_13  and  C_15
REMARK    3  A    between atoms: C_18  and  C_19
REMARK                            x       y       z     vdW  Elec       q    Type
REMARK                         _______ _______ _______ _____ _____    ______ ____
ROOT
ATOM      1  C   UNL     1       1.957  16.134  18.593  0.00  0.00    +0.000 A 
ATOM      2  C   UNL     1       0.915  16.996  18.211  0.00  0.00    +0.000 A 
ATOM      3  C   UNL     1      -0.402  16.752  18.599  0.00  0.00    +0.000 A 
ATOM      4  C   UNL     1      -0.704  15.617  19.345  0.00  0.00    +0.000 A 
ATOM      5  C   UNL     1       0.307  14.729  19.711  0.00  0.00    +0.000 A 
ATOM      6  C   UNL     1       1.649  14.993  19.358  0.00  0.00    +0.000 A 
ATOM      7  C   UNL     1       2.654  13.979  19.855  0.00  0.00    +0.000 C 
ATOM      8  C   UNL     1       2.121  12.588  19.512  0.00  0.00    +0.000 C 
ATOM      9  N   UNL     1       0.763  12.315  20.012  0.00  0.00    +0.000 N 
ATOM     10  C   UNL     1       0.187  11.041  20.152  0.00  0.00    +0.000 C 
ATOM     11  O   UNL     1      -0.892  10.874  20.718  0.00  0.00    +0.000 OA
ATOM     12  C   UNL     1      -0.016  13.465  20.484  0.00  0.00    +0.000 C 
ENDROOT
BRANCH  10  13
ATOM     13  C   UNL     1       0.877   9.846  19.592  0.00  0.00    +0.000 A 
ATOM     14  C   UNL     1       1.084   9.696  18.221  0.00  0.00    +0.000 A 
ATOM     15  C   UNL     1       1.814   8.617  17.718  0.00  0.00    +0.000 A 
ATOM     16  C   UNL     1       2.290   7.598  18.558  0.00  0.00    +0.000 A 
ATOM     17  C   UNL     1       1.979   7.701  19.925  0.00  0.00    +0.000 A 
ATOM     18  C   UNL     1       1.289   8.811  20.433  0.00  0.00    +0.000 A 
ATOM     19  F   UNL     1       1.053   8.847  21.752  0.00  0.00    +0.000 F 
BRANCH  16  20
ATOM     20  C   UNL     1       3.052   6.460  17.999  0.00  0.00    +0.000 A 
ATOM     21  C   UNL     1       4.289   6.661  17.350  0.00  0.00    +0.000 A 
ATOM     22  C   UNL     1       4.990   5.600  16.771  0.00  0.00    +0.000 A 
ATOM     23  C   UNL     1       4.471   4.318  16.851  0.00  0.00    +0.000 A 
ATOM     24  F   UNL     1       5.139   3.298  16.295  0.00  0.00    +0.000 F 
ATOM     25  C   UNL     1       3.267   4.078  17.495  0.00  0.00    +0.000 A 
ATOM     26  C   UNL     1       2.560   5.144  18.064  0.00  0.00    +0.000 A 
ENDBRANCH  16  20
ENDBRANCH  10  13
BRANCH   1  28
ATOM     27  N   UNL     1       3.743  15.695  16.992  0.00  0.00    +0.000 N 
ATOM     28  C   UNL     1       3.331  16.414  18.081  0.00  0.00    +0.000 C 
ATOM     29  O   UNL     1       4.080  17.231  18.602  0.00  0.00    +0.000 OA
ATOM     30  H   UNL     1       4.658  15.905  16.616  0.00  0.00    +0.000 HD
ATOM     31  H   UNL     1       3.136  15.083  16.464  0.00  0.00    +0.000 HD
ENDBRANCH   1  28
TORSDOF 3
ENDMDL
MODEL 6
REMARK VINA RESULT:      -8.7      1.220      1.592
REMARK  Name = 
REMARK  3 active torsions:
REMARK  status: ('A' for Active; 'I' for Inactive)
REMARK    1  A    between atoms: C_2  and  C_4
REMARK    2  A    between atoms: C_13  and  C_15
REMARK    3  A    between atoms: C_18  and  C_19
REMARK                            x       y       z     vdW  Elec       q    Type
REMARK                         _______ _______ _______ _____ _____    ______ ____
ROOT
ATOM      1  C   UNL     1      -4.833  12.048  19.157  0.00  0.00    +0.000 A 
ATOM      2  C   UNL     1      -5.412  12.863  20.146  0.00  0.00    +0.000 A 
ATOM      3  C   UNL     1      -4.624  13.662  20.974  0.00  0.00    +0.000 A 
ATOM      4  C   UNL     1      -3.239  13.629  20.853  0.00  0.00    +0.000 A 
ATOM      5  C   UNL     1      -2.638  12.806  19.901  0.00  0.00    +0.000 A 
ATOM      6  C   UNL     1      -3.431  12.027  19.030  0.00  0.00    +0.000 A 
ATOM      7  C   UNL     1      -2.661  11.215  18.013  0.00  0.00    +0.000 C 
ATOM      8  C   UNL     1      -1.543  10.481  18.754  0.00  0.00    +0.000 C 
ATOM      9  N   UNL     1      -0.663  11.355  19.550  0.00  0.00    +0.000 N 
ATOM     10  C   UNL     1       0.614  11.011  20.023  0.00  0.00    +0.000 C 
ATOM     11  O   UNL     1       1.356  11.838  20.549  0.00  0.00    +0.000 OA
ATOM     12  C   UNL     1      -1.127  12.726  19.790  0.00  0.00    +0.000 C 
ENDROOT
BRANCH  10  13
ATOM     13  C   UNL     1       1.098   9.607  19.910  0.00  0.00    +0.000 A 
ATOM     14  C   UNL     1       1.714   9.137  18.750  0.00  0.00    +0.000 A 
ATOM     15  C   UNL     1       2.248   7.847  18.693  0.00  0.00    +0.000 A 
ATOM     16  C   UNL     1       2.107   6.946  19.760  0.00  0.00    +0.000 A 
ATOM     17  C   UNL     1       1.387   7.394  20.882  0.00  0.00    +0.000 A 
ATOM     18  C   UNL     1       0.896   8.705  20.956  0.00  0.00    +0.000 A 
ATOM     19  F   UNL     1       0.242   9.062  22.069  0.00  0.00    +0.000 F 
BRANCH  16  20
ATOM     20  C   UNL     1       2.673   5.583  19.669  0.00  0.00    +0.000 A 
ATOM     21  C   UNL     1       2.297   4.576  20.584  0.00  0.00    +0.000 A 
ATOM     22  C   UNL     1       2.866   3.301  20.540  0.00  0.00    +0.000 A 
ATOM     23  C   UNL     1       3.806   3.008  19.565  0.00  0.00    +0.000 A 
ATOM     24  F   UNL     1       4.355   1.787  19.521  0.00  0.00    +0.000 F 
ATOM     25  C   UNL     1       4.188   3.966  18.637  0.00  0.00    +0.000 A 
ATOM     26  C   UNL     1       3.626   5.246  18.691  0.00  0.00    +0.000 A 
ENDBRANCH  16  20
ENDBRANCH  10  13
BRANCH   1  28
ATOM     27  N   UNL     1      -6.004  11.562  17.075  0.00  0.00    +0.000 N 
ATOM     28  C   UNL     1      -5.729  11.164  18.356  0.00  0.00    +0.000 C 
ATOM     29  O   UNL     1      -6.221  10.136  18.804  0.00  0.00    +0.000 OA
ATOM     30  H   UNL     1      -6.581  10.949  16.514  0.00  0.00    +0.000 HD
ATOM     31  H   UNL     1      -5.551  12.343  16.622  0.00  0.00    +0.000 HD
ENDBRANCH   1  28
TORSDOF 3
ENDMDL
MODEL 7
REMARK VINA RESULT:      -8.6      3.451      9.323
REMARK  Name = 
REMARK  3 active torsions:
REMARK  status: ('A' for Active; 'I' for Inactive)
REMARK    1  A    between atoms: C_2  and  C_4
REMARK    2  A    between atoms: C_13  and  C_15
REMARK    3  A    between atoms: C_18  and  C_19
REMARK                            x       y       z     vdW  Elec       q    Type
REMARK                         _______ _______ _______ _____ _____    ______ ____
ROOT
ATOM      1  C   UNL     1       2.453   3.417  19.752  0.00  0.00    +0.000 A 
ATOM      2  C   UNL     1       2.452   2.557  18.640  0.00  0.00    +0.000 A 
ATOM      3  C   UNL     1       2.715   3.036  17.357  0.00  0.00    +0.000 A 
ATOM      4  C   UNL     1       2.943   4.394  17.159  0.00  0.00    +0.000 A 
ATOM      5  C   UNL     1       2.918   5.274  18.242  0.00  0.00    +0.000 A 
ATOM      6  C   UNL     1       2.696   4.789  19.549  0.00  0.00    +0.000 A 
ATOM      7  C   UNL     1       2.740   5.836  20.639  0.00  0.00    +0.000 C 
ATOM      8  C   UNL     1       1.869   7.010  20.191  0.00  0.00    +0.000 C 
ATOM      9  N   UNL     1       2.222   7.564  18.873  0.00  0.00    +0.000 N 
ATOM     10  C   UNL     1       1.840   8.827  18.392  0.00  0.00    +0.000 C 
ATOM     11  O   UNL     1       2.295   9.289  17.347  0.00  0.00    +0.000 OA
ATOM     12  C   UNL     1       3.119   6.763  18.033  0.00  0.00    +0.000 C 
ENDROOT
BRANCH  10  13
ATOM     13  C   UNL     1       0.845   9.642  19.143  0.00  0.00    +0.000 A 
ATOM     14  C   UNL     1       1.061  10.020  20.468  0.00  0.00    +0.000 A 
ATOM     15  C   UNL     1       0.163  10.863  21.129  0.00  0.00    +0.000 A 
ATOM     16  C   UNL     1      -1.028  11.288  20.522  0.00  0.00    +0.000 A 
ATOM     17  C   UNL     1      -1.289  10.810  19.225  0.00  0.00    +0.000 A 
ATOM     18  C   UNL     1      -0.364  10.005  18.547  0.00  0.00    +0.000 A 
ATOM     19  F   UNL     1      -0.675   9.611  17.304  0.00  0.00    +0.000 F 
BRANCH  16  20
ATOM     20  C   UNL     1      -1.966  12.172  21.248  0.00  0.00    +0.000 A 
ATOM     21  C   UNL     1      -2.095  12.100  22.652  0.00  0.00    +0.000 A 
ATOM     22  C   UNL     1      -3.017  12.892  23.341  0.00  0.00    +0.000 A 
ATOM     23  C   UNL     1      -3.809  13.784  22.636  0.00  0.00    +0.000 A 
ATOM     24  F   UNL     1      -4.695  14.543  23.293  0.00  0.00    +0.000 F 
ATOM     25  C   UNL     1      -3.698  13.896  21.258  0.00  0.00    +0.000 A 
ATOM     26  C   UNL     1      -2.784  13.093  20.568  0.00  0.00    +0.000 A 
ENDBRANCH  16  20
ENDBRANCH  10  13
BRANCH   1  28
ATOM     27  N   UNL     1       0.757   2.764  21.378  0.00  0.00    +0.000 N 
ATOM     28  C   UNL     1       2.092   2.850  21.085  0.00  0.00    +0.000 C 
ATOM     29  O   UNL     1       2.929   2.489  21.901  0.00  0.00    +0.000 OA
ATOM     30  H   UNL     1       0.503   2.347  22.264  0.00  0.00    +0.000 HD
ATOM     31  H   UNL     1       0.024   2.954  20.709  0.00  0.00    +0.000 HD
ENDBRANCH   1  28
TORSDOF 3
ENDMDL
MODEL 8
REMARK VINA RESULT:      -8.5      0.997      1.267
REMARK  Name = 
REMARK  3 active torsions:
REMARK  status: ('A' for Active; 'I' for Inactive)
REMARK    1  A    between atoms: C_2  and  C_4
REMARK    2  A    between atoms: C_13  and  C_15
REMARK    3  A    between atoms: C_18  and  C_19
REMARK                            x       y       z     vdW  Elec       q    Type
REMARK                         _______ _______ _______ _____ _____    ______ ____
ROOT
ATOM      1  C   UNL     1      -5.466  12.031  19.539  0.00  0.00    +0.000 A 
ATOM      2  C   UNL     1      -6.212  12.557  20.607  0.00  0.00    +0.000 A 
ATOM      3  C   UNL     1      -5.595  13.262  21.640  0.00  0.00    +0.000 A 
ATOM      4  C   UNL     1      -4.213  13.418  21.641  0.00  0.00    +0.000 A 
ATOM      5  C   UNL     1      -3.446  12.879  20.608  0.00  0.00    +0.000 A 
ATOM      6  C   UNL     1      -4.069  12.202  19.537  0.00  0.00    +0.000 A 
ATOM      7  C   UNL     1      -3.132  11.706  18.459  0.00  0.00    +0.000 C 
ATOM      8  C   UNL     1      -1.976  10.977  19.145  0.00  0.00    +0.000 C 
ATOM      9  N   UNL     1      -1.276  11.772  20.168  0.00  0.00    +0.000 N 
ATOM     10  C   UNL     1       0.002  11.494  20.681  0.00  0.00    +0.000 C 
ATOM     11  O   UNL     1       0.591  12.282  21.419  0.00  0.00    +0.000 OA
ATOM     12  C   UNL     1      -1.934  13.002  20.621  0.00  0.00    +0.000 C 
ENDROOT
BRANCH  10  13
ATOM     13  C   UNL     1       0.676  10.209  20.348  0.00  0.00    +0.000 A 
ATOM     14  C   UNL     1       0.795   9.182  21.284  0.00  0.00    +0.000 A 
ATOM     15  C   UNL     1       1.345   7.947  20.930  0.00  0.00    +0.000 A 
ATOM     16  C   UNL     1       1.880   7.722  19.652  0.00  0.00    +0.000 A 
ATOM     17  C   UNL     1       1.856   8.800  18.751  0.00  0.00    +0.000 A 
ATOM     18  C   UNL     1       1.258  10.021  19.093  0.00  0.00    +0.000 A 
ATOM     19  F   UNL     1       1.254  10.993  18.170  0.00  0.00    +0.000 F 
BRANCH  16  20
ATOM     20  C   UNL     1       2.466   6.408  19.307  0.00  0.00    +0.000 A 
ATOM     21  C   UNL     1       3.117   6.204  18.071  0.00  0.00    +0.000 A 
ATOM     22  C   UNL     1       3.626   4.953  17.713  0.00  0.00    +0.000 A 
ATOM     23  C   UNL     1       3.508   3.892  18.597  0.00  0.00    +0.000 A 
ATOM     24  F   UNL     1       3.994   2.691  18.256  0.00  0.00    +0.000 F 
ATOM     25  C   UNL     1       2.891   4.058  19.828  0.00  0.00    +0.000 A 
ATOM     26  C   UNL     1       2.371   5.309  20.179  0.00  0.00    +0.000 A 
ENDBRANCH  16  20
ENDBRANCH  10  13
BRANCH   1  28
ATOM     27  N   UNL     1      -6.502  11.863  17.338  0.00  0.00    +0.000 N 
ATOM     28  C   UNL     1      -6.182  11.224  18.506  0.00  0.00    +0.000 C 
ATOM     29  O   UNL     1      -6.493  10.053  18.677  0.00  0.00    +0.000 OA
ATOM     30  H   UNL     1      -6.953  11.313  16.619  0.00  0.00    +0.000 HD
ATOM     31  H   UNL     1      -6.185  12.793  17.103  0.00  0.00    +0.000 HD
ENDBRANCH   1  28
TORSDOF 3
ENDMDL
MODEL 9
REMARK VINA RESULT:      -8.5      1.324      1.594
REMARK  Name = 
REMARK  3 active torsions:
REMARK  status: ('A' for Active; 'I' for Inactive)
REMARK    1  A    between atoms: C_2  and  C_4
REMARK    2  A    between atoms: C_13  and  C_15
REMARK    3  A    between atoms: C_18  and  C_19
REMARK                            x       y       z     vdW  Elec       q    Type
REMARK                         _______ _______ _______ _____ _____    ______ ____
ROOT
ATOM      1  C   UNL     1      -5.355  11.979  19.685  0.00  0.00    +0.000 A 
ATOM      2  C   UNL     1      -6.076  12.274  20.854  0.00  0.00    +0.000 A 
ATOM      3  C   UNL     1      -5.444  12.810  21.976  0.00  0.00    +0.000 A 
ATOM      4  C   UNL     1      -4.069  13.023  21.958  0.00  0.00    +0.000 A 
ATOM      5  C   UNL     1      -3.325  12.710  20.821  0.00  0.00    +0.000 A 
ATOM      6  C   UNL     1      -3.966  12.207  19.666  0.00  0.00    +0.000 A 
ATOM      7  C   UNL     1      -3.056  11.953  18.486  0.00  0.00    +0.000 C 
ATOM      8  C   UNL     1      -1.848  11.164  18.992  0.00  0.00    +0.000 C 
ATOM      9  N   UNL     1      -1.136  11.794  20.117  0.00  0.00    +0.000 N 
ATOM     10  C   UNL     1       0.171  11.485  20.529  0.00  0.00    +0.000 C 
ATOM     11  O   UNL     1       0.760  12.153  21.377  0.00  0.00    +0.000 OA
ATOM     12  C   UNL     1      -1.820  12.894  20.806  0.00  0.00    +0.000 C 
ENDROOT
BRANCH  10  13
ATOM     13  C   UNL     1       0.878  10.309  19.949  0.00  0.00    +0.000 A 
ATOM     14  C   UNL     1       1.012   9.115  20.656  0.00  0.00    +0.000 A 
ATOM     15  C   UNL     1       1.594   7.991  20.064  0.00  0.00    +0.000 A 
ATOM     16  C   UNL     1       2.145   8.044  18.774  0.00  0.00    +0.000 A 
ATOM     17  C   UNL     1       2.104   9.284  18.113  0.00  0.00    +0.000 A 
ATOM     18  C   UNL     1       1.475  10.396  18.690  0.00  0.00    +0.000 A 
ATOM     19  F   UNL     1       1.456  11.536  17.986  0.00  0.00    +0.000 F 
BRANCH  16  20
ATOM     20  C   UNL     1       2.765   6.842  18.174  0.00  0.00    +0.000 A 
ATOM     21  C   UNL     1       2.144   5.578  18.270  0.00  0.00    +0.000 A 
ATOM     22  C   UNL     1       2.748   4.428  17.755  0.00  0.00    +0.000 A 
ATOM     23  C   UNL     1       3.974   4.531  17.117  0.00  0.00    +0.000 A 
ATOM     24  F   UNL     1       4.556   3.430  16.623  0.00  0.00    +0.000 F 
ATOM     25  C   UNL     1       4.606   5.758  16.987  0.00  0.00    +0.000 A 
ATOM     26  C   UNL     1       4.006   6.906  17.516  0.00  0.00    +0.000 A 
ENDBRANCH  16  20
ENDBRANCH  10  13
BRANCH   1  28
ATOM     27  N   UNL     1      -6.552  10.069  18.753  0.00  0.00    +0.000 N 
ATOM     28  C   UNL     1      -6.081  11.339  18.548  0.00  0.00    +0.000 C 
ATOM     29  O   UNL     1      -6.248  11.893  17.470  0.00  0.00    +0.000 OA
ATOM     30  H   UNL     1      -7.077   9.643  18.002  0.00  0.00    +0.000 HD
ATOM     31  H   UNL     1      -6.531   9.603  19.649  0.00  0.00    +0.000 HD
ENDBRANCH   1  28
TORSDOF 3
ENDMDL
