MODEL 1
REMARK VINA RESULT:      -9.0      0.000      0.000
REMARK  Name = 
REMARK  5 active torsions:
REMARK  status: ('A' for Active; 'I' for Inactive)
REMARK    1  A    between atoms: C_1  and  C_2
REMARK    2  A    between atoms: C_2  and  C_3
REMARK    3  A    between atoms: C_6  and  C_8
REMARK    4  A    between atoms: C_12  and  C_13
REMARK    5  A    between atoms: N_15  and  C_16
REMARK                            x       y       z     vdW  Elec       q    Type
REMARK                         _______ _______ _______ _____ _____    ______ ____
ROOT
ATOM      1  C   UNL     1       2.575   3.103  20.961  0.00  0.00    +0.000 C 
ATOM      2  C   UNL     1       2.250   4.374  20.162  0.00  0.00    +0.000 C 
ATOM      3  C   UNL     1       1.433   3.980  18.920  0.00  0.00    +0.000 C 
ATOM      4  C   UNL     1       3.565   5.037  19.778  0.00  0.00    +0.000 C 
ATOM      5  N   UNL     1       3.373   6.292  19.038  0.00  0.00    +0.000 N 
ATOM      6  C   UNL     1       4.097   6.646  17.881  0.00  0.00    +0.000 C 
ATOM      7  O   UNL     1       3.846   7.610  17.157  0.00  0.00    +0.000 OA
ATOM      8  C   UNL     1       2.324   7.108  19.609  0.00  0.00    +0.000 A 
ATOM      9  C   UNL     1       2.107   8.444  19.249  0.00  0.00    +0.000 A 
ATOM     10  C   UNL     1       1.098   9.205  19.856  0.00  0.00    +0.000 A 
ATOM     11  C   UNL     1       0.294   8.650  20.845  0.00  0.00    +0.000 A 
ATOM     12  C   UNL     1       0.484   7.325  21.219  0.00  0.00    +0.000 A 
ATOM     13  C   UNL     1       1.473   6.556  20.596  0.00  0.00    +0.000 A 
ATOM     14  O   UNL     1       1.496   5.242  21.013  0.00  0.00    +0.000 OA
ENDROOT
BRANCH   6  15
ATOM     15  C   UNL     1       5.215   5.774  17.392  0.00  0.00    +0.000 A 
ATOM     16  C   UNL     1       6.198   5.363  18.305  0.00  0.00    +0.000 A 
ATOM     17  C   UNL     1       7.318   4.648  17.869  0.00  0.00    +0.000 A 
ATOM     18  C   UNL     1       7.486   4.377  16.512  0.00  0.00    +0.000 A 
ATOM     19  C   UNL     1       6.488   4.742  15.605  0.00  0.00    +0.000 A 
ATOM     20  C   UNL     1       5.324   5.366  16.062  0.00  0.00    +0.000 A 
BRANCH  19  21
ATOM     21  C   UNL     1       6.655   4.598  14.134  0.00  0.00    +0.000 C 
ATOM     22  O   UNL     1       7.404   5.353  13.529  0.00  0.00    +0.000 OA
ATOM     23  N   UNL     1       5.920   3.589  13.546  0.00  0.00    +0.000 N 
ATOM     24  H   UNL     1       5.221   3.106  14.094  0.00  0.00    +0.000 HD
BRANCH  23  25
ATOM     25  C   UNL     1       5.955   3.347  12.143  0.00  0.00    +0.000 C 
ATOM     26  C   UNL     1       4.698   2.978  11.409  0.00  0.00    +0.000 C 
ATOM     27  C   UNL     1       5.775   1.954  11.607  0.00  0.00    +0.000 C 
ENDBRANCH  23  25
ENDBRANCH  19  21
ENDBRANCH   6  15
TORSDOF 3
ENDMDL
MODEL 2
REMARK VINA RESULT:      -8.4      3.155      7.465
REMARK  Name = 
REMARK  5 active torsions:
REMARK  status: ('A' for Active; 'I' for Inactive)
REMARK    1  A    between atoms: C_1  and  C_2
REMARK    2  A    between atoms: C_2  and  C_3
REMARK    3  A    between atoms: C_6  and  C_8
REMARK    4  A    between atoms: C_12  and  C_13
REMARK    5  A    between atoms: N_15  and  C_16
REMARK                            x       y       z     vdW  Elec       q    Type
REMARK                         _______ _______ _______ _____ _____    ______ ____
ROOT
ATOM      1  C   UNL     1       1.069   3.476  19.819  0.00  0.00    +0.000 C 
ATOM      2  C   UNL     1       2.257   4.282  19.275  0.00  0.00    +0.000 C 
ATOM      3  C   UNL     1       3.219   4.586  20.434  0.00  0.00    +0.000 C 
ATOM      4  C   UNL     1       1.712   5.559  18.651  0.00  0.00    +0.000 C 
ATOM      5  N   UNL     1       2.766   6.395  18.058  0.00  0.00    +0.000 N 
ATOM      6  C   UNL     1       2.854   7.793  18.228  0.00  0.00    +0.000 C 
ATOM      7  O   UNL     1       3.808   8.488  17.878  0.00  0.00    +0.000 OA
ATOM      8  C   UNL     1       3.729   5.615  17.315  0.00  0.00    +0.000 A 
ATOM      9  C   UNL     1       4.682   6.182  16.459  0.00  0.00    +0.000 A 
ATOM     10  C   UNL     1       5.573   5.381  15.732  0.00  0.00    +0.000 A 
ATOM     11  C   UNL     1       5.522   3.995  15.834  0.00  0.00    +0.000 A 
ATOM     12  C   UNL     1       4.588   3.405  16.679  0.00  0.00    +0.000 A 
ATOM     13  C   UNL     1       3.716   4.204  17.426  0.00  0.00    +0.000 A 
ATOM     14  O   UNL     1       2.899   3.486  18.274  0.00  0.00    +0.000 OA
ENDROOT
BRANCH   6  15
ATOM     15  C   UNL     1       1.777   8.536  18.960  0.00  0.00    +0.000 A 
ATOM     16  C   UNL     1       1.546   8.233  20.310  0.00  0.00    +0.000 A 
ATOM     17  C   UNL     1       0.478   8.817  20.998  0.00  0.00    +0.000 A 
ATOM     18  C   UNL     1      -0.395   9.675  20.328  0.00  0.00    +0.000 A 
ATOM     19  C   UNL     1      -0.142  10.018  18.997  0.00  0.00    +0.000 A 
ATOM     20  C   UNL     1       0.985   9.510  18.348  0.00  0.00    +0.000 A 
BRANCH  19  21
ATOM     21  C   UNL     1      -1.094  10.823  18.187  0.00  0.00    +0.000 C 
ATOM     22  O   UNL     1      -1.464  11.917  18.591  0.00  0.00    +0.000 OA
ATOM     23  N   UNL     1      -1.504  10.248  17.001  0.00  0.00    +0.000 N 
ATOM     24  H   UNL     1      -1.262   9.285  16.812  0.00  0.00    +0.000 HD
BRANCH  23  25
ATOM     25  C   UNL     1      -2.433  10.888  16.133  0.00  0.00    +0.000 C 
ATOM     26  C   UNL     1      -3.894  10.544  16.205  0.00  0.00    +0.000 C 
ATOM     27  C   UNL     1      -3.085  10.119  15.016  0.00  0.00    +0.000 C 
ENDBRANCH  23  25
ENDBRANCH  19  21
ENDBRANCH   6  15
TORSDOF 3
ENDMDL
MODEL 3
REMARK VINA RESULT:      -8.2      4.215      7.057
REMARK  Name = 
REMARK  5 active torsions:
REMARK  status: ('A' for Active; 'I' for Inactive)
REMARK    1  A    between atoms: C_1  and  C_2
REMARK    2  A    between atoms: C_2  and  C_3
REMARK    3  A    between atoms: C_6  and  C_8
REMARK    4  A    between atoms: C_12  and  C_13
REMARK    5  A    between atoms: N_15  and  C_16
REMARK                            x       y       z     vdW  Elec       q    Type
REMARK                         _______ _______ _______ _____ _____    ______ ____
ROOT
ATOM      1  C   UNL     1      -2.376  11.337  17.080  0.00  0.00    +0.000 C 
ATOM      2  C   UNL     1      -1.736  11.711  18.425  0.00  0.00    +0.000 C 
ATOM      3  C   UNL     1      -0.619  12.736  18.172  0.00  0.00    +0.000 C 
ATOM      4  C   UNL     1      -1.193  10.437  19.056  0.00  0.00    +0.000 C 
ATOM      5  N   UNL     1      -0.589  10.671  20.376  0.00  0.00    +0.000 N 
ATOM      6  C   UNL     1       0.642  10.122  20.790  0.00  0.00    +0.000 C 
ATOM      7  O   UNL     1       1.242  10.428  21.820  0.00  0.00    +0.000 OA
ATOM      8  C   UNL     1      -1.381  11.567  21.189  0.00  0.00    +0.000 A 
ATOM      9  C   UNL     1      -1.161  11.760  22.558  0.00  0.00    +0.000 A 
ATOM     10  C   UNL     1      -1.979  12.614  23.312  0.00  0.00    +0.000 A 
ATOM     11  C   UNL     1      -3.042  13.282  22.715  0.00  0.00    +0.000 A 
ATOM     12  C   UNL     1      -3.282  13.111  21.356  0.00  0.00    +0.000 A 
ATOM     13  C   UNL     1      -2.451  12.281  20.597  0.00  0.00    +0.000 A 
ATOM     14  O   UNL     1      -2.761  12.268  19.253  0.00  0.00    +0.000 OA
ENDROOT
BRANCH   6  15
ATOM     15  C   UNL     1       1.370   9.148  19.912  0.00  0.00    +0.000 A 
ATOM     16  C   UNL     1       1.733   9.550  18.616  0.00  0.00    +0.000 A 
ATOM     17  C   UNL     1       2.308   8.638  17.725  0.00  0.00    +0.000 A 
ATOM     18  C   UNL     1       2.484   7.308  18.107  0.00  0.00    +0.000 A 
ATOM     19  C   UNL     1       2.169   6.915  19.410  0.00  0.00    +0.000 A 
ATOM     20  C   UNL     1       1.691   7.855  20.326  0.00  0.00    +0.000 A 
BRANCH  19  21
ATOM     21  C   UNL     1       2.214   5.494  19.846  0.00  0.00    +0.000 C 
ATOM     22  O   UNL     1       2.122   5.218  21.034  0.00  0.00    +0.000 OA
ATOM     23  N   UNL     1       2.366   4.564  18.838  0.00  0.00    +0.000 N 
ATOM     24  H   UNL     1       2.575   4.883  17.902  0.00  0.00    +0.000 HD
BRANCH  23  25
ATOM     25  C   UNL     1       2.452   3.168  19.103  0.00  0.00    +0.000 C 
ATOM     26  C   UNL     1       3.763   2.450  18.951  0.00  0.00    +0.000 C 
ATOM     27  C   UNL     1       2.652   2.190  17.978  0.00  0.00    +0.000 C 
ENDBRANCH  23  25
ENDBRANCH  19  21
ENDBRANCH   6  15
TORSDOF 3
ENDMDL
MODEL 4
REMARK VINA RESULT:      -8.0      1.838      7.830
REMARK  Name = 
REMARK  5 active torsions:
REMARK  status: ('A' for Active; 'I' for Inactive)
REMARK    1  A    between atoms: C_1  and  C_2
REMARK    2  A    between atoms: C_2  and  C_3
REMARK    3  A    between atoms: C_6  and  C_8
REMARK    4  A    between atoms: C_12  and  C_13
REMARK    5  A    between atoms: N_15  and  C_16
REMARK                            x       y       z     vdW  Elec       q    Type
REMARK                         _______ _______ _______ _____ _____    ______ ____
ROOT
ATOM      1  C   UNL     1       7.830   6.912  18.040  0.00  0.00    +0.000 C 
ATOM      2  C   UNL     1       6.902   6.300  16.981  0.00  0.00    +0.000 C 
ATOM      3  C   UNL     1       5.767   7.293  16.686  0.00  0.00    +0.000 C 
ATOM      4  C   UNL     1       6.365   4.986  17.530  0.00  0.00    +0.000 C 
ATOM      5  N   UNL     1       5.491   4.287  16.577  0.00  0.00    +0.000 N 
ATOM      6  C   UNL     1       4.259   3.695  16.923  0.00  0.00    +0.000 C 
ATOM      7  O   UNL     1       3.439   3.247  16.121  0.00  0.00    +0.000 OA
ATOM      8  C   UNL     1       6.017   4.315  15.230  0.00  0.00    +0.000 A 
ATOM      9  C   UNL     1       5.511   3.526  14.190  0.00  0.00    +0.000 A 
ATOM     10  C   UNL     1       6.078   3.562  12.909  0.00  0.00    +0.000 A 
ATOM     11  C   UNL     1       7.172   4.379  12.643  0.00  0.00    +0.000 A 
ATOM     12  C   UNL     1       7.693   5.176  13.656  0.00  0.00    +0.000 A 
ATOM     13  C   UNL     1       7.112   5.161  14.928  0.00  0.00    +0.000 A 
ATOM     14  O   UNL     1       7.684   6.056  15.808  0.00  0.00    +0.000 OA
ENDROOT
BRANCH   6  15
ATOM     15  C   UNL     1       3.816   3.652  18.355  0.00  0.00    +0.000 A 
ATOM     16  C   UNL     1       4.197   2.556  19.146  0.00  0.00    +0.000 A 
ATOM     17  C   UNL     1       3.711   2.418  20.450  0.00  0.00    +0.000 A 
ATOM     18  C   UNL     1       2.806   3.350  20.958  0.00  0.00    +0.000 A 
ATOM     19  C   UNL     1       2.461   4.467  20.193  0.00  0.00    +0.000 A 
ATOM     20  C   UNL     1       3.030   4.651  18.930  0.00  0.00    +0.000 A 
BRANCH  19  21
ATOM     21  C   UNL     1       1.412   5.431  20.617  0.00  0.00    +0.000 C 
ATOM     22  O   UNL     1       0.247   5.067  20.702  0.00  0.00    +0.000 OA
ATOM     23  N   UNL     1       1.851   6.712  20.888  0.00  0.00    +0.000 N 
ATOM     24  H   UNL     1       2.803   6.964  20.658  0.00  0.00    +0.000 HD
BRANCH  23  25
ATOM     25  C   UNL     1       0.960   7.750  21.280  0.00  0.00    +0.000 C 
ATOM     26  C   UNL     1       0.996   9.079  20.580  0.00  0.00    +0.000 C 
ATOM     27  C   UNL     1       1.477   8.967  21.997  0.00  0.00    +0.000 C 
ENDBRANCH  23  25
ENDBRANCH  19  21
ENDBRANCH   6  15
TORSDOF 3
ENDMDL
MODEL 5
REMARK VINA RESULT:      -7.9      0.944      1.029
REMARK  Name = 
REMARK  5 active torsions:
REMARK  status: ('A' for Active; 'I' for Inactive)
REMARK    1  A    between atoms: C_1  and  C_2
REMARK    2  A    between atoms: C_2  and  C_3
REMARK    3  A    between atoms: C_6  and  C_8
REMARK    4  A    between atoms: C_12  and  C_13
REMARK    5  A    between atoms: N_15  and  C_16
REMARK                            x       y       z     vdW  Elec       q    Type
REMARK                         _______ _______ _______ _____ _____    ______ ____
ROOT
ATOM      1  C   UNL     1       2.883   2.912  20.628  0.00  0.00    +0.000 C 
ATOM      2  C   UNL     1       2.460   4.211  19.925  0.00  0.00    +0.000 C 
ATOM      3  C   UNL     1       1.498   3.860  18.779  0.00  0.00    +0.000 C 
ATOM      4  C   UNL     1       3.718   4.896  19.409  0.00  0.00    +0.000 C 
ATOM      5  N   UNL     1       3.435   6.178  18.748  0.00  0.00    +0.000 N 
ATOM      6  C   UNL     1       4.010   6.581  17.525  0.00  0.00    +0.000 C 
ATOM      7  O   UNL     1       3.671   7.571  16.876  0.00  0.00    +0.000 OA
ATOM      8  C   UNL     1       2.463   6.965  19.475  0.00  0.00    +0.000 A 
ATOM      9  C   UNL     1       2.202   8.312  19.197  0.00  0.00    +0.000 A 
ATOM     10  C   UNL     1       1.274   9.043  19.953  0.00  0.00    +0.000 A 
ATOM     11  C   UNL     1       0.598   8.445  21.011  0.00  0.00    +0.000 A 
ATOM     12  C   UNL     1       0.835   7.108  21.307  0.00  0.00    +0.000 A 
ATOM     13  C   UNL     1       1.740   6.369  20.536  0.00  0.00    +0.000 A 
ATOM     14  O   UNL     1       1.816   5.040  20.896  0.00  0.00    +0.000 OA
ENDROOT
BRANCH   6  15
ATOM     15  C   UNL     1       5.060   5.736  16.869  0.00  0.00    +0.000 A 
ATOM     16  C   UNL     1       6.333   5.666  17.456  0.00  0.00    +0.000 A 
ATOM     17  C   UNL     1       7.374   4.985  16.816  0.00  0.00    +0.000 A 
ATOM     18  C   UNL     1       7.162   4.406  15.565  0.00  0.00    +0.000 A 
ATOM     19  C   UNL     1       5.885   4.432  14.999  0.00  0.00    +0.000 A 
ATOM     20  C   UNL     1       4.827   5.025  15.690  0.00  0.00    +0.000 A 
BRANCH  19  21
ATOM     21  C   UNL     1       5.616   3.947  13.619  0.00  0.00    +0.000 C 
ATOM     22  O   UNL     1       4.488   4.033  13.152  0.00  0.00    +0.000 OA
ATOM     23  N   UNL     1       6.699   3.414  12.950  0.00  0.00    +0.000 N 
ATOM     24  H   UNL     1       7.558   3.252  13.458  0.00  0.00    +0.000 HD
BRANCH  23  25
ATOM     25  C   UNL     1       6.590   2.885  11.633  0.00  0.00    +0.000 C 
ATOM     26  C   UNL     1       6.037   1.505  11.417  0.00  0.00    +0.000 C 
ATOM     27  C   UNL     1       7.494   1.772  11.182  0.00  0.00    +0.000 C 
ENDBRANCH  23  25
ENDBRANCH  19  21
ENDBRANCH   6  15
TORSDOF 3
ENDMDL
MODEL 6
REMARK VINA RESULT:      -7.9      1.800      2.484
REMARK  Name = 
REMARK  5 active torsions:
REMARK  status: ('A' for Active; 'I' for Inactive)
REMARK    1  A    between atoms: C_1  and  C_2
REMARK    2  A    between atoms: C_2  and  C_3
REMARK    3  A    between atoms: C_6  and  C_8
REMARK    4  A    between atoms: C_12  and  C_13
REMARK    5  A    between atoms: N_15  and  C_16
REMARK                            x       y       z     vdW  Elec       q    Type
REMARK                         _______ _______ _______ _____ _____    ______ ____
ROOT
ATOM      1  C   UNL     1       3.780   1.371  18.604  0.00  0.00    +0.000 C 
ATOM      2  C   UNL     1       3.291   2.805  18.352  0.00  0.00    +0.000 C 
ATOM      3  C   UNL     1       2.223   2.774  17.247  0.00  0.00    +0.000 C 
ATOM      4  C   UNL     1       4.493   3.645  17.944  0.00  0.00    +0.000 C 
ATOM      5  N   UNL     1       4.147   5.055  17.715  0.00  0.00    +0.000 N 
ATOM      6  C   UNL     1       4.602   5.811  16.614  0.00  0.00    +0.000 C 
ATOM      7  O   UNL     1       4.202   6.937  16.316  0.00  0.00    +0.000 OA
ATOM      8  C   UNL     1       3.249   5.569  18.725  0.00  0.00    +0.000 A 
ATOM      9  C   UNL     1       2.962   6.932  18.877  0.00  0.00    +0.000 A 
ATOM     10  C   UNL     1       2.112   7.385  19.895  0.00  0.00    +0.000 A 
ATOM     11  C   UNL     1       1.541   6.487  20.790  0.00  0.00    +0.000 A 
ATOM     12  C   UNL     1       1.805   5.129  20.661  0.00  0.00    +0.000 A 
ATOM     13  C   UNL     1       2.632   4.672  19.629  0.00  0.00    +0.000 A 
ATOM     14  O   UNL     1       2.744   3.298  19.577  0.00  0.00    +0.000 OA
ENDROOT
BRANCH   6  15
ATOM     15  C   UNL     1       5.585   5.223  15.646  0.00  0.00    +0.000 A 
ATOM     16  C   UNL     1       6.938   5.575  15.762  0.00  0.00    +0.000 A 
ATOM     17  C   UNL     1       7.869   5.143  14.812  0.00  0.00    +0.000 A 
ATOM     18  C   UNL     1       7.446   4.392  13.715  0.00  0.00    +0.000 A 
ATOM     19  C   UNL     1       6.109   3.998  13.621  0.00  0.00    +0.000 A 
ATOM     20  C   UNL     1       5.206   4.348  14.627  0.00  0.00    +0.000 A 
BRANCH  19  21
ATOM     21  C   UNL     1       5.564   3.307  12.422  0.00  0.00    +0.000 C 
ATOM     22  O   UNL     1       5.963   2.189  12.130  0.00  0.00    +0.000 OA
ATOM     23  N   UNL     1       4.619   4.012  11.704  0.00  0.00    +0.000 N 
ATOM     24  H   UNL     1       4.451   4.982  11.933  0.00  0.00    +0.000 HD
BRANCH  23  25
ATOM     25  C   UNL     1       4.027   3.491  10.519  0.00  0.00    +0.000 C 
ATOM     26  C   UNL     1       2.956   4.267   9.806  0.00  0.00    +0.000 C 
ATOM     27  C   UNL     1       2.605   3.001  10.530  0.00  0.00    +0.000 C 
ENDBRANCH  23  25
ENDBRANCH  19  21
ENDBRANCH   6  15
TORSDOF 3
ENDMDL
MODEL 7
REMARK VINA RESULT:      -7.7      1.809      7.669
REMARK  Name = 
REMARK  5 active torsions:
REMARK  status: ('A' for Active; 'I' for Inactive)
REMARK    1  A    between atoms: C_1  and  C_2
REMARK    2  A    between atoms: C_2  and  C_3
REMARK    3  A    between atoms: C_6  and  C_8
REMARK    4  A    between atoms: C_12  and  C_13
REMARK    5  A    between atoms: N_15  and  C_16
REMARK                            x       y       z     vdW  Elec       q    Type
REMARK                         _______ _______ _______ _____ _____    ______ ____
ROOT
ATOM      1  C   UNL     1       7.808   7.014  18.229  0.00  0.00    +0.000 C 
ATOM      2  C   UNL     1       6.834   6.470  17.174  0.00  0.00    +0.000 C 
ATOM      3  C   UNL     1       5.914   7.613  16.717  0.00  0.00    +0.000 C 
ATOM      4  C   UNL     1       6.042   5.335  17.806  0.00  0.00    +0.000 C 
ATOM      5  N   UNL     1       5.100   4.708  16.868  0.00  0.00    +0.000 N 
ATOM      6  C   UNL     1       3.766   4.381  17.189  0.00  0.00    +0.000 C 
ATOM      7  O   UNL     1       2.916   4.007  16.381  0.00  0.00    +0.000 OA
ATOM      8  C   UNL     1       5.683   4.505  15.561  0.00  0.00    +0.000 A 
ATOM      9  C   UNL     1       5.090   3.716  14.568  0.00  0.00    +0.000 A 
ATOM     10  C   UNL     1       5.712   3.520  13.327  0.00  0.00    +0.000 A 
ATOM     11  C   UNL     1       6.947   4.099  13.058  0.00  0.00    +0.000 A 
ATOM     12  C   UNL     1       7.558   4.891  14.024  0.00  0.00    +0.000 A 
ATOM     13  C   UNL     1       6.926   5.109  15.253  0.00  0.00    +0.000 A 
ATOM     14  O   UNL     1       7.611   5.973  16.081  0.00  0.00    +0.000 OA
ENDROOT
BRANCH   6  15
ATOM     15  C   UNL     1       3.257   4.563  18.588  0.00  0.00    +0.000 A 
ATOM     16  C   UNL     1       3.181   3.442  19.429  0.00  0.00    +0.000 A 
ATOM     17  C   UNL     1       2.605   3.545  20.699  0.00  0.00    +0.000 A 
ATOM     18  C   UNL     1       2.062   4.758  21.121  0.00  0.00    +0.000 A 
ATOM     19  C   UNL     1       2.179   5.888  20.308  0.00  0.00    +0.000 A 
ATOM     20  C   UNL     1       2.846   5.801  19.084  0.00  0.00    +0.000 A 
BRANCH  19  21
ATOM     21  C   UNL     1       1.517   7.179  20.637  0.00  0.00    +0.000 C 
ATOM     22  O   UNL     1       0.801   7.262  21.625  0.00  0.00    +0.000 OA
ATOM     23  N   UNL     1       1.770   8.219  19.765  0.00  0.00    +0.000 N 
ATOM     24  H   UNL     1       2.257   8.028  18.900  0.00  0.00    +0.000 HD
BRANCH  23  25
ATOM     25  C   UNL     1       1.186   9.506  19.935  0.00  0.00    +0.000 C 
ATOM     26  C   UNL     1      -0.168   9.803  19.355  0.00  0.00    +0.000 C 
ATOM     27  C   UNL     1       1.054  10.441  18.764  0.00  0.00    +0.000 C 
ENDBRANCH  23  25
ENDBRANCH  19  21
ENDBRANCH   6  15
TORSDOF 3
ENDMDL
MODEL 8
REMARK VINA RESULT:      -7.6      2.866      8.593
REMARK  Name = 
REMARK  5 active torsions:
REMARK  status: ('A' for Active; 'I' for Inactive)
REMARK    1  A    between atoms: C_1  and  C_2
REMARK    2  A    between atoms: C_2  and  C_3
REMARK    3  A    between atoms: C_6  and  C_8
REMARK    4  A    between atoms: C_12  and  C_13
REMARK    5  A    between atoms: N_15  and  C_16
REMARK                            x       y       z     vdW  Elec       q    Type
REMARK                         _______ _______ _______ _____ _____    ______ ____
ROOT
ATOM      1  C   UNL     1       1.066   3.596  19.243  0.00  0.00    +0.000 C 
ATOM      2  C   UNL     1       2.286   4.484  18.954  0.00  0.00    +0.000 C 
ATOM      3  C   UNL     1       2.928   4.891  20.291  0.00  0.00    +0.000 C 
ATOM      4  C   UNL     1       1.808   5.699  18.172  0.00  0.00    +0.000 C 
ATOM      5  N   UNL     1       2.906   6.604  17.803  0.00  0.00    +0.000 N 
ATOM      6  C   UNL     1       2.850   8.007  17.932  0.00  0.00    +0.000 C 
ATOM      7  O   UNL     1       3.804   8.770  17.782  0.00  0.00    +0.000 OA
ATOM      8  C   UNL     1       4.071   5.888  17.333  0.00  0.00    +0.000 A 
ATOM      9  C   UNL     1       5.152   6.511  16.697  0.00  0.00    +0.000 A 
ATOM     10  C   UNL     1       6.244   5.769  16.227  0.00  0.00    +0.000 A 
ATOM     11  C   UNL     1       6.272   4.386  16.371  0.00  0.00    +0.000 A 
ATOM     12  C   UNL     1       5.215   3.741  17.001  0.00  0.00    +0.000 A 
ATOM     13  C   UNL     1       4.136   4.483  17.495  0.00  0.00    +0.000 A 
ATOM     14  O   UNL     1       3.200   3.721  18.162  0.00  0.00    +0.000 OA
ENDROOT
BRANCH   6  15
ATOM     15  C   UNL     1       1.580   8.677  18.366  0.00  0.00    +0.000 A 
ATOM     16  C   UNL     1       0.641   9.040  17.387  0.00  0.00    +0.000 A 
ATOM     17  C   UNL     1      -0.501   9.768  17.734  0.00  0.00    +0.000 A 
ATOM     18  C   UNL     1      -0.691  10.178  19.054  0.00  0.00    +0.000 A 
ATOM     19  C   UNL     1       0.215   9.779  20.040  0.00  0.00    +0.000 A 
ATOM     20  C   UNL     1       1.299   8.964  19.702  0.00  0.00    +0.000 A 
BRANCH  19  21
ATOM     21  C   UNL     1       0.144  10.279  21.438  0.00  0.00    +0.000 C 
ATOM     22  O   UNL     1       1.016   9.973  22.240  0.00  0.00    +0.000 OA
ATOM     23  N   UNL     1      -0.944  11.076  21.733  0.00  0.00    +0.000 N 
ATOM     24  H   UNL     1      -1.687  11.163  21.054  0.00  0.00    +0.000 HD
BRANCH  23  25
ATOM     25  C   UNL     1      -1.161  11.607  23.036  0.00  0.00    +0.000 C 
ATOM     26  C   UNL     1      -2.527  12.089  23.436  0.00  0.00    +0.000 C 
ATOM     27  C   UNL     1      -1.418  13.076  23.225  0.00  0.00    +0.000 C 
ENDBRANCH  23  25
ENDBRANCH  19  21
ENDBRANCH   6  15
TORSDOF 3
ENDMDL
MODEL 9
REMARK VINA RESULT:      -7.5      3.156      7.922
REMARK  Name = 
REMARK  5 active torsions:
REMARK  status: ('A' for Active; 'I' for Inactive)
REMARK    1  A    between atoms: C_1  and  C_2
REMARK    2  A    between atoms: C_2  and  C_3
REMARK    3  A    between atoms: C_6  and  C_8
REMARK    4  A    between atoms: C_12  and  C_13
REMARK    5  A    between atoms: N_15  and  C_16
REMARK                            x       y       z     vdW  Elec       q    Type
REMARK                         _______ _______ _______ _____ _____    ______ ____
ROOT
ATOM      1  C   UNL     1       1.085   3.510  19.755  0.00  0.00    +0.000 C 
ATOM      2  C   UNL     1       2.287   4.317  19.243  0.00  0.00    +0.000 C 
ATOM      3  C   UNL     1       3.200   4.651  20.433  0.00  0.00    +0.000 C 
ATOM      4  C   UNL     1       1.756   5.578  18.576  0.00  0.00    +0.000 C 
ATOM      5  N   UNL     1       2.824   6.413  18.009  0.00  0.00    +0.000 N 
ATOM      6  C   UNL     1       2.893   7.814  18.157  0.00  0.00    +0.000 C 
ATOM      7  O   UNL     1       3.854   8.513  17.831  0.00  0.00    +0.000 OA
ATOM      8  C   UNL     1       3.823   5.629  17.318  0.00  0.00    +0.000 A 
ATOM      9  C   UNL     1       4.804   6.190  16.490  0.00  0.00    +0.000 A 
ATOM     10  C   UNL     1       5.730   5.385  15.813  0.00  0.00    +0.000 A 
ATOM     11  C   UNL     1       5.687   4.000  15.939  0.00  0.00    +0.000 A 
ATOM     12  C   UNL     1       4.726   3.417  16.756  0.00  0.00    +0.000 A 
ATOM     13  C   UNL     1       3.818   4.220  17.454  0.00  0.00    +0.000 A 
ATOM     14  O   UNL     1       2.975   3.510  18.283  0.00  0.00    +0.000 OA
ENDROOT
BRANCH   6  15
ATOM     15  C   UNL     1       1.781   8.560  18.832  0.00  0.00    +0.000 A 
ATOM     16  C   UNL     1       1.727   8.565  20.234  0.00  0.00    +0.000 A 
ATOM     17  C   UNL     1       0.646   9.149  20.901  0.00  0.00    +0.000 A 
ATOM     18  C   UNL     1      -0.411   9.693  20.171  0.00  0.00    +0.000 A 
ATOM     19  C   UNL     1      -0.340   9.734  18.776  0.00  0.00    +0.000 A 
ATOM     20  C   UNL     1       0.791   9.241  18.121  0.00  0.00    +0.000 A 
BRANCH  19  21
ATOM     21  C   UNL     1      -1.478  10.183  17.933  0.00  0.00    +0.000 C 
ATOM     22  O   UNL     1      -1.536   9.848  16.758  0.00  0.00    +0.000 OA
ATOM     23  N   UNL     1      -2.414  10.977  18.565  0.00  0.00    +0.000 N 
ATOM     24  H   UNL     1      -2.218  11.322  19.495  0.00  0.00    +0.000 HD
BRANCH  23  25
ATOM     25  C   UNL     1      -3.544  11.505  17.880  0.00  0.00    +0.000 C 
ATOM     26  C   UNL     1      -4.743  11.977  18.653  0.00  0.00    +0.000 C 
ATOM     27  C   UNL     1      -4.832  10.730  17.826  0.00  0.00    +0.000 C 
ENDBRANCH  23  25
ENDBRANCH  19  21
ENDBRANCH   6  15
TORSDOF 3
ENDMDL
