MODEL 1
REMARK VINA RESULT:      -8.5      0.000      0.000
REMARK  Name = 
REMARK  7 active torsions:
REMARK  status: ('A' for Active; 'I' for Inactive)
REMARK    1  A    between atoms: C_1  and  C_2
REMARK    2  A    between atoms: C_2  and  C_3
REMARK    3  A    between atoms: C_3  and  C_4
REMARK    4  A    between atoms: N_14  and  C_15
REMARK    5  A    between atoms: C_15  and  C_16
REMARK    6  A    between atoms: C_23  and  C_24
REMARK    7  A    between atoms: C_25  and  C_26
REMARK                            x       y       z     vdW  Elec       q    Type
REMARK                         _______ _______ _______ _____ _____    ______ ____
ROOT
ATOM      1  C   UNL     1       0.437  10.160  19.076  0.00  0.00    +0.000 C 
ATOM      2  N   UNL     1       1.125   9.842  17.847  0.00  0.00    +0.000 N 
ATOM      3  C   UNL     1       1.977   8.777  17.970  0.00  0.00    +0.000 C 
ATOM      4  O   UNL     1       2.695   8.413  17.056  0.00  0.00    +0.000 OA
ATOM      5  N   UNL     1       1.882   8.271  19.226  0.00  0.00    +0.000 N 
ATOM      6  C   UNL     1       1.032   9.044  19.977  0.00  0.00    +0.000 C 
ATOM      7  O   UNL     1       0.774   8.870  21.163  0.00  0.00    +0.000 OA
ATOM      8  H   UNL     1       1.033  10.342  16.973  0.00  0.00    +0.000 HD
ENDROOT
BRANCH   1   9
ATOM      9  C   UNL     1       0.807  11.555  19.600  0.00  0.00    +0.000 A 
ATOM     10  C   UNL     1       1.812  12.307  18.958  0.00  0.00    +0.000 A 
ATOM     11  C   UNL     1       2.162  13.583  19.409  0.00  0.00    +0.000 A 
ATOM     12  C   UNL     1       1.510  14.129  20.507  0.00  0.00    +0.000 A 
ATOM     13  F   UNL     1       1.839  15.349  20.935  0.00  0.00    +0.000 F 
ATOM     14  C   UNL     1       0.509  13.420  21.157  0.00  0.00    +0.000 A 
ATOM     15  C   UNL     1       0.157  12.143  20.706  0.00  0.00    +0.000 A 
ENDBRANCH   1   9
BRANCH   1  17
ATOM     16  C   UNL     1      -1.559  10.016  17.440  0.00  0.00    +0.000 C 
ATOM     17  C   UNL     1      -1.083   9.968  18.893  0.00  0.00    +0.000 C 
ENDBRANCH   1  17
BRANCH   5  18
ATOM     18  C   UNL     1       2.666   7.180  19.762  0.00  0.00    +0.000 C 
BRANCH  18  19
ATOM     19  C   UNL     1       2.682   5.991  18.824  0.00  0.00    +0.000 A 
ATOM     20  C   UNL     1       1.612   5.188  18.710  0.00  0.00    +0.000 A 
ATOM     21  C   UNL     1       1.579   3.972  17.881  0.00  0.00    +0.000 A 
ATOM     22  O   UNL     1       0.563   3.289  17.808  0.00  0.00    +0.000 OA
ATOM     23  O   UNL     1       2.745   3.634  17.220  0.00  0.00    +0.000 OA
ATOM     24  C   UNL     1       3.869   4.481  17.265  0.00  0.00    +0.000 A 
ATOM     25  C   UNL     1       4.947   4.115  16.454  0.00  0.00    +0.000 A 
ATOM     26  C   UNL     1       6.074   4.942  16.363  0.00  0.00    +0.000 A 
ATOM     27  C   UNL     1       7.174   4.587  15.403  0.00  0.00    +0.000 C 
ATOM     28  C   UNL     1       6.117   6.109  17.144  0.00  0.00    +0.000 A 
ATOM     29  C   UNL     1       7.238   7.113  17.082  0.00  0.00    +0.000 C 
ATOM     30  C   UNL     1       5.045   6.405  18.009  0.00  0.00    +0.000 A 
ATOM     31  C   UNL     1       3.882   5.632  18.048  0.00  0.00    +0.000 A 
ENDBRANCH  18  19
ENDBRANCH   5  18
TORSDOF 4
ENDMDL
MODEL 2
REMARK VINA RESULT:      -8.5      2.965      5.210
REMARK  Name = 
REMARK  7 active torsions:
REMARK  status: ('A' for Active; 'I' for Inactive)
REMARK    1  A    between atoms: C_1  and  C_2
REMARK    2  A    between atoms: C_2  and  C_3
REMARK    3  A    between atoms: C_3  and  C_4
REMARK    4  A    between atoms: N_14  and  C_15
REMARK    5  A    between atoms: C_15  and  C_16
REMARK    6  A    between atoms: C_23  and  C_24
REMARK    7  A    between atoms: C_25  and  C_26
REMARK                            x       y       z     vdW  Elec       q    Type
REMARK                         _______ _______ _______ _____ _____    ______ ____
ROOT
ATOM      1  C   UNL     1       2.161   5.224  19.398  0.00  0.00    +0.000 C 
ATOM      2  N   UNL     1       1.624   4.480  18.283  0.00  0.00    +0.000 N 
ATOM      3  C   UNL     1       2.569   3.726  17.639  0.00  0.00    +0.000 C 
ATOM      4  O   UNL     1       2.314   3.090  16.632  0.00  0.00    +0.000 OA
ATOM      5  N   UNL     1       3.756   3.847  18.286  0.00  0.00    +0.000 N 
ATOM      6  C   UNL     1       3.636   4.747  19.315  0.00  0.00    +0.000 C 
ATOM      7  O   UNL     1       4.545   5.103  20.057  0.00  0.00    +0.000 OA
ATOM      8  H   UNL     1       0.665   4.502  17.966  0.00  0.00    +0.000 HD
ENDROOT
BRANCH   1   9
ATOM      9  C   UNL     1       2.053   6.741  19.183  0.00  0.00    +0.000 A 
ATOM     10  C   UNL     1       2.454   7.311  17.958  0.00  0.00    +0.000 A 
ATOM     11  C   UNL     1       2.359   8.688  17.733  0.00  0.00    +0.000 A 
ATOM     12  C   UNL     1       1.858   9.516  18.729  0.00  0.00    +0.000 A 
ATOM     13  F   UNL     1       1.761  10.829  18.514  0.00  0.00    +0.000 F 
ATOM     14  C   UNL     1       1.447   8.987  19.945  0.00  0.00    +0.000 A 
ATOM     15  C   UNL     1       1.541   7.609  20.170  0.00  0.00    +0.000 A 
ENDBRANCH   1   9
BRANCH   1  17
ATOM     16  C   UNL     1       1.093   3.280  20.724  0.00  0.00    +0.000 C 
ATOM     17  C   UNL     1       1.502   4.753  20.712  0.00  0.00    +0.000 C 
ENDBRANCH   1  17
BRANCH   5  18
ATOM     18  C   UNL     1       5.009   3.250  17.878  0.00  0.00    +0.000 C 
BRANCH  18  19
ATOM     19  C   UNL     1       5.985   4.292  17.373  0.00  0.00    +0.000 A 
ATOM     20  C   UNL     1       6.611   5.122  18.224  0.00  0.00    +0.000 A 
ATOM     21  C   UNL     1       7.510   6.208  17.805  0.00  0.00    +0.000 A 
ATOM     22  O   UNL     1       8.064   6.922  18.635  0.00  0.00    +0.000 OA
ATOM     23  O   UNL     1       7.676   6.393  16.444  0.00  0.00    +0.000 OA
ATOM     24  C   UNL     1       7.088   5.508  15.521  0.00  0.00    +0.000 A 
ATOM     25  C   UNL     1       7.428   5.703  14.180  0.00  0.00    +0.000 A 
ATOM     26  C   UNL     1       6.963   4.818  13.198  0.00  0.00    +0.000 A 
ATOM     27  C   UNL     1       7.429   4.981  11.779  0.00  0.00    +0.000 C 
ATOM     28  C   UNL     1       6.108   3.773  13.584  0.00  0.00    +0.000 A 
ATOM     29  C   UNL     1       5.600   2.718  12.637  0.00  0.00    +0.000 C 
ATOM     30  C   UNL     1       5.724   3.655  14.935  0.00  0.00    +0.000 A 
ATOM     31  C   UNL     1       6.244   4.480  15.935  0.00  0.00    +0.000 A 
ENDBRANCH  18  19
ENDBRANCH   5  18
TORSDOF 4
ENDMDL
MODEL 3
REMARK VINA RESULT:      -8.3      3.171      7.000
REMARK  Name = 
REMARK  7 active torsions:
REMARK  status: ('A' for Active; 'I' for Inactive)
REMARK    1  A    between atoms: C_1  and  C_2
REMARK    2  A    between atoms: C_2  and  C_3
REMARK    3  A    between atoms: C_3  and  C_4
REMARK    4  A    between atoms: N_14  and  C_15
REMARK    5  A    between atoms: C_15  and  C_16
REMARK    6  A    between atoms: C_23  and  C_24
REMARK    7  A    between atoms: C_25  and  C_26
REMARK                            x       y       z     vdW  Elec       q    Type
REMARK                         _______ _______ _______ _____ _____    ______ ____
ROOT
ATOM      1  C   UNL     1       6.597   5.240  16.763  0.00  0.00    +0.000 C 
ATOM      2  N   UNL     1       6.589   4.060  17.595  0.00  0.00    +0.000 N 
ATOM      3  C   UNL     1       5.326   3.659  17.942  0.00  0.00    +0.000 C 
ATOM      4  O   UNL     1       5.128   2.726  18.700  0.00  0.00    +0.000 OA
ATOM      5  N   UNL     1       4.418   4.467  17.339  0.00  0.00    +0.000 N 
ATOM      6  C   UNL     1       5.065   5.465  16.653  0.00  0.00    +0.000 C 
ATOM      7  O   UNL     1       4.518   6.376  16.042  0.00  0.00    +0.000 OA
ATOM      8  H   UNL     1       7.406   3.566  17.926  0.00  0.00    +0.000 HD
ENDROOT
BRANCH   1   9
ATOM      9  C   UNL     1       7.286   6.427  17.452  0.00  0.00    +0.000 A 
ATOM     10  C   UNL     1       7.914   6.250  18.702  0.00  0.00    +0.000 A 
ATOM     11  C   UNL     1       8.556   7.312  19.347  0.00  0.00    +0.000 A 
ATOM     12  C   UNL     1       8.583   8.565  18.751  0.00  0.00    +0.000 A 
ATOM     13  F   UNL     1       9.200   9.578  19.363  0.00  0.00    +0.000 F 
ATOM     14  C   UNL     1       7.982   8.773  17.517  0.00  0.00    +0.000 A 
ATOM     15  C   UNL     1       7.340   7.711  16.870  0.00  0.00    +0.000 A 
ENDBRANCH   1   9
BRANCH   1  17
ATOM     16  C   UNL     1       6.296   4.086  14.470  0.00  0.00    +0.000 C 
ATOM     17  C   UNL     1       7.205   4.908  15.384  0.00  0.00    +0.000 C 
ENDBRANCH   1  17
BRANCH   5  18
ATOM     18  C   UNL     1       2.982   4.402  17.505  0.00  0.00    +0.000 C 
BRANCH  18  19
ATOM     19  C   UNL     1       2.566   4.772  18.913  0.00  0.00    +0.000 A 
ATOM     20  C   UNL     1       2.549   3.852  19.892  0.00  0.00    +0.000 A 
ATOM     21  C   UNL     1       2.084   4.116  21.262  0.00  0.00    +0.000 A 
ATOM     22  O   UNL     1       2.108   3.235  22.116  0.00  0.00    +0.000 OA
ATOM     23  O   UNL     1       1.600   5.385  21.525  0.00  0.00    +0.000 OA
ATOM     24  C   UNL     1       1.657   6.394  20.546  0.00  0.00    +0.000 A 
ATOM     25  C   UNL     1       1.269   7.672  20.956  0.00  0.00    +0.000 A 
ATOM     26  C   UNL     1       1.376   8.758  20.077  0.00  0.00    +0.000 A 
ATOM     27  C   UNL     1       1.059  10.141  20.573  0.00  0.00    +0.000 C 
ATOM     28  C   UNL     1       1.825   8.523  18.768  0.00  0.00    +0.000 A 
ATOM     29  C   UNL     1       2.049   9.614  17.754  0.00  0.00    +0.000 C 
ATOM     30  C   UNL     1       2.133   7.207  18.366  0.00  0.00    +0.000 A 
ATOM     31  C   UNL     1       2.108   6.130  19.254  0.00  0.00    +0.000 A 
ENDBRANCH  18  19
ENDBRANCH   5  18
TORSDOF 4
ENDMDL
MODEL 4
REMARK VINA RESULT:      -8.3      3.048      8.229
REMARK  Name = 
REMARK  7 active torsions:
REMARK  status: ('A' for Active; 'I' for Inactive)
REMARK    1  A    between atoms: C_1  and  C_2
REMARK    2  A    between atoms: C_2  and  C_3
REMARK    3  A    between atoms: C_3  and  C_4
REMARK    4  A    between atoms: N_14  and  C_15
REMARK    5  A    between atoms: C_15  and  C_16
REMARK    6  A    between atoms: C_23  and  C_24
REMARK    7  A    between atoms: C_25  and  C_26
REMARK                            x       y       z     vdW  Elec       q    Type
REMARK                         _______ _______ _______ _____ _____    ______ ____
ROOT
ATOM      1  C   UNL     1       2.507   6.639  18.594  0.00  0.00    +0.000 C 
ATOM      2  N   UNL     1       2.095   6.692  19.976  0.00  0.00    +0.000 N 
ATOM      3  C   UNL     1       1.666   7.935  20.359  0.00  0.00    +0.000 C 
ATOM      4  O   UNL     1       1.349   8.186  21.509  0.00  0.00    +0.000 OA
ATOM      5  N   UNL     1       1.690   8.767  19.287  0.00  0.00    +0.000 N 
ATOM      6  C   UNL     1       2.214   8.112  18.201  0.00  0.00    +0.000 C 
ATOM      7  O   UNL     1       2.406   8.609  17.097  0.00  0.00    +0.000 OA
ATOM      8  H   UNL     1       2.127   5.923  20.632  0.00  0.00    +0.000 HD
ENDROOT
BRANCH   1   9
ATOM      9  C   UNL     1       4.000   6.309  18.448  0.00  0.00    +0.000 A 
ATOM     10  C   UNL     1       4.650   5.531  19.428  0.00  0.00    +0.000 A 
ATOM     11  C   UNL     1       6.006   5.209  19.316  0.00  0.00    +0.000 A 
ATOM     12  C   UNL     1       6.732   5.658  18.221  0.00  0.00    +0.000 A 
ATOM     13  F   UNL     1       8.025   5.347  18.110  0.00  0.00    +0.000 F 
ATOM     14  C   UNL     1       6.122   6.419  17.233  0.00  0.00    +0.000 A 
ATOM     15  C   UNL     1       4.765   6.741  17.344  0.00  0.00    +0.000 A 
ENDBRANCH   1   9
BRANCH   1  17
ATOM     16  C   UNL     1       1.636   4.222  18.305  0.00  0.00    +0.000 C 
ATOM     17  C   UNL     1       1.597   5.669  17.811  0.00  0.00    +0.000 C 
ENDBRANCH   1  17
BRANCH   5  18
ATOM     18  C   UNL     1       1.364  10.176  19.299  0.00  0.00    +0.000 C 
BRANCH  18  19
ATOM     19  C   UNL     1      -0.075  10.420  18.894  0.00  0.00    +0.000 A 
ATOM     20  C   UNL     1      -0.579   9.873  17.775  0.00  0.00    +0.000 A 
ATOM     21  C   UNL     1      -1.939  10.126  17.275  0.00  0.00    +0.000 A 
ATOM     22  O   UNL     1      -2.344   9.581  16.253  0.00  0.00    +0.000 OA
ATOM     23  O   UNL     1      -2.714  11.016  17.995  0.00  0.00    +0.000 OA
ATOM     24  C   UNL     1      -2.247  11.564  19.204  0.00  0.00    +0.000 A 
ATOM     25  C   UNL     1      -3.159  12.343  19.920  0.00  0.00    +0.000 A 
ATOM     26  C   UNL     1      -2.815  12.857  21.177  0.00  0.00    +0.000 A 
ATOM     27  C   UNL     1      -3.848  13.600  21.978  0.00  0.00    +0.000 C 
ATOM     28  C   UNL     1      -1.522  12.619  21.670  0.00  0.00    +0.000 A 
ATOM     29  C   UNL     1      -1.055  13.057  23.034  0.00  0.00    +0.000 C 
ATOM     30  C   UNL     1      -0.603  11.894  20.885  0.00  0.00    +0.000 A 
ATOM     31  C   UNL     1      -0.958  11.308  19.668  0.00  0.00    +0.000 A 
ENDBRANCH  18  19
ENDBRANCH   5  18
TORSDOF 4
ENDMDL
MODEL 5
REMARK VINA RESULT:      -8.1      1.020      1.380
REMARK  Name = 
REMARK  7 active torsions:
REMARK  status: ('A' for Active; 'I' for Inactive)
REMARK    1  A    between atoms: C_1  and  C_2
REMARK    2  A    between atoms: C_2  and  C_3
REMARK    3  A    between atoms: C_3  and  C_4
REMARK    4  A    between atoms: N_14  and  C_15
REMARK    5  A    between atoms: C_15  and  C_16
REMARK    6  A    between atoms: C_23  and  C_24
REMARK    7  A    between atoms: C_25  and  C_26
REMARK                            x       y       z     vdW  Elec       q    Type
REMARK                         _______ _______ _______ _____ _____    ______ ____
ROOT
ATOM      1  C   UNL     1       0.016  10.160  18.851  0.00  0.00    +0.000 C 
ATOM      2  N   UNL     1       0.845   9.831  17.716  0.00  0.00    +0.000 N 
ATOM      3  C   UNL     1       1.820   8.916  18.013  0.00  0.00    +0.000 C 
ATOM      4  O   UNL     1       2.658   8.574  17.197  0.00  0.00    +0.000 OA
ATOM      5  N   UNL     1       1.685   8.521  19.305  0.00  0.00    +0.000 N 
ATOM      6  C   UNL     1       0.676   9.231  19.906  0.00  0.00    +0.000 C 
ATOM      7  O   UNL     1       0.342   9.134  21.081  0.00  0.00    +0.000 OA
ATOM      8  H   UNL     1       0.763  10.228  16.790  0.00  0.00    +0.000 HD
ENDROOT
BRANCH   1   9
ATOM      9  C   UNL     1       0.146  11.637  19.251  0.00  0.00    +0.000 A 
ATOM     10  C   UNL     1      -0.894  12.270  19.962  0.00  0.00    +0.000 A 
ATOM     11  C   UNL     1      -0.798  13.612  20.345  0.00  0.00    +0.000 A 
ATOM     12  C   UNL     1       0.341  14.339  20.027  0.00  0.00    +0.000 A 
ATOM     13  F   UNL     1       0.436  15.618  20.398  0.00  0.00    +0.000 F 
ATOM     14  C   UNL     1       1.388  13.745  19.336  0.00  0.00    +0.000 A 
ATOM     15  C   UNL     1       1.293  12.403  18.953  0.00  0.00    +0.000 A 
ENDBRANCH   1   9
BRANCH   1  17
ATOM     16  C   UNL     1      -1.907   9.947  17.137  0.00  0.00    +0.000 C 
ATOM     17  C   UNL     1      -1.443   9.736  18.579  0.00  0.00    +0.000 C 
ENDBRANCH   1  17
BRANCH   5  18
ATOM     18  C   UNL     1       2.560   7.609  20.009  0.00  0.00    +0.000 C 
BRANCH  18  19
ATOM     19  C   UNL     1       2.399   6.187  19.512  0.00  0.00    +0.000 A 
ATOM     20  C   UNL     1       1.406   5.405  19.967  0.00  0.00    +0.000 A 
ATOM     21  C   UNL     1       1.232   3.994  19.593  0.00  0.00    +0.000 A 
ATOM     22  O   UNL     1       0.293   3.338  20.032  0.00  0.00    +0.000 OA
ATOM     23  O   UNL     1       2.184   3.448  18.751  0.00  0.00    +0.000 OA
ATOM     24  C   UNL     1       3.204   4.248  18.204  0.00  0.00    +0.000 A 
ATOM     25  C   UNL     1       4.031   3.631  17.261  0.00  0.00    +0.000 A 
ATOM     26  C   UNL     1       5.017   4.371  16.596  0.00  0.00    +0.000 A 
ATOM     27  C   UNL     1       5.821   3.716  15.507  0.00  0.00    +0.000 C 
ATOM     28  C   UNL     1       5.192   5.721  16.939  0.00  0.00    +0.000 A 
ATOM     29  C   UNL     1       6.167   6.638  16.249  0.00  0.00    +0.000 C 
ATOM     30  C   UNL     1       4.391   6.289  17.950  0.00  0.00    +0.000 A 
ATOM     31  C   UNL     1       3.351   5.586  18.563  0.00  0.00    +0.000 A 
ENDBRANCH  18  19
ENDBRANCH   5  18
TORSDOF 4
ENDMDL
MODEL 6
REMARK VINA RESULT:      -7.9      4.168      9.447
REMARK  Name = 
REMARK  7 active torsions:
REMARK  status: ('A' for Active; 'I' for Inactive)
REMARK    1  A    between atoms: C_1  and  C_2
REMARK    2  A    between atoms: C_2  and  C_3
REMARK    3  A    between atoms: C_3  and  C_4
REMARK    4  A    between atoms: N_14  and  C_15
REMARK    5  A    between atoms: C_15  and  C_16
REMARK    6  A    between atoms: C_23  and  C_24
REMARK    7  A    between atoms: C_25  and  C_26
REMARK                            x       y       z     vdW  Elec       q    Type
REMARK                         _______ _______ _______ _____ _____    ______ ____
ROOT
ATOM      1  C   UNL     1       0.482   9.632  20.714  0.00  0.00    +0.000 C 
ATOM      2  N   UNL     1       1.248  10.692  21.325  0.00  0.00    +0.000 N 
ATOM      3  C   UNL     1       0.836  11.940  20.940  0.00  0.00    +0.000 C 
ATOM      4  O   UNL     1       1.413  12.952  21.297  0.00  0.00    +0.000 OA
ATOM      5  N   UNL     1      -0.242  11.823  20.123  0.00  0.00    +0.000 N 
ATOM      6  C   UNL     1      -0.507  10.498  19.888  0.00  0.00    +0.000 C 
ATOM      7  O   UNL     1      -1.391  10.069  19.156  0.00  0.00    +0.000 OA
ATOM      8  H   UNL     1       2.028  10.569  21.957  0.00  0.00    +0.000 HD
ENDROOT
BRANCH   1   9
ATOM      9  C   UNL     1       1.346   8.749  19.802  0.00  0.00    +0.000 A 
ATOM     10  C   UNL     1       1.680   9.188  18.505  0.00  0.00    +0.000 A 
ATOM     11  C   UNL     1       2.472   8.407  17.656  0.00  0.00    +0.000 A 
ATOM     12  C   UNL     1       2.944   7.177  18.094  0.00  0.00    +0.000 A 
ATOM     13  F   UNL     1       3.704   6.433  17.288  0.00  0.00    +0.000 F 
ATOM     14  C   UNL     1       2.641   6.717  19.368  0.00  0.00    +0.000 A 
ATOM     15  C   UNL     1       1.850   7.498  20.218  0.00  0.00    +0.000 A 
ENDBRANCH   1   9
BRANCH   1  17
ATOM     16  C   UNL     1      -0.234   9.462  23.192  0.00  0.00    +0.000 C 
ATOM     17  C   UNL     1      -0.263   8.828  21.801  0.00  0.00    +0.000 C 
ENDBRANCH   1  17
BRANCH   5  18
ATOM     18  C   UNL     1      -0.928  12.913  19.464  0.00  0.00    +0.000 C 
BRANCH  18  19
ATOM     19  C   UNL     1      -2.012  13.503  20.341  0.00  0.00    +0.000 A 
ATOM     20  C   UNL     1      -1.719  14.421  21.277  0.00  0.00    +0.000 A 
ATOM     21  C   UNL     1      -2.701  14.981  22.218  0.00  0.00    +0.000 A 
ATOM     22  O   UNL     1      -2.372  15.829  23.040  0.00  0.00    +0.000 OA
ATOM     23  O   UNL     1      -3.991  14.488  22.142  0.00  0.00    +0.000 OA
ATOM     24  C   UNL     1      -4.354  13.572  21.138  0.00  0.00    +0.000 A 
ATOM     25  C   UNL     1      -5.710  13.242  21.066  0.00  0.00    +0.000 A 
ATOM     26  C   UNL     1      -6.180  12.407  20.043  0.00  0.00    +0.000 A 
ATOM     27  C   UNL     1      -7.656  12.154  19.919  0.00  0.00    +0.000 C 
ATOM     28  C   UNL     1      -5.254  11.869  19.135  0.00  0.00    +0.000 A 
ATOM     29  C   UNL     1      -5.643  11.019  17.953  0.00  0.00    +0.000 C 
ATOM     30  C   UNL     1      -3.884  12.162  19.285  0.00  0.00    +0.000 A 
ATOM     31  C   UNL     1      -3.413  13.056  20.249  0.00  0.00    +0.000 A 
ENDBRANCH  18  19
ENDBRANCH   5  18
TORSDOF 4
ENDMDL
MODEL 7
REMARK VINA RESULT:      -7.7      4.114      9.037
REMARK  Name = 
REMARK  7 active torsions:
REMARK  status: ('A' for Active; 'I' for Inactive)
REMARK    1  A    between atoms: C_1  and  C_2
REMARK    2  A    between atoms: C_2  and  C_3
REMARK    3  A    between atoms: C_3  and  C_4
REMARK    4  A    between atoms: N_14  and  C_15
REMARK    5  A    between atoms: C_15  and  C_16
REMARK    6  A    between atoms: C_23  and  C_24
REMARK    7  A    between atoms: C_25  and  C_26
REMARK                            x       y       z     vdW  Elec       q    Type
REMARK                         _______ _______ _______ _____ _____    ______ ____
ROOT
ATOM      1  C   UNL     1       0.449   9.499  20.568  0.00  0.00    +0.000 C 
ATOM      2  N   UNL     1       1.128  10.670  21.070  0.00  0.00    +0.000 N 
ATOM      3  C   UNL     1       0.645  11.837  20.540  0.00  0.00    +0.000 C 
ATOM      4  O   UNL     1       1.146  12.919  20.792  0.00  0.00    +0.000 OA
ATOM      5  N   UNL     1      -0.403  11.558  19.723  0.00  0.00    +0.000 N 
ATOM      6  C   UNL     1      -0.574  10.199  19.634  0.00  0.00    +0.000 C 
ATOM      7  O   UNL     1      -1.410   9.634  18.938  0.00  0.00    +0.000 OA
ATOM      8  H   UNL     1       1.899  10.670  21.724  0.00  0.00    +0.000 HD
ENDROOT
BRANCH   1   9
ATOM      9  C   UNL     1       1.391   8.581  19.775  0.00  0.00    +0.000 A 
ATOM     10  C   UNL     1       1.812   7.354  20.327  0.00  0.00    +0.000 A 
ATOM     11  C   UNL     1       2.662   6.496  19.624  0.00  0.00    +0.000 A 
ATOM     12  C   UNL     1       3.102   6.850  18.355  0.00  0.00    +0.000 A 
ATOM     13  F   UNL     1       3.908   6.029  17.680  0.00  0.00    +0.000 F 
ATOM     14  C   UNL     1       2.700   8.046  17.777  0.00  0.00    +0.000 A 
ATOM     15  C   UNL     1       1.848   8.905  18.480  0.00  0.00    +0.000 A 
ENDBRANCH   1   9
BRANCH   1  17
ATOM     16  C   UNL     1      -0.171   9.477  23.077  0.00  0.00    +0.000 C 
ATOM     17  C   UNL     1      -0.269   8.771  21.724  0.00  0.00    +0.000 C 
ENDBRANCH   1  17
BRANCH   5  18
ATOM     18  C   UNL     1      -1.142  12.519  18.934  0.00  0.00    +0.000 C 
BRANCH  18  19
ATOM     19  C   UNL     1      -2.636  12.291  19.035  0.00  0.00    +0.000 A 
ATOM     20  C   UNL     1      -3.339  11.847  17.979  0.00  0.00    +0.000 A 
ATOM     21  C   UNL     1      -4.800  11.677  17.975  0.00  0.00    +0.000 A 
ATOM     22  O   UNL     1      -5.381  11.252  16.982  0.00  0.00    +0.000 OA
ATOM     23  O   UNL     1      -5.475  12.041  19.126  0.00  0.00    +0.000 OA
ATOM     24  C   UNL     1      -4.772  12.452  20.274  0.00  0.00    +0.000 A 
ATOM     25  C   UNL     1      -5.539  12.665  21.422  0.00  0.00    +0.000 A 
ATOM     26  C   UNL     1      -4.918  12.990  22.635  0.00  0.00    +0.000 A 
ATOM     27  C   UNL     1      -5.750  13.107  23.881  0.00  0.00    +0.000 C 
ATOM     28  C   UNL     1      -3.523  13.151  22.656  0.00  0.00    +0.000 A 
ATOM     29  C   UNL     1      -2.733  13.429  23.908  0.00  0.00    +0.000 C 
ATOM     30  C   UNL     1      -2.790  13.004  21.461  0.00  0.00    +0.000 A 
ATOM     31  C   UNL     1      -3.386  12.601  20.263  0.00  0.00    +0.000 A 
ENDBRANCH  18  19
ENDBRANCH   5  18
TORSDOF 4
ENDMDL
MODEL 8
REMARK VINA RESULT:      -7.6      5.477      9.756
REMARK  Name = 
REMARK  7 active torsions:
REMARK  status: ('A' for Active; 'I' for Inactive)
REMARK    1  A    between atoms: C_1  and  C_2
REMARK    2  A    between atoms: C_2  and  C_3
REMARK    3  A    between atoms: C_3  and  C_4
REMARK    4  A    between atoms: N_14  and  C_15
REMARK    5  A    between atoms: C_15  and  C_16
REMARK    6  A    between atoms: C_23  and  C_24
REMARK    7  A    between atoms: C_25  and  C_26
REMARK                            x       y       z     vdW  Elec       q    Type
REMARK                         _______ _______ _______ _____ _____    ______ ____
ROOT
ATOM      1  C   UNL     1      -0.941  11.194  19.066  0.00  0.00    +0.000 C 
ATOM      2  N   UNL     1      -1.393  10.161  18.164  0.00  0.00    +0.000 N 
ATOM      3  C   UNL     1      -2.676  10.358  17.725  0.00  0.00    +0.000 C 
ATOM      4  O   UNL     1      -3.249   9.550  17.015  0.00  0.00    +0.000 OA
ATOM      5  N   UNL     1      -3.145  11.530  18.224  0.00  0.00    +0.000 N 
ATOM      6  C   UNL     1      -2.214  12.083  19.068  0.00  0.00    +0.000 C 
ATOM      7  O   UNL     1      -2.361  13.118  19.707  0.00  0.00    +0.000 OA
ATOM      8  H   UNL     1      -0.860   9.351  17.880  0.00  0.00    +0.000 HD
ENDROOT
BRANCH   1   9
ATOM      9  C   UNL     1      -0.643  10.644  20.469  0.00  0.00    +0.000 A 
ATOM     10  C   UNL     1      -1.188  11.276  21.605  0.00  0.00    +0.000 A 
ATOM     11  C   UNL     1      -0.940  10.792  22.893  0.00  0.00    +0.000 A 
ATOM     12  C   UNL     1      -0.145   9.666  23.064  0.00  0.00    +0.000 A 
ATOM     13  F   UNL     1       0.088   9.199  24.292  0.00  0.00    +0.000 F 
ATOM     14  C   UNL     1       0.401   9.014  21.967  0.00  0.00    +0.000 A 
ATOM     15  C   UNL     1       0.152   9.498  20.678  0.00  0.00    +0.000 A 
ENDBRANCH   1   9
BRANCH   1  17
ATOM     16  C   UNL     1       0.947  12.928  19.394  0.00  0.00    +0.000 C 
ATOM     17  C   UNL     1       0.255  11.947  18.447  0.00  0.00    +0.000 C 
ENDBRANCH   1  17
BRANCH   5  18
ATOM     18  C   UNL     1      -4.478  12.059  18.036  0.00  0.00    +0.000 C 
BRANCH  18  19
ATOM     19  C   UNL     1      -5.447  11.508  19.061  0.00  0.00    +0.000 A 
ATOM     20  C   UNL     1      -5.932  10.260  18.953  0.00  0.00    +0.000 A 
ATOM     21  C   UNL     1      -6.934   9.683  19.862  0.00  0.00    +0.000 A 
ATOM     22  O   UNL     1      -7.324   8.529  19.717  0.00  0.00    +0.000 OA
ATOM     23  O   UNL     1      -7.422  10.508  20.859  0.00  0.00    +0.000 OA
ATOM     24  C   UNL     1      -6.897  11.800  21.045  0.00  0.00    +0.000 A 
ATOM     25  C   UNL     1      -7.362  12.499  22.162  0.00  0.00    +0.000 A 
ATOM     26  C   UNL     1      -6.832  13.756  22.480  0.00  0.00    +0.000 A 
ATOM     27  C   UNL     1      -7.267  14.441  23.745  0.00  0.00    +0.000 C 
ATOM     28  C   UNL     1      -5.871  14.317  21.624  0.00  0.00    +0.000 A 
ATOM     29  C   UNL     1      -5.176  15.626  21.893  0.00  0.00    +0.000 C 
ATOM     30  C   UNL     1      -5.483  13.617  20.464  0.00  0.00    +0.000 A 
ATOM     31  C   UNL     1      -5.942  12.329  20.179  0.00  0.00    +0.000 A 
ENDBRANCH  18  19
ENDBRANCH   5  18
TORSDOF 4
ENDMDL
MODEL 9
REMARK VINA RESULT:      -7.5      4.074      8.801
REMARK  Name = 
REMARK  7 active torsions:
REMARK  status: ('A' for Active; 'I' for Inactive)
REMARK    1  A    between atoms: C_1  and  C_2
REMARK    2  A    between atoms: C_2  and  C_3
REMARK    3  A    between atoms: C_3  and  C_4
REMARK    4  A    between atoms: N_14  and  C_15
REMARK    5  A    between atoms: C_15  and  C_16
REMARK    6  A    between atoms: C_23  and  C_24
REMARK    7  A    between atoms: C_25  and  C_26
REMARK                            x       y       z     vdW  Elec       q    Type
REMARK                         _______ _______ _______ _____ _____    ______ ____
ROOT
ATOM      1  C   UNL     1       0.397   9.549  20.501  0.00  0.00    +0.000 C 
ATOM      2  N   UNL     1       1.093  10.714  20.995  0.00  0.00    +0.000 N 
ATOM      3  C   UNL     1       0.650  11.881  20.431  0.00  0.00    +0.000 C 
ATOM      4  O   UNL     1       1.170  12.955  20.672  0.00  0.00    +0.000 OA
ATOM      5  N   UNL     1      -0.385  11.609  19.596  0.00  0.00    +0.000 N 
ATOM      6  C   UNL     1      -0.587  10.254  19.529  0.00  0.00    +0.000 C 
ATOM      7  O   UNL     1      -1.421   9.693  18.826  0.00  0.00    +0.000 OA
ATOM      8  H   UNL     1       1.848  10.710  21.667  0.00  0.00    +0.000 HD
ENDROOT
BRANCH   1   9
ATOM      9  C   UNL     1       1.334   8.593  19.749  0.00  0.00    +0.000 A 
ATOM     10  C   UNL     1       1.814   8.936  18.469  0.00  0.00    +0.000 A 
ATOM     11  C   UNL     1       2.674   8.088  17.765  0.00  0.00    +0.000 A 
ATOM     12  C   UNL     1       3.072   6.885  18.334  0.00  0.00    +0.000 A 
ATOM     13  F   UNL     1       3.898   6.077  17.666  0.00  0.00    +0.000 F 
ATOM     14  C   UNL     1       2.626   6.519  19.596  0.00  0.00    +0.000 A 
ATOM     15  C   UNL     1       1.765   7.368  20.301  0.00  0.00    +0.000 A 
ENDBRANCH   1   9
BRANCH   1  17
ATOM     16  C   UNL     1      -0.207   9.545  23.015  0.00  0.00    +0.000 C 
ATOM     17  C   UNL     1      -0.364   8.863  21.655  0.00  0.00    +0.000 C 
ENDBRANCH   1  17
BRANCH   5  18
ATOM     18  C   UNL     1      -1.083  12.571  18.770  0.00  0.00    +0.000 C 
BRANCH  18  19
ATOM     19  C   UNL     1      -2.432  12.047  18.322  0.00  0.00    +0.000 A 
ATOM     20  C   UNL     1      -2.589  11.496  17.107  0.00  0.00    +0.000 A 
ATOM     21  C   UNL     1      -3.880  11.037  16.572  0.00  0.00    +0.000 A 
ATOM     22  O   UNL     1      -3.954  10.527  15.459  0.00  0.00    +0.000 OA
ATOM     23  O   UNL     1      -4.993  11.231  17.370  0.00  0.00    +0.000 OA
ATOM     24  C   UNL     1      -4.863  11.748  18.673  0.00  0.00    +0.000 A 
ATOM     25  C   UNL     1      -6.029  11.777  19.442  0.00  0.00    +0.000 A 
ATOM     26  C   UNL     1      -5.981  12.192  20.780  0.00  0.00    +0.000 A 
ATOM     27  C   UNL     1      -7.224  12.111  21.621  0.00  0.00    +0.000 C 
ATOM     28  C   UNL     1      -4.755  12.628  21.306  0.00  0.00    +0.000 A 
ATOM     29  C   UNL     1      -4.560  13.029  22.745  0.00  0.00    +0.000 C 
ATOM     30  C   UNL     1      -3.616  12.657  20.477  0.00  0.00    +0.000 A 
ATOM     31  C   UNL     1      -3.631  12.172  19.168  0.00  0.00    +0.000 A 
ENDBRANCH  18  19
ENDBRANCH   5  18
TORSDOF 4
ENDMDL
