MODEL 1
REMARK VINA RESULT:      -8.6      0.000      0.000
REMARK  Name = 
REMARK  8 active torsions:
REMARK  status: ('A' for Active; 'I' for Inactive)
REMARK    1  A    between atoms: C_2  and  C_17
REMARK    2  A    between atoms: N_3  and  C_4
REMARK    3  A    between atoms: C_4  and  C_5
REMARK    4  A    between atoms: C_8  and  C_9
REMARK    5  A    between atoms: C_9  and  N_10
REMARK    6  A    between atoms: N_19  and  C_20
REMARK    7  A    between atoms: N_24  and  C_25
REMARK    8  A    between atoms: C_25  and  C_26
REMARK                            x       y       z     vdW  Elec       q    Type
REMARK                         _______ _______ _______ _____ _____    ______ ____
ROOT
ATOM      1  O   UNL     1       8.586   7.042  19.162  0.00  0.00    +0.000 OA
ATOM      2  C   UNL     1       8.158   7.826  18.325  0.00  0.00    +0.000 C 
ATOM      3  N   UNL     1       8.392   9.185  18.268  0.00  0.00    +0.000 N 
ATOM      4  H   UNL     1       7.954   9.725  17.526  0.00  0.00    +0.000 HD
ENDROOT
BRANCH   2   5
ATOM      5  C   UNL     1       7.243   7.269  17.215  0.00  0.00    +0.000 C 
ATOM      6  O   UNL     1       6.429   7.976  16.648  0.00  0.00    +0.000 OA
ATOM      7  N   UNL     1       7.399   5.856  16.957  0.00  0.00    +0.000 N 
ATOM      8  H   UNL     1       8.083   5.369  17.531  0.00  0.00    +0.000 HD
BRANCH   7   9
ATOM      9  C   UNL     1       6.660   5.164  16.002  0.00  0.00    +0.000 A 
ATOM     10  C   UNL     1       7.124   4.638  14.814  0.00  0.00    +0.000 A 
ATOM     11  C   UNL     1       6.006   4.051  14.198  0.00  0.00    +0.000 A 
ATOM     12  N   UNL     1       4.899   4.194  14.923  0.00  0.00    +0.000 NA
ATOM     13  N   UNL     1       5.312   4.851  16.032  0.00  0.00    +0.000 N 
BRANCH  13  14
ATOM     14  C   UNL     1       4.296   5.314  16.972  0.00  0.00    +0.000 C 
BRANCH  14  15
ATOM     15  C   UNL     1       3.461   4.194  17.540  0.00  0.00    +0.000 A 
ATOM     16  C   UNL     1       2.091   4.379  17.773  0.00  0.00    +0.000 A 
ATOM     17  C   UNL     1       1.305   3.332  18.259  0.00  0.00    +0.000 A 
ATOM     18  C   UNL     1       1.874   2.085  18.507  0.00  0.00    +0.000 A 
ATOM     19  C   UNL     1       3.228   1.879  18.258  0.00  0.00    +0.000 A 
ATOM     20  C   UNL     1       4.016   2.923  17.771  0.00  0.00    +0.000 A 
ENDBRANCH  14  15
ENDBRANCH  13  14
ENDBRANCH   7   9
ENDBRANCH   2   5
BRANCH   3  21
ATOM     21  C   UNL     1       9.255   9.883  19.199  0.00  0.00    +0.000 C 
BRANCH  21  22
ATOM     22  C   UNL     1       9.868  11.115  18.588  0.00  0.00    +0.000 A 
ATOM     23  C   UNL     1       9.051  12.094  18.008  0.00  0.00    +0.000 A 
ATOM     24  C   UNL     1       9.602  13.268  17.476  0.00  0.00    +0.000 A 
ATOM     25  C   UNL     1      10.986  13.486  17.505  0.00  0.00    +0.000 A 
ATOM     26  C   UNL     1      11.807  12.503  18.075  0.00  0.00    +0.000 A 
ATOM     27  C   UNL     1      11.255  11.327  18.603  0.00  0.00    +0.000 A 
BRANCH  25  28
ATOM     28  C   UNL     1      11.581  14.750  16.931  0.00  0.00    +0.000 C 
BRANCH  28  29
ATOM     29  N   UNL     1      11.113  15.948  17.604  0.00  0.00    +0.000 N 
ATOM     30  C   UNL     1      11.231  16.250  18.928  0.00  0.00    +0.000 A 
ATOM     31  N   UNL     1      10.545  17.338  19.194  0.00  0.00    +0.000 NA
ATOM     32  C   UNL     1      10.002  17.665  17.983  0.00  0.00    +0.000 A 
ATOM     33  N   UNL     1      10.316  16.840  16.978  0.00  0.00    +0.000 NA
ENDBRANCH  28  29
ENDBRANCH  25  28
ENDBRANCH  21  22
ENDBRANCH   3  21
TORSDOF 8
ENDMDL
MODEL 2
REMARK VINA RESULT:      -8.5      0.478      1.095
REMARK  Name = 
REMARK  8 active torsions:
REMARK  status: ('A' for Active; 'I' for Inactive)
REMARK    1  A    between atoms: C_2  and  C_17
REMARK    2  A    between atoms: N_3  and  C_4
REMARK    3  A    between atoms: C_4  and  C_5
REMARK    4  A    between atoms: C_8  and  C_9
REMARK    5  A    between atoms: C_9  and  N_10
REMARK    6  A    between atoms: N_19  and  C_20
REMARK    7  A    between atoms: N_24  and  C_25
REMARK    8  A    between atoms: C_25  and  C_26
REMARK                            x       y       z     vdW  Elec       q    Type
REMARK                         _______ _______ _______ _____ _____    ______ ____
ROOT
ATOM      1  O   UNL     1       8.555   6.949  19.166  0.00  0.00    +0.000 OA
ATOM      2  C   UNL     1       8.144   7.746  18.332  0.00  0.00    +0.000 C 
ATOM      3  N   UNL     1       8.399   9.102  18.287  0.00  0.00    +0.000 N 
ATOM      4  H   UNL     1       7.973   9.654  17.547  0.00  0.00    +0.000 HD
ENDROOT
BRANCH   2   5
ATOM      5  C   UNL     1       7.228   7.212  17.212  0.00  0.00    +0.000 C 
ATOM      6  O   UNL     1       6.428   7.934  16.646  0.00  0.00    +0.000 OA
ATOM      7  N   UNL     1       7.365   5.798  16.943  0.00  0.00    +0.000 N 
ATOM      8  H   UNL     1       8.039   5.297  17.518  0.00  0.00    +0.000 HD
BRANCH   7   9
ATOM      9  C   UNL     1       6.622   5.124  15.979  0.00  0.00    +0.000 A 
ATOM     10  C   UNL     1       7.085   4.606  14.786  0.00  0.00    +0.000 A 
ATOM     11  C   UNL     1       5.964   4.038  14.160  0.00  0.00    +0.000 A 
ATOM     12  N   UNL     1       4.855   4.186  14.882  0.00  0.00    +0.000 NA
ATOM     13  N   UNL     1       5.271   4.827  16.000  0.00  0.00    +0.000 N 
BRANCH  13  14
ATOM     14  C   UNL     1       4.257   5.291  16.941  0.00  0.00    +0.000 C 
BRANCH  14  15
ATOM     15  C   UNL     1       3.456   4.167  17.549  0.00  0.00    +0.000 A 
ATOM     16  C   UNL     1       2.077   4.310  17.755  0.00  0.00    +0.000 A 
ATOM     17  C   UNL     1       1.323   3.257  18.280  0.00  0.00    +0.000 A 
ATOM     18  C   UNL     1       1.936   2.046  18.595  0.00  0.00    +0.000 A 
ATOM     19  C   UNL     1       3.300   1.881  18.374  0.00  0.00    +0.000 A 
ATOM     20  C   UNL     1       4.055   2.930  17.849  0.00  0.00    +0.000 A 
ENDBRANCH  14  15
ENDBRANCH  13  14
ENDBRANCH   7   9
ENDBRANCH   2   5
BRANCH   3  21
ATOM     21  C   UNL     1       9.265   9.779  19.228  0.00  0.00    +0.000 C 
BRANCH  21  22
ATOM     22  C   UNL     1       9.800  11.074  18.675  0.00  0.00    +0.000 A 
ATOM     23  C   UNL     1      11.162  11.380  18.794  0.00  0.00    +0.000 A 
ATOM     24  C   UNL     1      11.685  12.559  18.244  0.00  0.00    +0.000 A 
ATOM     25  C   UNL     1      10.853  13.464  17.571  0.00  0.00    +0.000 A 
ATOM     26  C   UNL     1       9.488  13.165  17.460  0.00  0.00    +0.000 A 
ATOM     27  C   UNL     1       8.965  11.988  18.013  0.00  0.00    +0.000 A 
BRANCH  25  28
ATOM     28  C   UNL     1      11.414  14.736  16.979  0.00  0.00    +0.000 C 
BRANCH  28  29
ATOM     29  N   UNL     1      10.938  15.929  17.656  0.00  0.00    +0.000 N 
ATOM     30  C   UNL     1      10.461  17.069  17.082  0.00  0.00    +0.000 A 
ATOM     31  N   UNL     1      10.283  17.985  18.006  0.00  0.00    +0.000 NA
ATOM     32  C   UNL     1      10.685  17.354  19.149  0.00  0.00    +0.000 A 
ATOM     33  N   UNL     1      11.101  16.094  18.987  0.00  0.00    +0.000 NA
ENDBRANCH  28  29
ENDBRANCH  25  28
ENDBRANCH  21  22
ENDBRANCH   3  21
TORSDOF 8
ENDMDL
MODEL 3
REMARK VINA RESULT:      -8.4      7.435     11.325
REMARK  Name = 
REMARK  8 active torsions:
REMARK  status: ('A' for Active; 'I' for Inactive)
REMARK    1  A    between atoms: C_2  and  C_17
REMARK    2  A    between atoms: N_3  and  C_4
REMARK    3  A    between atoms: C_4  and  C_5
REMARK    4  A    between atoms: C_8  and  C_9
REMARK    5  A    between atoms: C_9  and  N_10
REMARK    6  A    between atoms: N_19  and  C_20
REMARK    7  A    between atoms: N_24  and  C_25
REMARK    8  A    between atoms: C_25  and  C_26
REMARK                            x       y       z     vdW  Elec       q    Type
REMARK                         _______ _______ _______ _____ _____    ______ ____
ROOT
ATOM      1  O   UNL     1       2.089   9.390  18.089  0.00  0.00    +0.000 OA
ATOM      2  C   UNL     1       1.383   9.166  19.064  0.00  0.00    +0.000 C 
ATOM      3  N   UNL     1       0.322   9.929  19.511  0.00  0.00    +0.000 N 
ATOM      4  H   UNL     1      -0.168   9.637  20.352  0.00  0.00    +0.000 HD
ENDROOT
BRANCH   2   5
ATOM      5  C   UNL     1       1.697   7.916  19.910  0.00  0.00    +0.000 C 
ATOM      6  O   UNL     1       1.651   7.945  21.127  0.00  0.00    +0.000 OA
ATOM      7  N   UNL     1       2.096   6.755  19.148  0.00  0.00    +0.000 N 
ATOM      8  H   UNL     1       2.137   6.875  18.139  0.00  0.00    +0.000 HD
BRANCH   7   9
ATOM      9  C   UNL     1       2.430   5.534  19.727  0.00  0.00    +0.000 A 
ATOM     10  C   UNL     1       1.595   4.694  20.435  0.00  0.00    +0.000 A 
ATOM     11  C   UNL     1       2.393   3.605  20.822  0.00  0.00    +0.000 A 
ATOM     12  N   UNL     1       3.652   3.732  20.409  0.00  0.00    +0.000 NA
ATOM     13  N   UNL     1       3.659   4.898  19.721  0.00  0.00    +0.000 N 
BRANCH  13  14
ATOM     14  C   UNL     1       4.945   5.418  19.268  0.00  0.00    +0.000 C 
BRANCH  14  15
ATOM     15  C   UNL     1       5.124   5.332  17.772  0.00  0.00    +0.000 A 
ATOM     16  C   UNL     1       5.126   4.086  17.130  0.00  0.00    +0.000 A 
ATOM     17  C   UNL     1       5.250   4.002  15.741  0.00  0.00    +0.000 A 
ATOM     18  C   UNL     1       5.361   5.162  14.976  0.00  0.00    +0.000 A 
ATOM     19  C   UNL     1       5.336   6.407  15.598  0.00  0.00    +0.000 A 
ATOM     20  C   UNL     1       5.212   6.494  16.985  0.00  0.00    +0.000 A 
ENDBRANCH  14  15
ENDBRANCH  13  14
ENDBRANCH   7   9
ENDBRANCH   2   5
BRANCH   3  21
ATOM     21  C   UNL     1      -0.147  11.115  18.827  0.00  0.00    +0.000 C 
BRANCH  21  22
ATOM     22  C   UNL     1      -1.643  11.113  18.651  0.00  0.00    +0.000 A 
ATOM     23  C   UNL     1      -2.431  12.057  19.320  0.00  0.00    +0.000 A 
ATOM     24  C   UNL     1      -3.820  12.098  19.131  0.00  0.00    +0.000 A 
ATOM     25  C   UNL     1      -4.452  11.187  18.274  0.00  0.00    +0.000 A 
ATOM     26  C   UNL     1      -3.666  10.234  17.611  0.00  0.00    +0.000 A 
ATOM     27  C   UNL     1      -2.278  10.191  17.804  0.00  0.00    +0.000 A 
BRANCH  25  28
ATOM     28  C   UNL     1      -5.949  11.229  18.070  0.00  0.00    +0.000 C 
BRANCH  28  29
ATOM     29  N   UNL     1      -6.679  10.545  19.123  0.00  0.00    +0.000 N 
ATOM     30  C   UNL     1      -7.115  11.073  20.302  0.00  0.00    +0.000 A 
ATOM     31  N   UNL     1      -7.587  10.114  21.064  0.00  0.00    +0.000 NA
ATOM     32  C   UNL     1      -7.404   8.994  20.303  0.00  0.00    +0.000 A 
ATOM     33  N   UNL     1      -6.845   9.205  19.106  0.00  0.00    +0.000 NA
ENDBRANCH  28  29
ENDBRANCH  25  28
ENDBRANCH  21  22
ENDBRANCH   3  21
TORSDOF 8
ENDMDL
MODEL 4
REMARK VINA RESULT:      -8.4      7.112     10.617
REMARK  Name = 
REMARK  8 active torsions:
REMARK  status: ('A' for Active; 'I' for Inactive)
REMARK    1  A    between atoms: C_2  and  C_17
REMARK    2  A    between atoms: N_3  and  C_4
REMARK    3  A    between atoms: C_4  and  C_5
REMARK    4  A    between atoms: C_8  and  C_9
REMARK    5  A    between atoms: C_9  and  N_10
REMARK    6  A    between atoms: N_19  and  C_20
REMARK    7  A    between atoms: N_24  and  C_25
REMARK    8  A    between atoms: C_25  and  C_26
REMARK                            x       y       z     vdW  Elec       q    Type
REMARK                         _______ _______ _______ _____ _____    ______ ____
ROOT
ATOM      1  O   UNL     1       1.519   8.448  21.301  0.00  0.00    +0.000 OA
ATOM      2  C   UNL     1       1.544   8.296  20.086  0.00  0.00    +0.000 C 
ATOM      3  N   UNL     1       1.102   9.189  19.131  0.00  0.00    +0.000 N 
ATOM      4  H   UNL     1       1.162   8.925  18.151  0.00  0.00    +0.000 HD
ENDROOT
BRANCH   2   5
ATOM      5  C   UNL     1       2.106   6.969  19.537  0.00  0.00    +0.000 C 
ATOM      6  O   UNL     1       2.183   6.759  18.339  0.00  0.00    +0.000 OA
ATOM      7  N   UNL     1       2.470   6.003  20.547  0.00  0.00    +0.000 N 
ATOM      8  H   UNL     1       2.315   6.285  21.512  0.00  0.00    +0.000 HD
BRANCH   7   9
ATOM      9  C   UNL     1       2.986   4.743  20.255  0.00  0.00    +0.000 A 
ATOM     10  C   UNL     1       2.391   3.524  20.508  0.00  0.00    +0.000 A 
ATOM     11  C   UNL     1       3.300   2.557  20.047  0.00  0.00    +0.000 A 
ATOM     12  N   UNL     1       4.405   3.105  19.545  0.00  0.00    +0.000 NA
ATOM     13  N   UNL     1       4.193   4.437  19.653  0.00  0.00    +0.000 N 
BRANCH  13  14
ATOM     14  C   UNL     1       5.300   5.335  19.336  0.00  0.00    +0.000 C 
BRANCH  14  15
ATOM     15  C   UNL     1       5.746   5.238  17.899  0.00  0.00    +0.000 A 
ATOM     16  C   UNL     1       7.056   4.846  17.588  0.00  0.00    +0.000 A 
ATOM     17  C   UNL     1       7.462   4.714  16.258  0.00  0.00    +0.000 A 
ATOM     18  C   UNL     1       6.563   4.962  15.223  0.00  0.00    +0.000 A 
ATOM     19  C   UNL     1       5.253   5.329  15.515  0.00  0.00    +0.000 A 
ATOM     20  C   UNL     1       4.844   5.460  16.843  0.00  0.00    +0.000 A 
ENDBRANCH  14  15
ENDBRANCH  13  14
ENDBRANCH   7   9
ENDBRANCH   2   5
BRANCH   3  21
ATOM     21  C   UNL     1       0.579  10.501  19.451  0.00  0.00    +0.000 C 
BRANCH  21  22
ATOM     22  C   UNL     1      -0.733  10.770  18.763  0.00  0.00    +0.000 A 
ATOM     23  C   UNL     1      -1.138   9.974  17.684  0.00  0.00    +0.000 A 
ATOM     24  C   UNL     1      -2.377  10.182  17.062  0.00  0.00    +0.000 A 
ATOM     25  C   UNL     1      -3.237  11.197  17.502  0.00  0.00    +0.000 A 
ATOM     26  C   UNL     1      -2.830  12.002  18.576  0.00  0.00    +0.000 A 
ATOM     27  C   UNL     1      -1.588  11.796  19.194  0.00  0.00    +0.000 A 
BRANCH  25  28
ATOM     28  C   UNL     1      -4.572  11.423  16.832  0.00  0.00    +0.000 C 
BRANCH  28  29
ATOM     29  N   UNL     1      -5.676  11.453  17.775  0.00  0.00    +0.000 N 
ATOM     30  C   UNL     1      -6.421  12.534  18.139  0.00  0.00    +0.000 A 
ATOM     31  N   UNL     1      -7.216  12.206  19.132  0.00  0.00    +0.000 NA
ATOM     32  C   UNL     1      -6.907  10.894  19.355  0.00  0.00    +0.000 A 
ATOM     33  N   UNL     1      -5.964  10.387  18.553  0.00  0.00    +0.000 NA
ENDBRANCH  28  29
ENDBRANCH  25  28
ENDBRANCH  21  22
ENDBRANCH   3  21
TORSDOF 8
ENDMDL
MODEL 5
REMARK VINA RESULT:      -8.2      7.085     10.538
REMARK  Name = 
REMARK  8 active torsions:
REMARK  status: ('A' for Active; 'I' for Inactive)
REMARK    1  A    between atoms: C_2  and  C_17
REMARK    2  A    between atoms: N_3  and  C_4
REMARK    3  A    between atoms: C_4  and  C_5
REMARK    4  A    between atoms: C_8  and  C_9
REMARK    5  A    between atoms: C_9  and  N_10
REMARK    6  A    between atoms: N_19  and  C_20
REMARK    7  A    between atoms: N_24  and  C_25
REMARK    8  A    between atoms: C_25  and  C_26
REMARK                            x       y       z     vdW  Elec       q    Type
REMARK                         _______ _______ _______ _____ _____    ______ ____
ROOT
ATOM      1  O   UNL     1       2.424   8.722  18.120  0.00  0.00    +0.000 OA
ATOM      2  C   UNL     1       1.792   8.508  19.147  0.00  0.00    +0.000 C 
ATOM      3  N   UNL     1       0.959   9.390  19.805  0.00  0.00    +0.000 N 
ATOM      4  H   UNL     1       0.510   9.087  20.666  0.00  0.00    +0.000 HD
ENDROOT
BRANCH   2   5
ATOM      5  C   UNL     1       1.935   7.121  19.806  0.00  0.00    +0.000 C 
ATOM      6  O   UNL     1       1.746   6.962  20.999  0.00  0.00    +0.000 OA
ATOM      7  N   UNL     1       2.357   6.067  18.911  0.00  0.00    +0.000 N 
ATOM      8  H   UNL     1       2.524   6.341  17.946  0.00  0.00    +0.000 HD
BRANCH   7   9
ATOM      9  C   UNL     1       2.553   4.750  19.315  0.00  0.00    +0.000 A 
ATOM     10  C   UNL     1       1.584   3.850  19.710  0.00  0.00    +0.000 A 
ATOM     11  C   UNL     1       2.274   2.669  20.030  0.00  0.00    +0.000 A 
ATOM     12  N   UNL     1       3.589   2.794  19.866  0.00  0.00    +0.000 NA
ATOM     13  N   UNL     1       3.747   4.057  19.406  0.00  0.00    +0.000 N 
BRANCH  13  14
ATOM     14  C   UNL     1       5.105   4.574  19.277  0.00  0.00    +0.000 C 
BRANCH  14  15
ATOM     15  C   UNL     1       5.609   4.563  17.855  0.00  0.00    +0.000 A 
ATOM     16  C   UNL     1       6.976   4.727  17.586  0.00  0.00    +0.000 A 
ATOM     17  C   UNL     1       7.453   4.676  16.275  0.00  0.00    +0.000 A 
ATOM     18  C   UNL     1       6.574   4.451  15.217  0.00  0.00    +0.000 A 
ATOM     19  C   UNL     1       5.219   4.263  15.470  0.00  0.00    +0.000 A 
ATOM     20  C   UNL     1       4.739   4.312  16.780  0.00  0.00    +0.000 A 
ENDBRANCH  14  15
ENDBRANCH  13  14
ENDBRANCH   7   9
ENDBRANCH   2   5
BRANCH   3  21
ATOM     21  C   UNL     1       0.670  10.723  19.320  0.00  0.00    +0.000 C 
BRANCH  21  22
ATOM     22  C   UNL     1      -0.664  10.794  18.623  0.00  0.00    +0.000 A 
ATOM     23  C   UNL     1      -1.616  11.741  19.021  0.00  0.00    +0.000 A 
ATOM     24  C   UNL     1      -2.844  11.851  18.353  0.00  0.00    +0.000 A 
ATOM     25  C   UNL     1      -3.150  11.009  17.276  0.00  0.00    +0.000 A 
ATOM     26  C   UNL     1      -2.203  10.053  16.882  0.00  0.00    +0.000 A 
ATOM     27  C   UNL     1      -0.977   9.941  17.553  0.00  0.00    +0.000 A 
BRANCH  25  28
ATOM     28  C   UNL     1      -4.473  11.126  16.556  0.00  0.00    +0.000 C 
BRANCH  28  29
ATOM     29  N   UNL     1      -5.552  11.552  17.428  0.00  0.00    +0.000 N 
ATOM     30  C   UNL     1      -6.161  10.821  18.405  0.00  0.00    +0.000 A 
ATOM     31  N   UNL     1      -7.198  11.482  18.867  0.00  0.00    +0.000 NA
ATOM     32  C   UNL     1      -7.192  12.627  18.120  0.00  0.00    +0.000 A 
ATOM     33  N   UNL     1      -6.207  12.715  17.220  0.00  0.00    +0.000 NA
ENDBRANCH  28  29
ENDBRANCH  25  28
ENDBRANCH  21  22
ENDBRANCH   3  21
TORSDOF 8
ENDMDL
MODEL 6
REMARK VINA RESULT:      -8.2      7.223     10.719
REMARK  Name = 
REMARK  8 active torsions:
REMARK  status: ('A' for Active; 'I' for Inactive)
REMARK    1  A    between atoms: C_2  and  C_17
REMARK    2  A    between atoms: N_3  and  C_4
REMARK    3  A    between atoms: C_4  and  C_5
REMARK    4  A    between atoms: C_8  and  C_9
REMARK    5  A    between atoms: C_9  and  N_10
REMARK    6  A    between atoms: N_19  and  C_20
REMARK    7  A    between atoms: N_24  and  C_25
REMARK    8  A    between atoms: C_25  and  C_26
REMARK                            x       y       z     vdW  Elec       q    Type
REMARK                         _______ _______ _______ _____ _____    ______ ____
ROOT
ATOM      1  O   UNL     1       1.627   8.700  21.395  0.00  0.00    +0.000 OA
ATOM      2  C   UNL     1       1.532   8.484  20.193  0.00  0.00    +0.000 C 
ATOM      3  N   UNL     1       1.059   9.353  19.230  0.00  0.00    +0.000 N 
ATOM      4  H   UNL     1       1.014   9.035  18.266  0.00  0.00    +0.000 HD
ENDROOT
BRANCH   2   5
ATOM      5  C   UNL     1       1.961   7.097  19.673  0.00  0.00    +0.000 C 
ATOM      6  O   UNL     1       1.947   6.832  18.484  0.00  0.00    +0.000 OA
ATOM      7  N   UNL     1       2.318   6.149  20.703  0.00  0.00    +0.000 N 
ATOM      8  H   UNL     1       2.245   6.482  21.662  0.00  0.00    +0.000 HD
BRANCH   7   9
ATOM      9  C   UNL     1       2.722   4.844  20.440  0.00  0.00    +0.000 A 
ATOM     10  C   UNL     1       2.062   3.683  20.789  0.00  0.00    +0.000 A 
ATOM     11  C   UNL     1       2.866   2.633  20.317  0.00  0.00    +0.000 A 
ATOM     12  N   UNL     1       3.970   3.075  19.719  0.00  0.00    +0.000 NA
ATOM     13  N   UNL     1       3.861   4.423  19.776  0.00  0.00    +0.000 N 
BRANCH  13  14
ATOM     14  C   UNL     1       5.004   5.222  19.345  0.00  0.00    +0.000 C 
BRANCH  14  15
ATOM     15  C   UNL     1       5.136   5.304  17.844  0.00  0.00    +0.000 A 
ATOM     16  C   UNL     1       5.061   6.543  17.193  0.00  0.00    +0.000 A 
ATOM     17  C   UNL     1       5.224   6.629  15.808  0.00  0.00    +0.000 A 
ATOM     18  C   UNL     1       5.475   5.481  15.059  0.00  0.00    +0.000 A 
ATOM     19  C   UNL     1       5.575   4.247  15.695  0.00  0.00    +0.000 A 
ATOM     20  C   UNL     1       5.414   4.158  17.078  0.00  0.00    +0.000 A 
ENDBRANCH  14  15
ENDBRANCH  13  14
ENDBRANCH   7   9
ENDBRANCH   2   5
BRANCH   3  21
ATOM     21  C   UNL     1       0.647  10.711  19.520  0.00  0.00    +0.000 C 
BRANCH  21  22
ATOM     22  C   UNL     1      -0.771  10.976  19.085  0.00  0.00    +0.000 A 
ATOM     23  C   UNL     1      -1.355  10.198  18.077  0.00  0.00    +0.000 A 
ATOM     24  C   UNL     1      -2.688  10.402  17.693  0.00  0.00    +0.000 A 
ATOM     25  C   UNL     1      -3.464  11.396  18.303  0.00  0.00    +0.000 A 
ATOM     26  C   UNL     1      -2.878  12.183  19.305  0.00  0.00    +0.000 A 
ATOM     27  C   UNL     1      -1.544  11.982  19.686  0.00  0.00    +0.000 A 
BRANCH  25  28
ATOM     28  C   UNL     1      -4.900  11.618  17.889  0.00  0.00    +0.000 C 
BRANCH  28  29
ATOM     29  N   UNL     1      -5.847  11.247  18.925  0.00  0.00    +0.000 N 
ATOM     30  C   UNL     1      -6.033  11.857  20.130  0.00  0.00    +0.000 A 
ATOM     31  N   UNL     1      -6.857  11.143  20.862  0.00  0.00    +0.000 NA
ATOM     32  C   UNL     1      -7.144  10.078  20.055  0.00  0.00    +0.000 A 
ATOM     33  N   UNL     1      -6.545  10.093  18.859  0.00  0.00    +0.000 NA
ENDBRANCH  28  29
ENDBRANCH  25  28
ENDBRANCH  21  22
ENDBRANCH   3  21
TORSDOF 8
ENDMDL
MODEL 7
REMARK VINA RESULT:      -8.1      6.862     10.517
REMARK  Name = 
REMARK  8 active torsions:
REMARK  status: ('A' for Active; 'I' for Inactive)
REMARK    1  A    between atoms: C_2  and  C_17
REMARK    2  A    between atoms: N_3  and  C_4
REMARK    3  A    between atoms: C_4  and  C_5
REMARK    4  A    between atoms: C_8  and  C_9
REMARK    5  A    between atoms: C_9  and  N_10
REMARK    6  A    between atoms: N_19  and  C_20
REMARK    7  A    between atoms: N_24  and  C_25
REMARK    8  A    between atoms: C_25  and  C_26
REMARK                            x       y       z     vdW  Elec       q    Type
REMARK                         _______ _______ _______ _____ _____    ______ ____
ROOT
ATOM      1  O   UNL     1       2.701   8.595  17.494  0.00  0.00    +0.000 OA
ATOM      2  C   UNL     1       2.013   8.297  18.462  0.00  0.00    +0.000 C 
ATOM      3  N   UNL     1       1.137   9.120  19.140  0.00  0.00    +0.000 N 
ATOM      4  H   UNL     1       0.642   8.748  19.947  0.00  0.00    +0.000 HD
ENDROOT
BRANCH   2   5
ATOM      5  C   UNL     1       2.128   6.862  19.015  0.00  0.00    +0.000 C 
ATOM      6  O   UNL     1       2.229   6.647  20.210  0.00  0.00    +0.000 OA
ATOM      7  N   UNL     1       2.161   5.827  18.007  0.00  0.00    +0.000 N 
ATOM      8  H   UNL     1       2.113   6.142  17.041  0.00  0.00    +0.000 HD
BRANCH   7   9
ATOM      9  C   UNL     1       2.272   4.471  18.302  0.00  0.00    +0.000 A 
ATOM     10  C   UNL     1       1.247   3.549  18.369  0.00  0.00    +0.000 A 
ATOM     11  C   UNL     1       1.856   2.330  18.709  0.00  0.00    +0.000 A 
ATOM     12  N   UNL     1       3.173   2.451  18.863  0.00  0.00    +0.000 NA
ATOM     13  N   UNL     1       3.420   3.754  18.588  0.00  0.00    +0.000 N 
BRANCH  13  14
ATOM     14  C   UNL     1       4.768   4.260  18.827  0.00  0.00    +0.000 C 
BRANCH  14  15
ATOM     15  C   UNL     1       5.545   4.497  17.556  0.00  0.00    +0.000 A 
ATOM     16  C   UNL     1       5.215   3.801  16.384  0.00  0.00    +0.000 A 
ATOM     17  C   UNL     1       5.904   4.047  15.194  0.00  0.00    +0.000 A 
ATOM     18  C   UNL     1       6.923   4.996  15.157  0.00  0.00    +0.000 A 
ATOM     19  C   UNL     1       7.246   5.711  16.307  0.00  0.00    +0.000 A 
ATOM     20  C   UNL     1       6.558   5.469  17.497  0.00  0.00    +0.000 A 
ENDBRANCH  14  15
ENDBRANCH  13  14
ENDBRANCH   7   9
ENDBRANCH   2   5
BRANCH   3  21
ATOM     21  C   UNL     1       0.866  10.487  18.747  0.00  0.00    +0.000 C 
BRANCH  21  22
ATOM     22  C   UNL     1      -0.583  10.697  18.394  0.00  0.00    +0.000 A 
ATOM     23  C   UNL     1      -1.236   9.802  17.538  0.00  0.00    +0.000 A 
ATOM     24  C   UNL     1      -2.596   9.957  17.236  0.00  0.00    +0.000 A 
ATOM     25  C   UNL     1      -3.333  11.019  17.778  0.00  0.00    +0.000 A 
ATOM     26  C   UNL     1      -2.679  11.923  18.628  0.00  0.00    +0.000 A 
ATOM     27  C   UNL     1      -1.318  11.769  18.926  0.00  0.00    +0.000 A 
BRANCH  25  28
ATOM     28  C   UNL     1      -4.798  11.188  17.453  0.00  0.00    +0.000 C 
BRANCH  28  29
ATOM     29  N   UNL     1      -5.642  11.170  18.634  0.00  0.00    +0.000 N 
ATOM     30  C   UNL     1      -5.546  11.976  19.729  0.00  0.00    +0.000 A 
ATOM     31  N   UNL     1      -6.374  11.556  20.658  0.00  0.00    +0.000 NA
ATOM     32  C   UNL     1      -6.955  10.462  20.082  0.00  0.00    +0.000 A 
ATOM     33  N   UNL     1      -6.536  10.180  18.844  0.00  0.00    +0.000 NA
ENDBRANCH  28  29
ENDBRANCH  25  28
ENDBRANCH  21  22
ENDBRANCH   3  21
TORSDOF 8
ENDMDL
MODEL 8
REMARK VINA RESULT:      -8.1      7.028     10.323
REMARK  Name = 
REMARK  8 active torsions:
REMARK  status: ('A' for Active; 'I' for Inactive)
REMARK    1  A    between atoms: C_2  and  C_17
REMARK    2  A    between atoms: N_3  and  C_4
REMARK    3  A    between atoms: C_4  and  C_5
REMARK    4  A    between atoms: C_8  and  C_9
REMARK    5  A    between atoms: C_9  and  N_10
REMARK    6  A    between atoms: N_19  and  C_20
REMARK    7  A    between atoms: N_24  and  C_25
REMARK    8  A    between atoms: C_25  and  C_26
REMARK                            x       y       z     vdW  Elec       q    Type
REMARK                         _______ _______ _______ _____ _____    ______ ____
ROOT
ATOM      1  O   UNL     1       2.675   9.006  17.639  0.00  0.00    +0.000 OA
ATOM      2  C   UNL     1       2.094   8.350  18.494  0.00  0.00    +0.000 C 
ATOM      3  N   UNL     1       1.249   8.832  19.475  0.00  0.00    +0.000 N 
ATOM      4  H   UNL     1       0.848   8.175  20.139  0.00  0.00    +0.000 HD
ENDROOT
BRANCH   2   5
ATOM      5  C   UNL     1       2.323   6.825  18.514  0.00  0.00    +0.000 C 
ATOM      6  O   UNL     1       1.958   6.116  17.594  0.00  0.00    +0.000 OA
ATOM      7  N   UNL     1       2.943   6.323  19.719  0.00  0.00    +0.000 N 
ATOM      8  H   UNL     1       3.159   7.016  20.433  0.00  0.00    +0.000 HD
BRANCH   7   9
ATOM      9  C   UNL     1       3.225   4.978  19.935  0.00  0.00    +0.000 A 
ATOM     10  C   UNL     1       2.398   4.040  20.520  0.00  0.00    +0.000 A 
ATOM     11  C   UNL     1       3.129   2.840  20.523  0.00  0.00    +0.000 A 
ATOM     12  N   UNL     1       4.341   2.989  19.992  0.00  0.00    +0.000 NA
ATOM     13  N   UNL     1       4.380   4.288  19.614  0.00  0.00    +0.000 N 
BRANCH  13  14
ATOM     14  C   UNL     1       5.651   4.825  19.137  0.00  0.00    +0.000 C 
BRANCH  14  15
ATOM     15  C   UNL     1       5.862   4.619  17.658  0.00  0.00    +0.000 A 
ATOM     16  C   UNL     1       4.771   4.360  16.816  0.00  0.00    +0.000 A 
ATOM     17  C   UNL     1       4.955   4.210  15.440  0.00  0.00    +0.000 A 
ATOM     18  C   UNL     1       6.228   4.328  14.886  0.00  0.00    +0.000 A 
ATOM     19  C   UNL     1       7.317   4.608  15.705  0.00  0.00    +0.000 A 
ATOM     20  C   UNL     1       7.136   4.759  17.081  0.00  0.00    +0.000 A 
ENDBRANCH  14  15
ENDBRANCH  13  14
ENDBRANCH   7   9
ENDBRANCH   2   5
BRANCH   3  21
ATOM     21  C   UNL     1       0.883  10.227  19.592  0.00  0.00    +0.000 C 
BRANCH  21  22
ATOM     22  C   UNL     1      -0.443  10.522  18.941  0.00  0.00    +0.000 A 
ATOM     23  C   UNL     1      -1.282  11.510  19.470  0.00  0.00    +0.000 A 
ATOM     24  C   UNL     1      -2.499  11.828  18.849  0.00  0.00    +0.000 A 
ATOM     25  C   UNL     1      -2.906  11.157  17.689  0.00  0.00    +0.000 A 
ATOM     26  C   UNL     1      -2.073  10.160  17.163  0.00  0.00    +0.000 A 
ATOM     27  C   UNL     1      -0.859   9.839  17.787  0.00  0.00    +0.000 A 
BRANCH  25  28
ATOM     28  C   UNL     1      -4.217  11.498  17.020  0.00  0.00    +0.000 C 
BRANCH  28  29
ATOM     29  N   UNL     1      -5.331  11.534  17.951  0.00  0.00    +0.000 N 
ATOM     30  C   UNL     1      -5.869  12.633  18.552  0.00  0.00    +0.000 A 
ATOM     31  N   UNL     1      -6.750  12.256  19.449  0.00  0.00    +0.000 NA
ATOM     32  C   UNL     1      -6.708  10.892  19.371  0.00  0.00    +0.000 A 
ATOM     33  N   UNL     1      -5.849  10.401  18.471  0.00  0.00    +0.000 NA
ENDBRANCH  28  29
ENDBRANCH  25  28
ENDBRANCH  21  22
ENDBRANCH   3  21
TORSDOF 8
ENDMDL
MODEL 9
REMARK VINA RESULT:      -8.0      7.310     10.232
REMARK  Name = 
REMARK  8 active torsions:
REMARK  status: ('A' for Active; 'I' for Inactive)
REMARK    1  A    between atoms: C_2  and  C_17
REMARK    2  A    between atoms: N_3  and  C_4
REMARK    3  A    between atoms: C_4  and  C_5
REMARK    4  A    between atoms: C_8  and  C_9
REMARK    5  A    between atoms: C_9  and  N_10
REMARK    6  A    between atoms: N_19  and  C_20
REMARK    7  A    between atoms: N_24  and  C_25
REMARK    8  A    between atoms: C_25  and  C_26
REMARK                            x       y       z     vdW  Elec       q    Type
REMARK                         _______ _______ _______ _____ _____    ______ ____
ROOT
ATOM      1  O   UNL     1       1.601   8.757  19.955  0.00  0.00    +0.000 OA
ATOM      2  C   UNL     1       1.628   8.765  18.731  0.00  0.00    +0.000 C 
ATOM      3  N   UNL     1       1.101   9.731  17.897  0.00  0.00    +0.000 N 
ATOM      4  H   UNL     1       1.175   9.601  16.892  0.00  0.00    +0.000 HD
ENDROOT
BRANCH   2   5
ATOM      5  C   UNL     1       2.299   7.575  18.016  0.00  0.00    +0.000 C 
ATOM      6  O   UNL     1       1.645   6.644  17.580  0.00  0.00    +0.000 OA
ATOM      7  N   UNL     1       3.742   7.638  17.962  0.00  0.00    +0.000 N 
ATOM      8  H   UNL     1       4.170   8.448  18.402  0.00  0.00    +0.000 HD
BRANCH   7   9
ATOM      9  C   UNL     1       4.532   6.657  17.369  0.00  0.00    +0.000 A 
ATOM     10  C   UNL     1       4.938   6.602  16.052  0.00  0.00    +0.000 A 
ATOM     11  C   UNL     1       5.700   5.428  15.939  0.00  0.00    +0.000 A 
ATOM     12  N   UNL     1       5.774   4.764  17.091  0.00  0.00    +0.000 NA
ATOM     13  N   UNL     1       5.080   5.534  17.962  0.00  0.00    +0.000 N 
BRANCH  13  14
ATOM     14  C   UNL     1       4.828   5.001  19.297  0.00  0.00    +0.000 C 
BRANCH  14  15
ATOM     15  C   UNL     1       3.451   4.405  19.445  0.00  0.00    +0.000 A 
ATOM     16  C   UNL     1       2.600   4.834  20.474  0.00  0.00    +0.000 A 
ATOM     17  C   UNL     1       1.308   4.316  20.591  0.00  0.00    +0.000 A 
ATOM     18  C   UNL     1       0.846   3.372  19.676  0.00  0.00    +0.000 A 
ATOM     19  C   UNL     1       1.671   2.954  18.636  0.00  0.00    +0.000 A 
ATOM     20  C   UNL     1       2.962   3.470  18.516  0.00  0.00    +0.000 A 
ENDBRANCH  14  15
ENDBRANCH  13  14
ENDBRANCH   7   9
ENDBRANCH   2   5
BRANCH   3  21
ATOM     21  C   UNL     1       0.468  10.939  18.383  0.00  0.00    +0.000 C 
BRANCH  21  22
ATOM     22  C   UNL     1      -1.034  10.870  18.284  0.00  0.00    +0.000 A 
ATOM     23  C   UNL     1      -1.828  11.764  19.013  0.00  0.00    +0.000 A 
ATOM     24  C   UNL     1      -3.226  11.743  18.898  0.00  0.00    +0.000 A 
ATOM     25  C   UNL     1      -3.860  10.820  18.056  0.00  0.00    +0.000 A 
ATOM     26  C   UNL     1      -3.067   9.918  17.333  0.00  0.00    +0.000 A 
ATOM     27  C   UNL     1      -1.670   9.936  17.452  0.00  0.00    +0.000 A 
BRANCH  25  28
ATOM     28  C   UNL     1      -5.365  10.796  17.931  0.00  0.00    +0.000 C 
BRANCH  28  29
ATOM     29  N   UNL     1      -5.956  12.120  17.995  0.00  0.00    +0.000 N 
ATOM     30  C   UNL     1      -6.658  12.662  19.030  0.00  0.00    +0.000 A 
ATOM     31  N   UNL     1      -7.173  13.812  18.659  0.00  0.00    +0.000 NA
ATOM     32  C   UNL     1      -6.764  13.928  17.360  0.00  0.00    +0.000 A 
ATOM     33  N   UNL     1      -6.021  12.914  16.905  0.00  0.00    +0.000 NA
ENDBRANCH  28  29
ENDBRANCH  25  28
ENDBRANCH  21  22
ENDBRANCH   3  21
TORSDOF 8
ENDMDL
