MODEL 1
REMARK VINA RESULT:     -10.6      0.000      0.000
REMARK  Name = 
REMARK  5 active torsions:
REMARK  status: ('A' for Active; 'I' for Inactive)
REMARK    1  A    between atoms: C_1  and  C_2
REMARK    2  A    between atoms: C_7  and  C_8
REMARK    3  A    between atoms: C_12  and  N_13
REMARK    4  A    between atoms: C_14  and  C_16
REMARK    5  A    between atoms: C_17  and  C_18
REMARK                            x       y       z     vdW  Elec       q    Type
REMARK                         _______ _______ _______ _____ _____    ______ ____
ROOT
ATOM      1  N   UNL     1       4.134   3.909  18.777  0.00  0.00    +0.000 N 
ATOM      2  C   UNL     1       3.994   2.828  19.637  0.00  0.00    +0.000 C 
ATOM      3  O   UNL     1       4.926   2.114  20.008  0.00  0.00    +0.000 OA
ATOM      4  H   UNL     1       3.383   4.593  18.741  0.00  0.00    +0.000 HD
ENDROOT
BRANCH   2   5
ATOM      5  C   UNL     1       2.584   2.549  20.136  0.00  0.00    +0.000 A 
ATOM      6  C   UNL     1       1.618   2.928  19.262  0.00  0.00    +0.000 A 
ATOM      7  C   UNL     1       1.257   2.100  18.061  0.00  0.00    +0.000 C 
ATOM      8  C   UNL     1       1.591   4.407  19.171  0.00  0.00    +0.000 A 
ATOM      9  C   UNL     1       1.678   5.110  17.967  0.00  0.00    +0.000 A 
ATOM     10  C   UNL     1       2.101   6.443  17.975  0.00  0.00    +0.000 A 
ATOM     11  C   UNL     1       2.379   7.093  19.182  0.00  0.00    +0.000 A 
ATOM     12  C   UNL     1       2.199   6.431  20.394  0.00  0.00    +0.000 A 
ATOM     13  C   UNL     1       1.830   5.094  20.371  0.00  0.00    +0.000 A 
ATOM     14  O   UNL     1       1.887   4.383  21.583  0.00  0.00    +0.000 OA
ATOM     15  C   UNL     1       2.286   3.056  21.497  0.00  0.00    +0.000 A 
ATOM     16  O   UNL     1       2.444   2.340  22.480  0.00  0.00    +0.000 OA
ENDBRANCH   2   5
BRANCH   1  21
ATOM     17  C   UNL     1       6.628   4.735  16.165  0.00  0.00    +0.000 A 
ATOM     18  C   UNL     1       7.605   5.396  16.920  0.00  0.00    +0.000 A 
ATOM     19  C   UNL     1       7.538   5.364  18.305  0.00  0.00    +0.000 A 
ATOM     20  C   UNL     1       6.448   4.759  18.925  0.00  0.00    +0.000 A 
ATOM     21  C   UNL     1       5.367   4.271  18.177  0.00  0.00    +0.000 A 
ATOM     22  C   UNL     1       5.496   4.187  16.789  0.00  0.00    +0.000 A 
BRANCH  17  29
ATOM     23  C   UNL     1       5.617   2.626  11.921  0.00  0.00    +0.000 C 
ATOM     24  C   UNL     1       6.404   3.667  12.660  0.00  0.00    +0.000 A 
ATOM     25  C   UNL     1       7.250   4.483  12.015  0.00  0.00    +0.000 A 
ATOM     26  C   UNL     1       7.988   5.483  12.790  0.00  0.00    +0.000 A 
ATOM     27  O   UNL     1       8.824   6.220  12.296  0.00  0.00    +0.000 OA
ATOM     28  N   UNL     1       7.681   5.499  14.124  0.00  0.00    +0.000 N 
ATOM     29  C   UNL     1       6.802   4.613  14.690  0.00  0.00    +0.000 A 
ATOM     30  N   UNL     1       6.176   3.707  14.018  0.00  0.00    +0.000 NA
ATOM     31  H   UNL     1       8.216   6.151  14.671  0.00  0.00    +0.000 HD
ENDBRANCH  17  29
ENDBRANCH   1  21
TORSDOF 3
ENDMDL
MODEL 2
REMARK VINA RESULT:     -10.1      0.955      1.550
REMARK  Name = 
REMARK  5 active torsions:
REMARK  status: ('A' for Active; 'I' for Inactive)
REMARK    1  A    between atoms: C_1  and  C_2
REMARK    2  A    between atoms: C_7  and  C_8
REMARK    3  A    between atoms: C_12  and  N_13
REMARK    4  A    between atoms: C_14  and  C_16
REMARK    5  A    between atoms: C_17  and  C_18
REMARK                            x       y       z     vdW  Elec       q    Type
REMARK                         _______ _______ _______ _____ _____    ______ ____
ROOT
ATOM      1  N   UNL     1       4.181   3.925  18.666  0.00  0.00    +0.000 N 
ATOM      2  C   UNL     1       4.089   2.896  19.592  0.00  0.00    +0.000 C 
ATOM      3  O   UNL     1       5.056   2.277  20.038  0.00  0.00    +0.000 OA
ATOM      4  H   UNL     1       3.385   4.549  18.562  0.00  0.00    +0.000 HD
ENDROOT
BRANCH   2   5
ATOM      5  C   UNL     1       2.686   2.546  20.065  0.00  0.00    +0.000 A 
ATOM      6  C   UNL     1       1.714   2.926  19.199  0.00  0.00    +0.000 A 
ATOM      7  C   UNL     1       1.393   2.135  17.962  0.00  0.00    +0.000 C 
ATOM      8  C   UNL     1       1.634   4.405  19.167  0.00  0.00    +0.000 A 
ATOM      9  C   UNL     1       1.705   5.160  17.994  0.00  0.00    +0.000 A 
ATOM     10  C   UNL     1       2.080   6.505  18.060  0.00  0.00    +0.000 A 
ATOM     11  C   UNL     1       2.325   7.115  19.295  0.00  0.00    +0.000 A 
ATOM     12  C   UNL     1       2.160   6.398  20.478  0.00  0.00    +0.000 A 
ATOM     13  C   UNL     1       1.840   5.051  20.397  0.00  0.00    +0.000 A 
ATOM     14  O   UNL     1       1.912   4.294  21.580  0.00  0.00    +0.000 OA
ATOM     15  C   UNL     1       2.360   2.986  21.443  0.00  0.00    +0.000 A 
ATOM     16  O   UNL     1       2.535   2.237  22.398  0.00  0.00    +0.000 OA
ENDBRANCH   2   5
BRANCH   1  21
ATOM     17  C   UNL     1       6.678   4.826  16.081  0.00  0.00    +0.000 A 
ATOM     18  C   UNL     1       7.607   5.550  16.840  0.00  0.00    +0.000 A 
ATOM     19  C   UNL     1       7.517   5.541  18.224  0.00  0.00    +0.000 A 
ATOM     20  C   UNL     1       6.447   4.893  18.837  0.00  0.00    +0.000 A 
ATOM     21  C   UNL     1       5.405   4.338  18.080  0.00  0.00    +0.000 A 
ATOM     22  C   UNL     1       5.564   4.234  16.697  0.00  0.00    +0.000 A 
BRANCH  17  29
ATOM     23  C   UNL     1       8.661   6.279  11.906  0.00  0.00    +0.000 C 
ATOM     24  C   UNL     1       7.754   5.312  12.606  0.00  0.00    +0.000 A 
ATOM     25  C   UNL     1       7.138   4.328  11.933  0.00  0.00    +0.000 A 
ATOM     26  C   UNL     1       6.267   3.412  12.671  0.00  0.00    +0.000 A 
ATOM     27  O   UNL     1       5.618   2.533  12.130  0.00  0.00    +0.000 OA
ATOM     28  N   UNL     1       6.220   3.645  14.020  0.00  0.00    +0.000 N 
ATOM     29  C   UNL     1       6.885   4.685  14.613  0.00  0.00    +0.000 A 
ATOM     30  N   UNL     1       7.626   5.518  13.961  0.00  0.00    +0.000 NA
ATOM     31  H   UNL     1       5.590   3.049  14.527  0.00  0.00    +0.000 HD
ENDBRANCH  17  29
ENDBRANCH   1  21
TORSDOF 3
ENDMDL
MODEL 3
REMARK VINA RESULT:      -9.9      5.068      8.201
REMARK  Name = 
REMARK  5 active torsions:
REMARK  status: ('A' for Active; 'I' for Inactive)
REMARK    1  A    between atoms: C_1  and  C_2
REMARK    2  A    between atoms: C_7  and  C_8
REMARK    3  A    between atoms: C_12  and  N_13
REMARK    4  A    between atoms: C_14  and  C_16
REMARK    5  A    between atoms: C_17  and  C_18
REMARK                            x       y       z     vdW  Elec       q    Type
REMARK                         _______ _______ _______ _____ _____    ______ ____
ROOT
ATOM      1  N   UNL     1       0.615   9.841  20.534  0.00  0.00    +0.000 N 
ATOM      2  C   UNL     1      -0.626  10.314  20.131  0.00  0.00    +0.000 C 
ATOM      3  O   UNL     1      -1.158  10.035  19.056  0.00  0.00    +0.000 OA
ATOM      4  H   UNL     1       0.851   9.894  21.522  0.00  0.00    +0.000 HD
ENDROOT
BRANCH   2   5
ATOM      5  C   UNL     1      -1.345  11.226  21.114  0.00  0.00    +0.000 A 
ATOM      6  C   UNL     1      -1.793  12.376  20.553  0.00  0.00    +0.000 A 
ATOM      7  C   UNL     1      -3.050  12.428  19.731  0.00  0.00    +0.000 C 
ATOM      8  C   UNL     1      -0.637  13.226  20.183  0.00  0.00    +0.000 A 
ATOM      9  C   UNL     1      -0.440  13.752  18.904  0.00  0.00    +0.000 A 
ATOM     10  C   UNL     1       0.844  14.136  18.506  0.00  0.00    +0.000 A 
ATOM     11  C   UNL     1       1.919  14.053  19.397  0.00  0.00    +0.000 A 
ATOM     12  C   UNL     1       1.715  13.624  20.706  0.00  0.00    +0.000 A 
ATOM     13  C   UNL     1       0.448  13.196  21.073  0.00  0.00    +0.000 A 
ATOM     14  O   UNL     1       0.315  12.547  22.314  0.00  0.00    +0.000 OA
ATOM     15  C   UNL     1      -0.604  11.508  22.367  0.00  0.00    +0.000 A 
ATOM     16  O   UNL     1      -0.772  10.814  23.364  0.00  0.00    +0.000 OA
ENDBRANCH   2   5
BRANCH   1  21
ATOM     17  C   UNL     1       2.365   6.844  19.237  0.00  0.00    +0.000 A 
ATOM     18  C   UNL     1       2.679   7.255  17.935  0.00  0.00    +0.000 A 
ATOM     19  C   UNL     1       2.513   8.583  17.576  0.00  0.00    +0.000 A 
ATOM     20  C   UNL     1       1.943   9.473  18.485  0.00  0.00    +0.000 A 
ATOM     21  C   UNL     1       1.441   9.028  19.717  0.00  0.00    +0.000 A 
ATOM     22  C   UNL     1       1.727   7.724  20.125  0.00  0.00    +0.000 A 
BRANCH  17  29
ATOM     23  C   UNL     1       1.357   2.749  21.622  0.00  0.00    +0.000 C 
ATOM     24  C   UNL     1       2.335   3.516  20.785  0.00  0.00    +0.000 A 
ATOM     25  C   UNL     1       3.510   2.978  20.424  0.00  0.00    +0.000 A 
ATOM     26  C   UNL     1       4.424   3.774  19.602  0.00  0.00    +0.000 A 
ATOM     27  O   UNL     1       5.537   3.390  19.286  0.00  0.00    +0.000 OA
ATOM     28  N   UNL     1       3.934   5.002  19.246  0.00  0.00    +0.000 N 
ATOM     29  C   UNL     1       2.717   5.464  19.673  0.00  0.00    +0.000 A 
ATOM     30  N   UNL     1       1.923   4.781  20.427  0.00  0.00    +0.000 NA
ATOM     31  H   UNL     1       4.573   5.572  18.720  0.00  0.00    +0.000 HD
ENDBRANCH  17  29
ENDBRANCH   1  21
TORSDOF 3
ENDMDL
MODEL 4
REMARK VINA RESULT:      -9.7      4.970      8.200
REMARK  Name = 
REMARK  5 active torsions:
REMARK  status: ('A' for Active; 'I' for Inactive)
REMARK    1  A    between atoms: C_1  and  C_2
REMARK    2  A    between atoms: C_7  and  C_8
REMARK    3  A    between atoms: C_12  and  N_13
REMARK    4  A    between atoms: C_14  and  C_16
REMARK    5  A    between atoms: C_17  and  C_18
REMARK                            x       y       z     vdW  Elec       q    Type
REMARK                         _______ _______ _______ _____ _____    ______ ____
ROOT
ATOM      1  N   UNL     1       0.627   9.612  20.505  0.00  0.00    +0.000 N 
ATOM      2  C   UNL     1      -0.527  10.222  20.033  0.00  0.00    +0.000 C 
ATOM      3  O   UNL     1      -0.969  10.079  18.893  0.00  0.00    +0.000 OA
ATOM      4  H   UNL     1       0.767   9.564  21.511  0.00  0.00    +0.000 HD
ENDROOT
BRANCH   2   5
ATOM      5  C   UNL     1      -1.266  11.110  21.024  0.00  0.00    +0.000 A 
ATOM      6  C   UNL     1      -1.705  12.273  20.481  0.00  0.00    +0.000 A 
ATOM      7  C   UNL     1      -2.946  12.342  19.637  0.00  0.00    +0.000 C 
ATOM      8  C   UNL     1      -0.543  13.133  20.153  0.00  0.00    +0.000 A 
ATOM      9  C   UNL     1      -0.323  13.688  18.890  0.00  0.00    +0.000 A 
ATOM     10  C   UNL     1       0.967  14.082  18.525  0.00  0.00    +0.000 A 
ATOM     11  C   UNL     1       2.026  13.981  19.434  0.00  0.00    +0.000 A 
ATOM     12  C   UNL     1       1.798  13.521  20.729  0.00  0.00    +0.000 A 
ATOM     13  C   UNL     1       0.525  13.084  21.062  0.00  0.00    +0.000 A 
ATOM     14  O   UNL     1       0.370  12.405  22.285  0.00  0.00    +0.000 OA
ATOM     15  C   UNL     1      -0.549  11.364  22.296  0.00  0.00    +0.000 A 
ATOM     16  O   UNL     1      -0.734  10.647  23.274  0.00  0.00    +0.000 OA
ENDBRANCH   2   5
BRANCH   1  21
ATOM     17  C   UNL     1       2.296   6.595  19.149  0.00  0.00    +0.000 A 
ATOM     18  C   UNL     1       2.727   7.060  17.901  0.00  0.00    +0.000 A 
ATOM     19  C   UNL     1       2.661   8.415  17.614  0.00  0.00    +0.000 A 
ATOM     20  C   UNL     1       2.077   9.283  18.534  0.00  0.00    +0.000 A 
ATOM     21  C   UNL     1       1.464   8.800  19.698  0.00  0.00    +0.000 A 
ATOM     22  C   UNL     1       1.647   7.459  20.044  0.00  0.00    +0.000 A 
BRANCH  17  29
ATOM     23  C   UNL     1       3.604   2.066  18.032  0.00  0.00    +0.000 C 
ATOM     24  C   UNL     1       3.116   3.018  19.081  0.00  0.00    +0.000 A 
ATOM     25  C   UNL     1       2.901   2.610  20.341  0.00  0.00    +0.000 A 
ATOM     26  C   UNL     1       2.427   3.587  21.324  0.00  0.00    +0.000 A 
ATOM     27  O   UNL     1       2.144   3.288  22.471  0.00  0.00    +0.000 OA
ATOM     28  N   UNL     1       2.299   4.859  20.835  0.00  0.00    +0.000 N 
ATOM     29  C   UNL     1       2.539   5.174  19.523  0.00  0.00    +0.000 A 
ATOM     30  N   UNL     1       2.922   4.310  18.645  0.00  0.00    +0.000 NA
ATOM     31  H   UNL     1       1.932   5.526  21.491  0.00  0.00    +0.000 HD
ENDBRANCH  17  29
ENDBRANCH   1  21
TORSDOF 3
ENDMDL
MODEL 5
REMARK VINA RESULT:      -9.6     10.496     13.608
REMARK  Name = 
REMARK  5 active torsions:
REMARK  status: ('A' for Active; 'I' for Inactive)
REMARK    1  A    between atoms: C_1  and  C_2
REMARK    2  A    between atoms: C_7  and  C_8
REMARK    3  A    between atoms: C_12  and  N_13
REMARK    4  A    between atoms: C_14  and  C_16
REMARK    5  A    between atoms: C_17  and  C_18
REMARK                            x       y       z     vdW  Elec       q    Type
REMARK                         _______ _______ _______ _____ _____    ______ ____
ROOT
ATOM      1  N   UNL     1      -6.518  13.309  21.434  0.00  0.00    +0.000 N 
ATOM      2  C   UNL     1      -6.174  14.476  22.101  0.00  0.00    +0.000 C 
ATOM      3  O   UNL     1      -5.852  15.524  21.542  0.00  0.00    +0.000 OA
ATOM      4  H   UNL     1      -7.023  12.592  21.950  0.00  0.00    +0.000 HD
ENDROOT
BRANCH   2   5
ATOM      5  C   UNL     1      -6.217  14.415  23.621  0.00  0.00    +0.000 A 
ATOM      6  C   UNL     1      -5.177  15.050  24.216  0.00  0.00    +0.000 A 
ATOM      7  C   UNL     1      -5.138  16.545  24.371  0.00  0.00    +0.000 C 
ATOM      8  C   UNL     1      -3.925  14.306  23.945  0.00  0.00    +0.000 A 
ATOM      9  C   UNL     1      -2.780  14.889  23.396  0.00  0.00    +0.000 A 
ATOM     10  C   UNL     1      -1.835  14.083  22.756  0.00  0.00    +0.000 A 
ATOM     11  C   UNL     1      -1.996  12.694  22.713  0.00  0.00    +0.000 A 
ATOM     12  C   UNL     1      -3.083  12.094  23.344  0.00  0.00    +0.000 A 
ATOM     13  C   UNL     1      -4.041  12.907  23.930  0.00  0.00    +0.000 A 
ATOM     14  O   UNL     1      -5.241  12.302  24.347  0.00  0.00    +0.000 OA
ATOM     15  C   UNL     1      -6.395  13.057  24.190  0.00  0.00    +0.000 A 
ATOM     16  O   UNL     1      -7.515  12.628  24.449  0.00  0.00    +0.000 OA
ENDBRANCH   2   5
BRANCH   1  21
ATOM     17  C   UNL     1      -5.479  12.149  18.072  0.00  0.00    +0.000 A 
ATOM     18  C   UNL     1      -6.592  12.511  17.304  0.00  0.00    +0.000 A 
ATOM     19  C   UNL     1      -7.569  13.329  17.853  0.00  0.00    +0.000 A 
ATOM     20  C   UNL     1      -7.479  13.698  19.193  0.00  0.00    +0.000 A 
ATOM     21  C   UNL     1      -6.476  13.178  20.023  0.00  0.00    +0.000 A 
ATOM     22  C   UNL     1      -5.426  12.465  19.439  0.00  0.00    +0.000 A 
BRANCH  17  29
ATOM     23  C   UNL     1      -1.005  10.293  18.173  0.00  0.00    +0.000 C 
ATOM     24  C   UNL     1      -2.250  10.550  17.378  0.00  0.00    +0.000 A 
ATOM     25  C   UNL     1      -2.355  10.139  16.105  0.00  0.00    +0.000 A 
ATOM     26  C   UNL     1      -3.597  10.415  15.380  0.00  0.00    +0.000 A 
ATOM     27  O   UNL     1      -3.754  10.137  14.204  0.00  0.00    +0.000 OA
ATOM     28  N   UNL     1      -4.557  11.042  16.128  0.00  0.00    +0.000 N 
ATOM     29  C   UNL     1      -4.347  11.429  17.426  0.00  0.00    +0.000 A 
ATOM     30  N   UNL     1      -3.242  11.219  18.059  0.00  0.00    +0.000 NA
ATOM     31  H   UNL     1      -5.395  11.276  15.625  0.00  0.00    +0.000 HD
ENDBRANCH  17  29
ENDBRANCH   1  21
TORSDOF 3
ENDMDL
MODEL 6
REMARK VINA RESULT:      -9.4      3.889      8.248
REMARK  Name = 
REMARK  5 active torsions:
REMARK  status: ('A' for Active; 'I' for Inactive)
REMARK    1  A    between atoms: C_1  and  C_2
REMARK    2  A    between atoms: C_7  and  C_8
REMARK    3  A    between atoms: C_12  and  N_13
REMARK    4  A    between atoms: C_14  and  C_16
REMARK    5  A    between atoms: C_17  and  C_18
REMARK                            x       y       z     vdW  Elec       q    Type
REMARK                         _______ _______ _______ _____ _____    ______ ____
ROOT
ATOM      1  N   UNL     1       3.422   6.669  18.779  0.00  0.00    +0.000 N 
ATOM      2  C   UNL     1       4.325   6.348  17.775  0.00  0.00    +0.000 C 
ATOM      3  O   UNL     1       4.442   6.975  16.722  0.00  0.00    +0.000 OA
ATOM      4  H   UNL     1       3.576   6.280  19.706  0.00  0.00    +0.000 HD
ENDROOT
BRANCH   2   5
ATOM      5  C   UNL     1       5.214   5.141  18.038  0.00  0.00    +0.000 A 
ATOM      6  C   UNL     1       4.733   3.991  17.506  0.00  0.00    +0.000 A 
ATOM      7  C   UNL     1       4.877   3.663  16.046  0.00  0.00    +0.000 C 
ATOM      8  C   UNL     1       3.503   3.591  18.231  0.00  0.00    +0.000 A 
ATOM      9  C   UNL     1       2.286   3.319  17.601  0.00  0.00    +0.000 A 
ATOM     10  C   UNL     1       1.098   3.401  18.332  0.00  0.00    +0.000 A 
ATOM     11  C   UNL     1       1.123   3.694  19.700  0.00  0.00    +0.000 A 
ATOM     12  C   UNL     1       2.338   3.868  20.359  0.00  0.00    +0.000 A 
ATOM     13  C   UNL     1       3.506   3.837  19.613  0.00  0.00    +0.000 A 
ATOM     14  O   UNL     1       4.693   4.249  20.246  0.00  0.00    +0.000 OA
ATOM     15  C   UNL     1       5.600   4.941  19.455  0.00  0.00    +0.000 A 
ATOM     16  O   UNL     1       6.643   5.417  19.894  0.00  0.00    +0.000 OA
ENDBRANCH   2   5
BRANCH   1  21
ATOM     17  C   UNL     1       1.076   9.360  19.771  0.00  0.00    +0.000 A 
ATOM     18  C   UNL     1       0.978  10.088  18.579  0.00  0.00    +0.000 A 
ATOM     19  C   UNL     1       1.503   9.562  17.408  0.00  0.00    +0.000 A 
ATOM     20  C   UNL     1       2.207   8.361  17.452  0.00  0.00    +0.000 A 
ATOM     21  C   UNL     1       2.483   7.726  18.672  0.00  0.00    +0.000 A 
ATOM     22  C   UNL     1       1.845   8.186  19.825  0.00  0.00    +0.000 A 
BRANCH  17  29
ATOM     23  C   UNL     1      -2.282  12.123  21.906  0.00  0.00    +0.000 C 
ATOM     24  C   UNL     1      -1.183  11.117  22.068  0.00  0.00    +0.000 A 
ATOM     25  C   UNL     1      -0.850  10.645  23.279  0.00  0.00    +0.000 A 
ATOM     26  C   UNL     1       0.230   9.660  23.375  0.00  0.00    +0.000 A 
ATOM     27  O   UNL     1       0.640   9.229  24.438  0.00  0.00    +0.000 OA
ATOM     28  N   UNL     1       0.760   9.289  22.169  0.00  0.00    +0.000 N 
ATOM     29  C   UNL     1       0.353   9.839  20.982  0.00  0.00    +0.000 A 
ATOM     30  N   UNL     1      -0.574  10.732  20.895  0.00  0.00    +0.000 NA
ATOM     31  H   UNL     1       1.532   8.648  22.229  0.00  0.00    +0.000 HD
ENDBRANCH  17  29
ENDBRANCH   1  21
TORSDOF 3
ENDMDL
MODEL 7
REMARK VINA RESULT:      -9.4     10.024     13.175
REMARK  Name = 
REMARK  5 active torsions:
REMARK  status: ('A' for Active; 'I' for Inactive)
REMARK    1  A    between atoms: C_1  and  C_2
REMARK    2  A    between atoms: C_7  and  C_8
REMARK    3  A    between atoms: C_12  and  N_13
REMARK    4  A    between atoms: C_14  and  C_16
REMARK    5  A    between atoms: C_17  and  C_18
REMARK                            x       y       z     vdW  Elec       q    Type
REMARK                         _______ _______ _______ _____ _____    ______ ____
ROOT
ATOM      1  N   UNL     1      -6.202  13.150  21.433  0.00  0.00    +0.000 N 
ATOM      2  C   UNL     1      -5.549  14.150  22.141  0.00  0.00    +0.000 C 
ATOM      3  O   UNL     1      -4.956  15.094  21.619  0.00  0.00    +0.000 OA
ATOM      4  H   UNL     1      -6.880  12.577  21.927  0.00  0.00    +0.000 HD
ENDROOT
BRANCH   2   5
ATOM      5  C   UNL     1      -5.599  14.036  23.657  0.00  0.00    +0.000 A 
ATOM      6  C   UNL     1      -4.577  14.672  24.280  0.00  0.00    +0.000 A 
ATOM      7  C   UNL     1      -4.570  16.161  24.486  0.00  0.00    +0.000 C 
ATOM      8  C   UNL     1      -3.307  13.964  23.992  0.00  0.00    +0.000 A 
ATOM      9  C   UNL     1      -2.172  14.590  23.471  0.00  0.00    +0.000 A 
ATOM     10  C   UNL     1      -1.206  13.825  22.809  0.00  0.00    +0.000 A 
ATOM     11  C   UNL     1      -1.337  12.436  22.719  0.00  0.00    +0.000 A 
ATOM     12  C   UNL     1      -2.415  11.792  23.322  0.00  0.00    +0.000 A 
ATOM     13  C   UNL     1      -3.394  12.564  23.929  0.00  0.00    +0.000 A 
ATOM     14  O   UNL     1      -4.582  11.920  24.317  0.00  0.00    +0.000 OA
ATOM     15  C   UNL     1      -5.751  12.656  24.179  0.00  0.00    +0.000 A 
ATOM     16  O   UNL     1      -6.863  12.195  24.416  0.00  0.00    +0.000 OA
ENDBRANCH   2   5
BRANCH   1  21
ATOM     17  C   UNL     1      -5.300  12.092  17.999  0.00  0.00    +0.000 A 
ATOM     18  C   UNL     1      -6.421  12.523  17.278  0.00  0.00    +0.000 A 
ATOM     19  C   UNL     1      -7.352  13.350  17.887  0.00  0.00    +0.000 A 
ATOM     20  C   UNL     1      -7.211  13.663  19.238  0.00  0.00    +0.000 A 
ATOM     21  C   UNL     1      -6.204  13.075  20.017  0.00  0.00    +0.000 A 
ATOM     22  C   UNL     1      -5.197  12.350  19.375  0.00  0.00    +0.000 A 
BRANCH  17  29
ATOM     23  C   UNL     1      -3.446  10.030  14.025  0.00  0.00    +0.000 C 
ATOM     24  C   UNL     1      -3.277  10.349  15.480  0.00  0.00    +0.000 A 
ATOM     25  C   UNL     1      -2.168   9.990  16.144  0.00  0.00    +0.000 A 
ATOM     26  C   UNL     1      -2.058  10.333  17.563  0.00  0.00    +0.000 A 
ATOM     27  O   UNL     1      -1.116   9.989  18.257  0.00  0.00    +0.000 OA
ATOM     28  N   UNL     1      -3.118  11.047  18.053  0.00  0.00    +0.000 N 
ATOM     29  C   UNL     1      -4.213  11.359  17.291  0.00  0.00    +0.000 A 
ATOM     30  N   UNL     1      -4.331  11.029  16.049  0.00  0.00    +0.000 NA
ATOM     31  H   UNL     1      -3.071  11.247  19.037  0.00  0.00    +0.000 HD
ENDBRANCH  17  29
ENDBRANCH   1  21
TORSDOF 3
ENDMDL
MODEL 8
REMARK VINA RESULT:      -9.2      3.764      8.520
REMARK  Name = 
REMARK  5 active torsions:
REMARK  status: ('A' for Active; 'I' for Inactive)
REMARK    1  A    between atoms: C_1  and  C_2
REMARK    2  A    between atoms: C_7  and  C_8
REMARK    3  A    between atoms: C_12  and  N_13
REMARK    4  A    between atoms: C_14  and  C_16
REMARK    5  A    between atoms: C_17  and  C_18
REMARK                            x       y       z     vdW  Elec       q    Type
REMARK                         _______ _______ _______ _____ _____    ______ ____
ROOT
ATOM      1  N   UNL     1       3.319   6.222  19.268  0.00  0.00    +0.000 N 
ATOM      2  C   UNL     1       4.619   6.116  18.795  0.00  0.00    +0.000 C 
ATOM      3  O   UNL     1       5.183   6.977  18.119  0.00  0.00    +0.000 OA
ATOM      4  H   UNL     1       3.033   5.609  20.027  0.00  0.00    +0.000 HD
ENDROOT
BRANCH   2   5
ATOM      5  C   UNL     1       5.362   4.840  19.164  0.00  0.00    +0.000 A 
ATOM      6  C   UNL     1       6.584   4.741  18.584  0.00  0.00    +0.000 A 
ATOM      7  C   UNL     1       7.782   5.480  19.112  0.00  0.00    +0.000 C 
ATOM      8  C   UNL     1       6.421   4.552  17.123  0.00  0.00    +0.000 A 
ATOM      9  C   UNL     1       7.042   5.356  16.165  0.00  0.00    +0.000 A 
ATOM     10  C   UNL     1       6.509   5.428  14.875  0.00  0.00    +0.000 A 
ATOM     11  C   UNL     1       5.397   4.656  14.520  0.00  0.00    +0.000 A 
ATOM     12  C   UNL     1       4.831   3.776  15.440  0.00  0.00    +0.000 A 
ATOM     13  C   UNL     1       5.336   3.753  16.731  0.00  0.00    +0.000 A 
ATOM     14  O   UNL     1       4.606   3.042  17.701  0.00  0.00    +0.000 OA
ATOM     15  C   UNL     1       4.591   3.588  18.978  0.00  0.00    +0.000 A 
ATOM     16  O   UNL     1       3.940   3.110  19.902  0.00  0.00    +0.000 OA
ENDBRANCH   2   5
BRANCH   1  21
ATOM     17  C   UNL     1       1.108   9.154  19.760  0.00  0.00    +0.000 A 
ATOM     18  C   UNL     1       1.149   9.743  18.490  0.00  0.00    +0.000 A 
ATOM     19  C   UNL     1       1.718   9.050  17.432  0.00  0.00    +0.000 A 
ATOM     20  C   UNL     1       2.328   7.820  17.666  0.00  0.00    +0.000 A 
ATOM     21  C   UNL     1       2.469   7.317  18.968  0.00  0.00    +0.000 A 
ATOM     22  C   UNL     1       1.784   7.949  20.008  0.00  0.00    +0.000 A 
BRANCH  17  29
ATOM     23  C   UNL     1      -2.096  12.442  21.309  0.00  0.00    +0.000 C 
ATOM     24  C   UNL     1      -1.138  11.345  21.665  0.00  0.00    +0.000 A 
ATOM     25  C   UNL     1      -0.973  10.955  22.938  0.00  0.00    +0.000 A 
ATOM     26  C   UNL     1      -0.025   9.876  23.223  0.00  0.00    +0.000 A 
ATOM     27  O   UNL     1       0.235   9.505  24.355  0.00  0.00    +0.000 OA
ATOM     28  N   UNL     1       0.569   9.340  22.112  0.00  0.00    +0.000 N 
ATOM     29  C   UNL     1       0.336   9.817  20.849  0.00  0.00    +0.000 A 
ATOM     30  N   UNL     1      -0.471  10.791  20.595  0.00  0.00    +0.000 NA
ATOM     31  H   UNL     1       1.254   8.630  22.303  0.00  0.00    +0.000 HD
ENDBRANCH  17  29
ENDBRANCH   1  21
TORSDOF 3
ENDMDL
MODEL 9
REMARK VINA RESULT:      -9.2      4.515      7.720
REMARK  Name = 
REMARK  5 active torsions:
REMARK  status: ('A' for Active; 'I' for Inactive)
REMARK    1  A    between atoms: C_1  and  C_2
REMARK    2  A    between atoms: C_7  and  C_8
REMARK    3  A    between atoms: C_12  and  N_13
REMARK    4  A    between atoms: C_14  and  C_16
REMARK    5  A    between atoms: C_17  and  C_18
REMARK                            x       y       z     vdW  Elec       q    Type
REMARK                         _______ _______ _______ _____ _____    ______ ____
ROOT
ATOM      1  N   UNL     1       0.763   9.240  19.370  0.00  0.00    +0.000 N 
ATOM      2  C   UNL     1       0.684   9.735  20.665  0.00  0.00    +0.000 C 
ATOM      3  O   UNL     1       1.524   9.522  21.539  0.00  0.00    +0.000 OA
ATOM      4  H   UNL     1       0.189   9.676  18.654  0.00  0.00    +0.000 HD
ENDROOT
BRANCH   2   5
ATOM      5  C   UNL     1      -0.531  10.596  20.978  0.00  0.00    +0.000 A 
ATOM      6  C   UNL     1      -0.906  11.395  19.948  0.00  0.00    +0.000 A 
ATOM      7  C   UNL     1      -1.692  10.875  18.778  0.00  0.00    +0.000 C 
ATOM      8  C   UNL     1       0.125  12.439  19.736  0.00  0.00    +0.000 A 
ATOM      9  C   UNL     1       0.737  12.683  18.504  0.00  0.00    +0.000 A 
ATOM     10  C   UNL     1       1.978  13.327  18.467  0.00  0.00    +0.000 A 
ATOM     11  C   UNL     1       2.580  13.781  19.645  0.00  0.00    +0.000 A 
ATOM     12  C   UNL     1       1.931  13.631  20.868  0.00  0.00    +0.000 A 
ATOM     13  C   UNL     1       0.727  12.944  20.899  0.00  0.00    +0.000 A 
ATOM     14  O   UNL     1       0.210  12.595  22.160  0.00  0.00    +0.000 OA
ATOM     15  C   UNL     1      -0.443  11.372  22.238  0.00  0.00    +0.000 A 
ATOM     16  O   UNL     1      -0.882  10.914  23.288  0.00  0.00    +0.000 OA
ENDBRANCH   2   5
BRANCH   1  21
ATOM     17  C   UNL     1       2.722   6.142  18.828  0.00  0.00    +0.000 A 
ATOM     18  C   UNL     1       3.535   6.519  17.752  0.00  0.00    +0.000 A 
ATOM     19  C   UNL     1       3.588   7.850  17.365  0.00  0.00    +0.000 A 
ATOM     20  C   UNL     1       2.758   8.778  17.989  0.00  0.00    +0.000 A 
ATOM     21  C   UNL     1       1.798   8.376  18.929  0.00  0.00    +0.000 A 
ATOM     22  C   UNL     1       1.837   7.065  19.408  0.00  0.00    +0.000 A 
BRANCH  17  29
ATOM     23  C   UNL     1       3.662   1.423  18.261  0.00  0.00    +0.000 C 
ATOM     24  C   UNL     1       3.205   2.520  19.174  0.00  0.00    +0.000 A 
ATOM     25  C   UNL     1       2.880   2.268  20.451  0.00  0.00    +0.000 A 
ATOM     26  C   UNL     1       2.443   3.381  21.297  0.00  0.00    +0.000 A 
ATOM     27  O   UNL     1       2.067   3.232  22.447  0.00  0.00    +0.000 OA
ATOM     28  N   UNL     1       2.464   4.601  20.676  0.00  0.00    +0.000 N 
ATOM     29  C   UNL     1       2.808   4.753  19.358  0.00  0.00    +0.000 A 
ATOM     30  N   UNL     1       3.159   3.770  18.598  0.00  0.00    +0.000 NA
ATOM     31  H   UNL     1       2.123   5.363  21.235  0.00  0.00    +0.000 HD
ENDBRANCH  17  29
ENDBRANCH   1  21
TORSDOF 3
ENDMDL
