MODEL 1
REMARK VINA RESULT:      -8.4      0.000      0.000
REMARK  Name = 
REMARK  6 active torsions:
REMARK  status: ('A' for Active; 'I' for Inactive)
REMARK    1  A    between atoms: C_1  and  C_2
REMARK    2  A    between atoms: N_4  and  C_5
REMARK    3  A    between atoms: C_8  and  C_9
REMARK    4  A    between atoms: C_14  and  C_16
REMARK    5  A    between atoms: C_16  and  C_17
REMARK    6  A    between atoms: C_17  and  N_18
REMARK                            x       y       z     vdW  Elec       q    Type
REMARK                         _______ _______ _______ _____ _____    ______ ____
ROOT
ATOM      1  C   UNL     1       0.400  10.311  19.000  0.00  0.00    +0.000 A 
ATOM      2  C   UNL     1       0.941  11.585  18.938  0.00  0.00    +0.000 A 
ATOM      3  S   UNL     1      -0.297  12.725  18.566  0.00  0.00    +0.000 S 
ATOM      4  C   UNL     1      -1.418  11.445  18.481  0.00  0.00    +0.000 A 
ATOM      5  N   UNL     1      -2.712  11.792  18.172  0.00  0.00    +0.000 N 
ATOM      6  C   UNL     1      -3.593  10.831  17.733  0.00  0.00    +0.000 C 
ATOM      7  O   UNL     1      -3.305   9.648  17.511  0.00  0.00    +0.000 OA
ATOM      8  N   UNL     1      -0.946  10.248  18.711  0.00  0.00    +0.000 NA
ATOM      9  H   UNL     1      -2.977  12.754  18.281  0.00  0.00    +0.000 HD
ENDROOT
BRANCH   1  13
ATOM     10  C   UNL     1       2.527   6.697  19.865  0.00  0.00    +0.000 A 
ATOM     11  C   UNL     1       1.748   7.328  20.838  0.00  0.00    +0.000 A 
ATOM     12  C   UNL     1       1.070   8.521  20.568  0.00  0.00    +0.000 A 
ATOM     13  C   UNL     1       1.161   9.108  19.302  0.00  0.00    +0.000 A 
ATOM     14  C   UNL     1       1.988   8.499  18.355  0.00  0.00    +0.000 A 
ATOM     15  F   UNL     1       2.124   9.032  17.129  0.00  0.00    +0.000 F 
ATOM     16  C   UNL     1       2.679   7.317  18.624  0.00  0.00    +0.000 A 
BRANCH  10  20
ATOM     17  C   UNL     1       3.352   3.026  20.158  0.00  0.00    +0.000 C 
ATOM     18  C   UNL     1       2.515   4.228  19.844  0.00  0.00    +0.000 C 
ATOM     19  O   UNL     1       1.383   4.066  19.379  0.00  0.00    +0.000 OA
ATOM     20  N   UNL     1       3.136   5.438  20.084  0.00  0.00    +0.000 N 
ATOM     21  H   UNL     1       4.140   5.428  20.231  0.00  0.00    +0.000 HD
ENDBRANCH  10  20
ENDBRANCH   1  13
BRANCH   6  22
ATOM     22  C   UNL     1      -4.990  11.329  17.431  0.00  0.00    +0.000 C 
BRANCH  22  23
ATOM     23  C   UNL     1      -5.185  12.661  18.162  0.00  0.00    +0.000 C 
BRANCH  23  24
ATOM     24  N   UNL     1      -5.557  12.519  19.557  0.00  0.00    +0.000 N 
ATOM     25  C   UNL     1      -4.762  12.923  20.602  0.00  0.00    +0.000 C 
ATOM     26  O   UNL     1      -3.624  13.337  20.593  0.00  0.00    +0.000 OA
ATOM     27  C   UNL     1      -5.568  12.772  21.814  0.00  0.00    +0.000 A 
ATOM     28  C   UNL     1      -5.259  13.043  23.133  0.00  0.00    +0.000 A 
ATOM     29  C   UNL     1      -6.252  12.791  24.086  0.00  0.00    +0.000 A 
ATOM     30  C   UNL     1      -7.511  12.284  23.702  0.00  0.00    +0.000 A 
ATOM     31  C   UNL     1      -7.802  12.028  22.358  0.00  0.00    +0.000 A 
ATOM     32  C   UNL     1      -6.805  12.284  21.437  0.00  0.00    +0.000 A 
ATOM     33  C   UNL     1      -6.797  12.137  19.984  0.00  0.00    +0.000 C 
ATOM     34  O   UNL     1      -7.746  11.747  19.326  0.00  0.00    +0.000 OA
ENDBRANCH  23  24
ENDBRANCH  22  23
ENDBRANCH   6  22
TORSDOF 5
ENDMDL
MODEL 2
REMARK VINA RESULT:      -8.2      4.073      6.461
REMARK  Name = 
REMARK  6 active torsions:
REMARK  status: ('A' for Active; 'I' for Inactive)
REMARK    1  A    between atoms: C_1  and  C_2
REMARK    2  A    between atoms: N_4  and  C_5
REMARK    3  A    between atoms: C_8  and  C_9
REMARK    4  A    between atoms: C_14  and  C_16
REMARK    5  A    between atoms: C_16  and  C_17
REMARK    6  A    between atoms: C_17  and  N_18
REMARK                            x       y       z     vdW  Elec       q    Type
REMARK                         _______ _______ _______ _____ _____    ______ ____
ROOT
ATOM      1  C   UNL     1       3.389   5.077  18.791  0.00  0.00    +0.000 A 
ATOM      2  C   UNL     1       3.325   4.126  19.796  0.00  0.00    +0.000 A 
ATOM      3  S   UNL     1       2.326   4.701  21.078  0.00  0.00    +0.000 S 
ATOM      4  C   UNL     1       2.100   6.155  20.219  0.00  0.00    +0.000 A 
ATOM      5  N   UNL     1       1.312   7.102  20.829  0.00  0.00    +0.000 N 
ATOM      6  C   UNL     1       1.360   8.410  20.404  0.00  0.00    +0.000 C 
ATOM      7  O   UNL     1       2.127   8.851  19.539  0.00  0.00    +0.000 OA
ATOM      8  N   UNL     1       2.702   6.241  19.062  0.00  0.00    +0.000 NA
ATOM      9  H   UNL     1       0.713   6.802  21.577  0.00  0.00    +0.000 HD
ENDROOT
BRANCH   1  13
ATOM     10  C   UNL     1       5.710   4.630  15.221  0.00  0.00    +0.000 A 
ATOM     11  C   UNL     1       5.365   5.895  15.705  0.00  0.00    +0.000 A 
ATOM     12  C   UNL     1       4.588   6.046  16.858  0.00  0.00    +0.000 A 
ATOM     13  C   UNL     1       4.139   4.919  17.554  0.00  0.00    +0.000 A 
ATOM     14  C   UNL     1       4.441   3.661  17.029  0.00  0.00    +0.000 A 
ATOM     15  F   UNL     1       4.019   2.546  17.649  0.00  0.00    +0.000 F 
ATOM     16  C   UNL     1       5.204   3.504  15.870  0.00  0.00    +0.000 A 
BRANCH  10  20
ATOM     17  C   UNL     1       7.290   3.817  11.891  0.00  0.00    +0.000 C 
ATOM     18  C   UNL     1       6.195   3.910  12.909  0.00  0.00    +0.000 C 
ATOM     19  O   UNL     1       5.059   3.538  12.603  0.00  0.00    +0.000 OA
ATOM     20  N   UNL     1       6.580   4.455  14.118  0.00  0.00    +0.000 N 
ATOM     21  H   UNL     1       7.471   4.939  14.150  0.00  0.00    +0.000 HD
ENDBRANCH  10  20
ENDBRANCH   1  13
BRANCH   6  22
ATOM     22  C   UNL     1       0.443   9.360  21.144  0.00  0.00    +0.000 C 
BRANCH  22  23
ATOM     23  C   UNL     1       0.483  10.711  20.423  0.00  0.00    +0.000 C 
BRANCH  23  24
ATOM     24  N   UNL     1      -0.685  10.978  19.605  0.00  0.00    +0.000 N 
ATOM     25  C   UNL     1      -0.879  10.442  18.355  0.00  0.00    +0.000 C 
ATOM     26  O   UNL     1      -0.127   9.784  17.671  0.00  0.00    +0.000 OA
ATOM     27  C   UNL     1      -2.238  10.810  17.956  0.00  0.00    +0.000 A 
ATOM     28  C   UNL     1      -2.940  10.520  16.802  0.00  0.00    +0.000 A 
ATOM     29  C   UNL     1      -4.244  11.020  16.705  0.00  0.00    +0.000 A 
ATOM     30  C   UNL     1      -4.805  11.783  17.751  0.00  0.00    +0.000 A 
ATOM     31  C   UNL     1      -4.076  12.052  18.914  0.00  0.00    +0.000 A 
ATOM     32  C   UNL     1      -2.791  11.549  18.984  0.00  0.00    +0.000 A 
ATOM     33  C   UNL     1      -1.794  11.643  20.047  0.00  0.00    +0.000 C 
ATOM     34  O   UNL     1      -1.971  12.213  21.110  0.00  0.00    +0.000 OA
ENDBRANCH  23  24
ENDBRANCH  22  23
ENDBRANCH   6  22
TORSDOF 5
ENDMDL
MODEL 3
REMARK VINA RESULT:      -8.1      3.874      6.457
REMARK  Name = 
REMARK  6 active torsions:
REMARK  status: ('A' for Active; 'I' for Inactive)
REMARK    1  A    between atoms: C_1  and  C_2
REMARK    2  A    between atoms: N_4  and  C_5
REMARK    3  A    between atoms: C_8  and  C_9
REMARK    4  A    between atoms: C_14  and  C_16
REMARK    5  A    between atoms: C_16  and  C_17
REMARK    6  A    between atoms: C_17  and  N_18
REMARK                            x       y       z     vdW  Elec       q    Type
REMARK                         _______ _______ _______ _____ _____    ______ ____
ROOT
ATOM      1  C   UNL     1       3.379   5.133  18.827  0.00  0.00    +0.000 A 
ATOM      2  C   UNL     1       3.160   4.147  19.775  0.00  0.00    +0.000 A 
ATOM      3  S   UNL     1       2.046   4.717  20.961  0.00  0.00    +0.000 S 
ATOM      4  C   UNL     1       1.981   6.213  20.147  0.00  0.00    +0.000 A 
ATOM      5  N   UNL     1       1.169   7.171  20.706  0.00  0.00    +0.000 N 
ATOM      6  C   UNL     1       1.320   8.491  20.348  0.00  0.00    +0.000 C 
ATOM      7  O   UNL     1       2.200   8.929  19.595  0.00  0.00    +0.000 OA
ATOM      8  N   UNL     1       2.715   6.316  19.071  0.00  0.00    +0.000 NA
ATOM      9  H   UNL     1       0.476   6.870  21.367  0.00  0.00    +0.000 HD
ENDROOT
BRANCH   1  13
ATOM     10  C   UNL     1       5.862   4.656  15.372  0.00  0.00    +0.000 A 
ATOM     11  C   UNL     1       5.616   3.588  16.239  0.00  0.00    +0.000 A 
ATOM     12  C   UNL     1       4.824   3.744  17.380  0.00  0.00    +0.000 A 
ATOM     13  C   UNL     1       4.258   4.988  17.677  0.00  0.00    +0.000 A 
ATOM     14  C   UNL     1       4.558   6.061  16.835  0.00  0.00    +0.000 A 
ATOM     15  F   UNL     1       4.054   7.282  17.085  0.00  0.00    +0.000 F 
ATOM     16  C   UNL     1       5.360   5.915  15.702  0.00  0.00    +0.000 A 
BRANCH  10  20
ATOM     17  C   UNL     1       6.971   3.877  11.849  0.00  0.00    +0.000 C 
ATOM     18  C   UNL     1       6.026   3.954  13.010  0.00  0.00    +0.000 C 
ATOM     19  O   UNL     1       4.862   3.576  12.863  0.00  0.00    +0.000 OA
ATOM     20  N   UNL     1       6.573   4.496  14.159  0.00  0.00    +0.000 N 
ATOM     21  H   UNL     1       7.456   4.986  14.070  0.00  0.00    +0.000 HD
ENDBRANCH  10  20
ENDBRANCH   1  13
BRANCH   6  22
ATOM     22  C   UNL     1       0.366   9.454  21.021  0.00  0.00    +0.000 C 
BRANCH  22  23
ATOM     23  C   UNL     1       0.273  10.711  20.151  0.00  0.00    +0.000 C 
BRANCH  23  24
ATOM     24  N   UNL     1      -0.867  10.727  19.254  0.00  0.00    +0.000 N 
ATOM     25  C   UNL     1      -2.019  11.434  19.499  0.00  0.00    +0.000 C 
ATOM     26  O   UNL     1      -2.354  12.049  20.487  0.00  0.00    +0.000 OA
ATOM     27  C   UNL     1      -2.831  11.329  18.286  0.00  0.00    +0.000 A 
ATOM     28  C   UNL     1      -4.072  11.861  17.992  0.00  0.00    +0.000 A 
ATOM     29  C   UNL     1      -4.603  11.581  16.728  0.00  0.00    +0.000 A 
ATOM     30  C   UNL     1      -3.889  10.791  15.803  0.00  0.00    +0.000 A 
ATOM     31  C   UNL     1      -2.629  10.274  16.121  0.00  0.00    +0.000 A 
ATOM     32  C   UNL     1      -2.128  10.563  17.376  0.00  0.00    +0.000 A 
ATOM     33  C   UNL     1      -0.861  10.190  17.999  0.00  0.00    +0.000 C 
ATOM     34  O   UNL     1       0.007   9.528  17.453  0.00  0.00    +0.000 OA
ENDBRANCH  23  24
ENDBRANCH  22  23
ENDBRANCH   6  22
TORSDOF 5
ENDMDL
MODEL 4
REMARK VINA RESULT:      -8.1      3.972      5.824
REMARK  Name = 
REMARK  6 active torsions:
REMARK  status: ('A' for Active; 'I' for Inactive)
REMARK    1  A    between atoms: C_1  and  C_2
REMARK    2  A    between atoms: N_4  and  C_5
REMARK    3  A    between atoms: C_8  and  C_9
REMARK    4  A    between atoms: C_14  and  C_16
REMARK    5  A    between atoms: C_16  and  C_17
REMARK    6  A    between atoms: C_17  and  N_18
REMARK                            x       y       z     vdW  Elec       q    Type
REMARK                         _______ _______ _______ _____ _____    ______ ____
ROOT
ATOM      1  C   UNL     1       3.557   6.005  18.235  0.00  0.00    +0.000 A 
ATOM      2  C   UNL     1       3.394   5.495  19.513  0.00  0.00    +0.000 A 
ATOM      3  S   UNL     1       2.354   6.527  20.422  0.00  0.00    +0.000 S 
ATOM      4  C   UNL     1       2.244   7.565  19.075  0.00  0.00    +0.000 A 
ATOM      5  N   UNL     1       1.468   8.688  19.238  0.00  0.00    +0.000 N 
ATOM      6  C   UNL     1       1.601   9.744  18.366  0.00  0.00    +0.000 C 
ATOM      7  O   UNL     1       2.435   9.816  17.454  0.00  0.00    +0.000 OA
ATOM      8  N   UNL     1       2.912   7.203  18.012  0.00  0.00    +0.000 NA
ATOM      9  H   UNL     1       0.816   8.700  20.001  0.00  0.00    +0.000 HD
ENDROOT
BRANCH   1  13
ATOM     10  C   UNL     1       5.833   4.188  15.097  0.00  0.00    +0.000 A 
ATOM     11  C   UNL     1       4.922   3.445  15.853  0.00  0.00    +0.000 A 
ATOM     12  C   UNL     1       4.193   4.029  16.894  0.00  0.00    +0.000 A 
ATOM     13  C   UNL     1       4.366   5.383  17.198  0.00  0.00    +0.000 A 
ATOM     14  C   UNL     1       5.320   6.100  16.474  0.00  0.00    +0.000 A 
ATOM     15  F   UNL     1       5.538   7.400  16.738  0.00  0.00    +0.000 F 
ATOM     16  C   UNL     1       6.061   5.519  15.444  0.00  0.00    +0.000 A 
BRANCH  10  20
ATOM     17  C   UNL     1       6.809   2.842  11.708  0.00  0.00    +0.000 C 
ATOM     18  C   UNL     1       5.905   3.436  12.746  0.00  0.00    +0.000 C 
ATOM     19  O   UNL     1       4.744   3.718  12.440  0.00  0.00    +0.000 OA
ATOM     20  N   UNL     1       6.502   3.644  13.974  0.00  0.00    +0.000 N 
ATOM     21  H   UNL     1       7.515   3.597  14.016  0.00  0.00    +0.000 HD
ENDBRANCH  10  20
ENDBRANCH   1  13
BRANCH   6  22
ATOM     22  C   UNL     1       0.691  10.922  18.640  0.00  0.00    +0.000 C 
BRANCH  22  23
ATOM     23  C   UNL     1      -0.516  10.411  19.434  0.00  0.00    +0.000 C 
BRANCH  23  24
ATOM     24  N   UNL     1      -1.779  11.003  19.035  0.00  0.00    +0.000 N 
ATOM     25  C   UNL     1      -2.466  10.639  17.902  0.00  0.00    +0.000 C 
ATOM     26  O   UNL     1      -2.139   9.895  17.003  0.00  0.00    +0.000 OA
ATOM     27  C   UNL     1      -3.754  11.332  17.962  0.00  0.00    +0.000 A 
ATOM     28  C   UNL     1      -4.822  11.310  17.087  0.00  0.00    +0.000 A 
ATOM     29  C   UNL     1      -5.935  12.092  17.419  0.00  0.00    +0.000 A 
ATOM     30  C   UNL     1      -5.952  12.861  18.601  0.00  0.00    +0.000 A 
ATOM     31  C   UNL     1      -4.861  12.856  19.476  0.00  0.00    +0.000 A 
ATOM     32  C   UNL     1      -3.774  12.078  19.125  0.00  0.00    +0.000 A 
ATOM     33  C   UNL     1      -2.508  11.852  19.817  0.00  0.00    +0.000 C 
ATOM     34  O   UNL     1      -2.211  12.349  20.890  0.00  0.00    +0.000 OA
ENDBRANCH  23  24
ENDBRANCH  22  23
ENDBRANCH   6  22
TORSDOF 5
ENDMDL
MODEL 5
REMARK VINA RESULT:      -8.1      3.055     10.517
REMARK  Name = 
REMARK  6 active torsions:
REMARK  status: ('A' for Active; 'I' for Inactive)
REMARK    1  A    between atoms: C_1  and  C_2
REMARK    2  A    between atoms: N_4  and  C_5
REMARK    3  A    between atoms: C_8  and  C_9
REMARK    4  A    between atoms: C_14  and  C_16
REMARK    5  A    between atoms: C_16  and  C_17
REMARK    6  A    between atoms: C_17  and  N_18
REMARK                            x       y       z     vdW  Elec       q    Type
REMARK                         _______ _______ _______ _____ _____    ______ ____
ROOT
ATOM      1  C   UNL     1      -0.849  11.588  20.441  0.00  0.00    +0.000 A 
ATOM      2  C   UNL     1      -0.179  12.255  19.428  0.00  0.00    +0.000 A 
ATOM      3  S   UNL     1       1.055  11.239  18.780  0.00  0.00    +0.000 S 
ATOM      4  C   UNL     1       0.624  10.036  19.908  0.00  0.00    +0.000 A 
ATOM      5  N   UNL     1       1.357   8.874  19.864  0.00  0.00    +0.000 N 
ATOM      6  C   UNL     1       1.336   8.009  20.934  0.00  0.00    +0.000 C 
ATOM      7  O   UNL     1       0.755   8.217  22.007  0.00  0.00    +0.000 OA
ATOM      8  N   UNL     1      -0.359  10.330  20.717  0.00  0.00    +0.000 NA
ATOM      9  H   UNL     1       1.893   8.690  19.035  0.00  0.00    +0.000 HD
ENDROOT
BRANCH   1  13
ATOM     10  C   UNL     1      -4.180  13.121  22.651  0.00  0.00    +0.000 A 
ATOM     11  C   UNL     1      -4.115  13.248  21.261  0.00  0.00    +0.000 A 
ATOM     12  C   UNL     1      -3.018  12.769  20.537  0.00  0.00    +0.000 A 
ATOM     13  C   UNL     1      -1.956  12.147  21.201  0.00  0.00    +0.000 A 
ATOM     14  C   UNL     1      -2.007  12.077  22.595  0.00  0.00    +0.000 A 
ATOM     15  F   UNL     1      -1.004  11.504  23.283  0.00  0.00    +0.000 F 
ATOM     16  C   UNL     1      -3.091  12.566  23.324  0.00  0.00    +0.000 A 
BRANCH  10  20
ATOM     17  C   UNL     1      -7.605  13.427  24.208  0.00  0.00    +0.000 C 
ATOM     18  C   UNL     1      -6.533  12.835  23.344  0.00  0.00    +0.000 C 
ATOM     19  O   UNL     1      -6.778  11.813  22.699  0.00  0.00    +0.000 OA
ATOM     20  N   UNL     1      -5.324  13.504  23.391  0.00  0.00    +0.000 N 
ATOM     21  H   UNL     1      -5.189  14.173  24.141  0.00  0.00    +0.000 HD
ENDBRANCH  10  20
ENDBRANCH   1  13
BRANCH   6  22
ATOM     22  C   UNL     1       2.175   6.761  20.768  0.00  0.00    +0.000 C 
BRANCH  22  23
ATOM     23  C   UNL     1       1.737   6.066  19.475  0.00  0.00    +0.000 C 
BRANCH  23  24
ATOM     24  N   UNL     1       2.830   5.752  18.574  0.00  0.00    +0.000 N 
ATOM     25  C   UNL     1       3.242   4.472  18.294  0.00  0.00    +0.000 C 
ATOM     26  O   UNL     1       2.894   3.421  18.787  0.00  0.00    +0.000 OA
ATOM     27  C   UNL     1       4.231   4.584  17.221  0.00  0.00    +0.000 A 
ATOM     28  C   UNL     1       4.948   3.605  16.561  0.00  0.00    +0.000 A 
ATOM     29  C   UNL     1       5.836   4.027  15.564  0.00  0.00    +0.000 A 
ATOM     30  C   UNL     1       5.979   5.396  15.257  0.00  0.00    +0.000 A 
ATOM     31  C   UNL     1       5.233   6.366  15.933  0.00  0.00    +0.000 A 
ATOM     32  C   UNL     1       4.365   5.924  16.913  0.00  0.00    +0.000 A 
ATOM     33  C   UNL     1       3.452   6.669  17.776  0.00  0.00    +0.000 C 
ATOM     34  O   UNL     1       3.308   7.879  17.744  0.00  0.00    +0.000 OA
ENDBRANCH  23  24
ENDBRANCH  22  23
ENDBRANCH   6  22
TORSDOF 5
ENDMDL
MODEL 6
REMARK VINA RESULT:      -8.0      2.179      3.312
REMARK  Name = 
REMARK  6 active torsions:
REMARK  status: ('A' for Active; 'I' for Inactive)
REMARK    1  A    between atoms: C_1  and  C_2
REMARK    2  A    between atoms: N_4  and  C_5
REMARK    3  A    between atoms: C_8  and  C_9
REMARK    4  A    between atoms: C_14  and  C_16
REMARK    5  A    between atoms: C_16  and  C_17
REMARK    6  A    between atoms: C_17  and  N_18
REMARK                            x       y       z     vdW  Elec       q    Type
REMARK                         _______ _______ _______ _____ _____    ______ ____
ROOT
ATOM      1  C   UNL     1       1.619   8.778  19.296  0.00  0.00    +0.000 A 
ATOM      2  C   UNL     1       1.590   9.661  18.229  0.00  0.00    +0.000 A 
ATOM      3  S   UNL     1       0.798  11.118  18.700  0.00  0.00    +0.000 S 
ATOM      4  C   UNL     1       0.530  10.446  20.243  0.00  0.00    +0.000 A 
ATOM      5  N   UNL     1      -0.146  11.239  21.140  0.00  0.00    +0.000 N 
ATOM      6  C   UNL     1      -0.717  10.676  22.257  0.00  0.00    +0.000 C 
ATOM      7  O   UNL     1      -0.746   9.464  22.510  0.00  0.00    +0.000 OA
ATOM      8  N   UNL     1       0.985   9.236  20.432  0.00  0.00    +0.000 NA
ATOM      9  H   UNL     1      -0.199  12.223  20.947  0.00  0.00    +0.000 HD
ENDROOT
BRANCH   1  13
ATOM     10  C   UNL     1       3.273   4.833  19.123  0.00  0.00    +0.000 A 
ATOM     11  C   UNL     1       2.506   5.248  20.215  0.00  0.00    +0.000 A 
ATOM     12  C   UNL     1       1.982   6.543  20.287  0.00  0.00    +0.000 A 
ATOM     13  C   UNL     1       2.221   7.454  19.253  0.00  0.00    +0.000 A 
ATOM     14  C   UNL     1       3.036   7.046  18.195  0.00  0.00    +0.000 A 
ATOM     15  F   UNL     1       3.310   7.889  17.184  0.00  0.00    +0.000 F 
ATOM     16  C   UNL     1       3.573   5.760  18.125  0.00  0.00    +0.000 A 
BRANCH  10  20
ATOM     17  C   UNL     1       3.716   1.187  18.255  0.00  0.00    +0.000 C 
ATOM     18  C   UNL     1       3.053   2.530  18.258  0.00  0.00    +0.000 C 
ATOM     19  O   UNL     1       2.012   2.688  17.616  0.00  0.00    +0.000 OA
ATOM     20  N   UNL     1       3.723   3.499  18.981  0.00  0.00    +0.000 N 
ATOM     21  H   UNL     1       4.681   3.301  19.251  0.00  0.00    +0.000 HD
ENDBRANCH  10  20
ENDBRANCH   1  13
BRANCH   6  22
ATOM     22  C   UNL     1      -1.428  11.647  23.175  0.00  0.00    +0.000 C 
BRANCH  22  23
ATOM     23  C   UNL     1      -1.775  12.897  22.361  0.00  0.00    +0.000 C 
BRANCH  23  24
ATOM     24  N   UNL     1      -3.083  12.849  21.735  0.00  0.00    +0.000 N 
ATOM     25  C   UNL     1      -3.277  12.624  20.393  0.00  0.00    +0.000 C 
ATOM     26  O   UNL     1      -2.466  12.543  19.497  0.00  0.00    +0.000 OA
ATOM     27  C   UNL     1      -4.721  12.475  20.206  0.00  0.00    +0.000 A 
ATOM     28  C   UNL     1      -5.452  12.225  19.061  0.00  0.00    +0.000 A 
ATOM     29  C   UNL     1      -6.842  12.136  19.199  0.00  0.00    +0.000 A 
ATOM     30  C   UNL     1      -7.455  12.295  20.459  0.00  0.00    +0.000 A 
ATOM     31  C   UNL     1      -6.690  12.536  21.604  0.00  0.00    +0.000 A 
ATOM     32  C   UNL     1      -5.321  12.621  21.442  0.00  0.00    +0.000 A 
ATOM     33  C   UNL     1      -4.263  12.847  22.422  0.00  0.00    +0.000 C 
ATOM     34  O   UNL     1      -4.451  12.995  23.618  0.00  0.00    +0.000 OA
ENDBRANCH  23  24
ENDBRANCH  22  23
ENDBRANCH   6  22
TORSDOF 5
ENDMDL
MODEL 7
REMARK VINA RESULT:      -8.0      2.304      3.594
REMARK  Name = 
REMARK  6 active torsions:
REMARK  status: ('A' for Active; 'I' for Inactive)
REMARK    1  A    between atoms: C_1  and  C_2
REMARK    2  A    between atoms: N_4  and  C_5
REMARK    3  A    between atoms: C_8  and  C_9
REMARK    4  A    between atoms: C_14  and  C_16
REMARK    5  A    between atoms: C_16  and  C_17
REMARK    6  A    between atoms: C_17  and  N_18
REMARK                            x       y       z     vdW  Elec       q    Type
REMARK                         _______ _______ _______ _____ _____    ______ ____
ROOT
ATOM      1  C   UNL     1       1.744   8.833  19.144  0.00  0.00    +0.000 A 
ATOM      2  C   UNL     1       1.883   9.787  18.149  0.00  0.00    +0.000 A 
ATOM      3  S   UNL     1       1.213  11.284  18.681  0.00  0.00    +0.000 S 
ATOM      4  C   UNL     1       0.769  10.537  20.147  0.00  0.00    +0.000 A 
ATOM      5  N   UNL     1       0.117  11.333  21.059  0.00  0.00    +0.000 N 
ATOM      6  C   UNL     1      -0.587  10.757  22.091  0.00  0.00    +0.000 C 
ATOM      7  O   UNL     1      -0.759   9.541  22.246  0.00  0.00    +0.000 OA
ATOM      8  N   UNL     1       1.082   9.274  20.270  0.00  0.00    +0.000 NA
ATOM      9  H   UNL     1       0.179  12.329  20.941  0.00  0.00    +0.000 HD
ENDROOT
BRANCH   1  13
ATOM     10  C   UNL     1       3.229   4.826  18.874  0.00  0.00    +0.000 A 
ATOM     11  C   UNL     1       3.474   5.758  17.861  0.00  0.00    +0.000 A 
ATOM     12  C   UNL     1       2.972   7.061  17.934  0.00  0.00    +0.000 A 
ATOM     13  C   UNL     1       2.208   7.458  19.036  0.00  0.00    +0.000 A 
ATOM     14  C   UNL     1       1.922   6.502  20.014  0.00  0.00    +0.000 A 
ATOM     15  F   UNL     1       1.177   6.827  21.085  0.00  0.00    +0.000 F 
ATOM     16  C   UNL     1       2.408   5.196  19.939  0.00  0.00    +0.000 A 
BRANCH  10  20
ATOM     17  C   UNL     1       3.981   1.143  18.532  0.00  0.00    +0.000 C 
ATOM     18  C   UNL     1       3.166   2.397  18.435  0.00  0.00    +0.000 C 
ATOM     19  O   UNL     1       2.028   2.338  17.963  0.00  0.00    +0.000 OA
ATOM     20  N   UNL     1       3.813   3.537  18.871  0.00  0.00    +0.000 N 
ATOM     21  H   UNL     1       4.818   3.483  19.002  0.00  0.00    +0.000 HD
ENDBRANCH  10  20
ENDBRANCH   1  13
BRANCH   6  22
ATOM     22  C   UNL     1      -1.257  11.733  23.036  0.00  0.00    +0.000 C 
BRANCH  22  23
ATOM     23  C   UNL     1      -1.787  12.905  22.205  0.00  0.00    +0.000 C 
BRANCH  23  24
ATOM     24  N   UNL     1      -3.035  12.627  21.519  0.00  0.00    +0.000 N 
ATOM     25  C   UNL     1      -4.256  12.588  22.148  0.00  0.00    +0.000 C 
ATOM     26  O   UNL     1      -4.522  12.653  23.328  0.00  0.00    +0.000 OA
ATOM     27  C   UNL     1      -5.259  12.459  21.089  0.00  0.00    +0.000 A 
ATOM     28  C   UNL     1      -6.636  12.387  21.167  0.00  0.00    +0.000 A 
ATOM     29  C   UNL     1      -7.338  12.262  19.962  0.00  0.00    +0.000 A 
ATOM     30  C   UNL     1      -6.654  12.217  18.729  0.00  0.00    +0.000 A 
ATOM     31  C   UNL     1      -5.259  12.303  18.678  0.00  0.00    +0.000 A 
ATOM     32  C   UNL     1      -4.590  12.424  19.880  0.00  0.00    +0.000 A 
ATOM     33  C   UNL     1      -3.162  12.546  20.162  0.00  0.00    +0.000 C 
ATOM     34  O   UNL     1      -2.291  12.571  19.309  0.00  0.00    +0.000 OA
ENDBRANCH  23  24
ENDBRANCH  22  23
ENDBRANCH   6  22
TORSDOF 5
ENDMDL
MODEL 8
REMARK VINA RESULT:      -7.9      3.948      6.490
REMARK  Name = 
REMARK  6 active torsions:
REMARK  status: ('A' for Active; 'I' for Inactive)
REMARK    1  A    between atoms: C_1  and  C_2
REMARK    2  A    between atoms: N_4  and  C_5
REMARK    3  A    between atoms: C_8  and  C_9
REMARK    4  A    between atoms: C_14  and  C_16
REMARK    5  A    between atoms: C_16  and  C_17
REMARK    6  A    between atoms: C_17  and  N_18
REMARK                            x       y       z     vdW  Elec       q    Type
REMARK                         _______ _______ _______ _____ _____    ______ ____
ROOT
ATOM      1  C   UNL     1       3.368   4.937  18.876  0.00  0.00    +0.000 A 
ATOM      2  C   UNL     1       3.293   3.975  19.870  0.00  0.00    +0.000 A 
ATOM      3  S   UNL     1       2.298   4.545  21.157  0.00  0.00    +0.000 S 
ATOM      4  C   UNL     1       2.088   6.011  20.314  0.00  0.00    +0.000 A 
ATOM      5  N   UNL     1       1.308   6.959  20.933  0.00  0.00    +0.000 N 
ATOM      6  C   UNL     1       1.370   8.271  20.522  0.00  0.00    +0.000 C 
ATOM      7  O   UNL     1       2.143   8.714  19.663  0.00  0.00    +0.000 OA
ATOM      8  N   UNL     1       2.692   6.104  19.159  0.00  0.00    +0.000 NA
ATOM      9  H   UNL     1       0.705   6.656  21.676  0.00  0.00    +0.000 HD
ENDROOT
BRANCH   1  13
ATOM     10  C   UNL     1       5.459   4.467  15.169  0.00  0.00    +0.000 A 
ATOM     11  C   UNL     1       5.080   3.358  15.931  0.00  0.00    +0.000 A 
ATOM     12  C   UNL     1       4.417   3.507  17.153  0.00  0.00    +0.000 A 
ATOM     13  C   UNL     1       4.118   4.784  17.638  0.00  0.00    +0.000 A 
ATOM     14  C   UNL     1       4.553   5.885  16.896  0.00  0.00    +0.000 A 
ATOM     15  F   UNL     1       4.307   7.134  17.327  0.00  0.00    +0.000 F 
ATOM     16  C   UNL     1       5.228   5.742  15.683  0.00  0.00    +0.000 A 
BRANCH  10  20
ATOM     17  C   UNL     1       7.637   4.659  12.092  0.00  0.00    +0.000 C 
ATOM     18  C   UNL     1       7.226   4.930  13.507  0.00  0.00    +0.000 C 
ATOM     19  O   UNL     1       7.962   5.611  14.226  0.00  0.00    +0.000 OA
ATOM     20  N   UNL     1       6.036   4.337  13.883  0.00  0.00    +0.000 N 
ATOM     21  H   UNL     1       5.664   3.612  13.279  0.00  0.00    +0.000 HD
ENDBRANCH  10  20
ENDBRANCH   1  13
BRANCH   6  22
ATOM     22  C   UNL     1       0.461   9.222  21.271  0.00  0.00    +0.000 C 
BRANCH  22  23
ATOM     23  C   UNL     1       0.559  10.595  20.600  0.00  0.00    +0.000 C 
BRANCH  23  24
ATOM     24  N   UNL     1      -0.552  10.904  19.721  0.00  0.00    +0.000 N 
ATOM     25  C   UNL     1      -0.660  10.433  18.435  0.00  0.00    +0.000 C 
ATOM     26  O   UNL     1       0.138   9.809  17.770  0.00  0.00    +0.000 OA
ATOM     27  C   UNL     1      -1.991  10.820  17.965  0.00  0.00    +0.000 A 
ATOM     28  C   UNL     1      -2.613  10.589  16.753  0.00  0.00    +0.000 A 
ATOM     29  C   UNL     1      -3.909  11.094  16.595  0.00  0.00    +0.000 A 
ATOM     30  C   UNL     1      -4.541  11.802  17.638  0.00  0.00    +0.000 A 
ATOM     31  C   UNL     1      -3.893  12.012  18.859  0.00  0.00    +0.000 A 
ATOM     32  C   UNL     1      -2.614  11.506  18.990  0.00  0.00    +0.000 A 
ATOM     33  C   UNL     1      -1.690  11.545  20.120  0.00  0.00    +0.000 C 
ATOM     34  O   UNL     1      -1.940  12.061  21.197  0.00  0.00    +0.000 OA
ENDBRANCH  23  24
ENDBRANCH  22  23
ENDBRANCH   6  22
TORSDOF 5
ENDMDL
MODEL 9
REMARK VINA RESULT:      -7.9      2.176      3.354
REMARK  Name = 
REMARK  6 active torsions:
REMARK  status: ('A' for Active; 'I' for Inactive)
REMARK    1  A    between atoms: C_1  and  C_2
REMARK    2  A    between atoms: N_4  and  C_5
REMARK    3  A    between atoms: C_8  and  C_9
REMARK    4  A    between atoms: C_14  and  C_16
REMARK    5  A    between atoms: C_16  and  C_17
REMARK    6  A    between atoms: C_17  and  N_18
REMARK                            x       y       z     vdW  Elec       q    Type
REMARK                         _______ _______ _______ _____ _____    ______ ____
ROOT
ATOM      1  C   UNL     1       1.606   8.735  19.280  0.00  0.00    +0.000 A 
ATOM      2  C   UNL     1       1.517   9.586  18.191  0.00  0.00    +0.000 A 
ATOM      3  S   UNL     1       0.705  11.035  18.650  0.00  0.00    +0.000 S 
ATOM      4  C   UNL     1       0.510  10.401  20.220  0.00  0.00    +0.000 A 
ATOM      5  N   UNL     1      -0.153  11.203  21.119  0.00  0.00    +0.000 N 
ATOM      6  C   UNL     1      -0.670  10.658  22.272  0.00  0.00    +0.000 C 
ATOM      7  O   UNL     1      -0.659   9.454  22.558  0.00  0.00    +0.000 OA
ATOM      8  N   UNL     1       1.002   9.208  20.425  0.00  0.00    +0.000 NA
ATOM      9  H   UNL     1      -0.238  12.180  20.901  0.00  0.00    +0.000 HD
ENDROOT
BRANCH   1  13
ATOM     10  C   UNL     1       3.355   4.829  19.147  0.00  0.00    +0.000 A 
ATOM     11  C   UNL     1       2.558   5.228  20.224  0.00  0.00    +0.000 A 
ATOM     12  C   UNL     1       2.003   6.510  20.283  0.00  0.00    +0.000 A 
ATOM     13  C   UNL     1       2.239   7.425  19.252  0.00  0.00    +0.000 A 
ATOM     14  C   UNL     1       3.083   7.034  18.209  0.00  0.00    +0.000 A 
ATOM     15  F   UNL     1       3.356   7.881  17.202  0.00  0.00    +0.000 F 
ATOM     16  C   UNL     1       3.651   5.761  18.153  0.00  0.00    +0.000 A 
BRANCH  10  20
ATOM     17  C   UNL     1       3.841   1.160  18.404  0.00  0.00    +0.000 C 
ATOM     18  C   UNL     1       3.130   2.479  18.421  0.00  0.00    +0.000 C 
ATOM     19  O   UNL     1       2.018   2.568  17.896  0.00  0.00    +0.000 OA
ATOM     20  N   UNL     1       3.839   3.505  19.017  0.00  0.00    +0.000 N 
ATOM     21  H   UNL     1       4.828   3.354  19.184  0.00  0.00    +0.000 HD
ENDBRANCH  10  20
ENDBRANCH   1  13
BRANCH   6  22
ATOM     22  C   UNL     1      -1.371  11.637  23.188  0.00  0.00    +0.000 C 
BRANCH  22  23
ATOM     23  C   UNL     1      -1.822  12.833  22.343  0.00  0.00    +0.000 C 
BRANCH  23  24
ATOM     24  N   UNL     1      -3.128  12.668  21.735  0.00  0.00    +0.000 N 
ATOM     25  C   UNL     1      -4.310  12.783  22.427  0.00  0.00    +0.000 C 
ATOM     26  O   UNL     1      -4.501  12.916  23.616  0.00  0.00    +0.000 OA
ATOM     27  C   UNL     1      -5.378  12.727  21.428  0.00  0.00    +0.000 A 
ATOM     28  C   UNL     1      -6.749  12.807  21.579  0.00  0.00    +0.000 A 
ATOM     29  C   UNL     1      -7.526  12.718  20.418  0.00  0.00    +0.000 A 
ATOM     30  C   UNL     1      -6.920  12.557  19.154  0.00  0.00    +0.000 A 
ATOM     31  C   UNL     1      -5.529  12.490  19.028  0.00  0.00    +0.000 A 
ATOM     32  C   UNL     1      -4.785  12.579  20.188  0.00  0.00    +0.000 A 
ATOM     33  C   UNL     1      -3.339  12.555  20.391  0.00  0.00    +0.000 C 
ATOM     34  O   UNL     1      -2.519  12.457  19.494  0.00  0.00    +0.000 OA
ENDBRANCH  23  24
ENDBRANCH  22  23
ENDBRANCH   6  22
TORSDOF 5
ENDMDL
