MODEL 1
REMARK VINA RESULT:      -9.1      0.000      0.000
REMARK  Name = 
REMARK  5 active torsions:
REMARK  status: ('A' for Active; 'I' for Inactive)
REMARK    1  A    between atoms: C_1  and  C_2
REMARK    2  A    between atoms: C_2  and  S_3
REMARK    3  A    between atoms: C_2  and  C_10
REMARK    4  A    between atoms: S_3  and  C_4
REMARK    5  A    between atoms: N_8  and  C_9
REMARK                            x       y       z     vdW  Elec       q    Type
REMARK                         _______ _______ _______ _____ _____    ______ ____
ROOT
ATOM      1  C   UNL     1       0.027  10.148  20.977  0.00  0.00    +0.000 A 
ATOM      2  C   UNL     1       0.195  11.139  20.002  0.00  0.00    +0.000 A 
ATOM      3  C   UNL     1       0.977  10.862  18.898  0.00  0.00    +0.000 A 
ATOM      4  N   UNL     1       1.585   9.680  18.693  0.00  0.00    +0.000 NA
ATOM      5  C   UNL     1       1.438   8.718  19.616  0.00  0.00    +0.000 A 
ATOM      6  N   UNL     1       2.104   7.491  19.476  0.00  0.00    +0.000 N 
ATOM      7  C   UNL     1       2.910   7.139  18.419  0.00  0.00    +0.000 C 
ATOM      8  O   UNL     1       3.184   7.870  17.467  0.00  0.00    +0.000 OA
ATOM      9  N   UNL     1       3.506   5.876  18.514  0.00  0.00    +0.000 N 
ATOM     10  C   UNL     1       4.621   5.626  17.604  0.00  0.00    +0.000 C 
ATOM     11  C   UNL     1       5.650   4.713  18.212  0.00  0.00    +0.000 C 
ATOM     12  N   UNL     1       5.389   3.812  19.106  0.00  0.00    +0.000 NA
ATOM     13  C   UNL     1       4.050   3.734  19.541  0.00  0.00    +0.000 A 
ATOM     14  C   UNL     1       3.685   2.610  20.289  0.00  0.00    +0.000 A 
ATOM     15  C   UNL     1       2.383   2.459  20.759  0.00  0.00    +0.000 A 
ATOM     16  C   UNL     1       1.428   3.429  20.473  0.00  0.00    +0.000 A 
ATOM     17  C   UNL     1       1.776   4.559  19.726  0.00  0.00    +0.000 A 
ATOM     18  C   UNL     1       3.092   4.743  19.280  0.00  0.00    +0.000 A 
ATOM     19  C   UNL     1       0.654   8.909  20.757  0.00  0.00    +0.000 A 
ATOM     20  H   UNL     1       2.117   6.892  20.284  0.00  0.00    +0.000 HD
ENDROOT
BRANCH   1  22
ATOM     21  C   UNL     1      -0.180   9.686  23.464  0.00  0.00    +0.000 C 
ATOM     22  C   UNL     1      -0.794  10.381  22.241  0.00  0.00    +0.000 C 
BRANCH  22  23
ATOM     23  S   UNL     1      -0.980  12.182  22.536  0.00  0.00    +0.000 S 
BRANCH  23  24
ATOM     24  C   UNL     1      -2.696  12.340  22.686  0.00  0.00    +0.000 A 
ATOM     25  N   UNL     1      -3.423  12.120  23.756  0.00  0.00    +0.000 NA
ATOM     26  N   UNL     1      -4.732  12.422  23.438  0.00  0.00    +0.000 NA
ATOM     27  C   UNL     1      -4.759  12.803  22.181  0.00  0.00    +0.000 A 
ATOM     28  N   UNL     1      -3.500  12.751  21.662  0.00  0.00    +0.000 N 
ATOM     29  C   UNL     1      -3.125  13.092  20.316  0.00  0.00    +0.000 C 
ENDBRANCH  23  24
ENDBRANCH  22  23
ENDBRANCH   1  22
TORSDOF 3
ENDMDL
MODEL 2
REMARK VINA RESULT:      -9.0      0.919      1.189
REMARK  Name = 
REMARK  5 active torsions:
REMARK  status: ('A' for Active; 'I' for Inactive)
REMARK    1  A    between atoms: C_1  and  C_2
REMARK    2  A    between atoms: C_2  and  S_3
REMARK    3  A    between atoms: C_2  and  C_10
REMARK    4  A    between atoms: S_3  and  C_4
REMARK    5  A    between atoms: N_8  and  C_9
REMARK                            x       y       z     vdW  Elec       q    Type
REMARK                         _______ _______ _______ _____ _____    ______ ____
ROOT
ATOM      1  C   UNL     1       0.079  10.360  20.779  0.00  0.00    +0.000 A 
ATOM      2  C   UNL     1       0.332  11.299  19.773  0.00  0.00    +0.000 A 
ATOM      3  C   UNL     1       1.137  10.937  18.710  0.00  0.00    +0.000 A 
ATOM      4  N   UNL     1       1.690   9.719  18.575  0.00  0.00    +0.000 NA
ATOM      5  C   UNL     1       1.460   8.805  19.530  0.00  0.00    +0.000 A 
ATOM      6  N   UNL     1       2.066   7.541  19.464  0.00  0.00    +0.000 N 
ATOM      7  C   UNL     1       2.889   7.104  18.452  0.00  0.00    +0.000 C 
ATOM      8  O   UNL     1       3.234   7.780  17.482  0.00  0.00    +0.000 OA
ATOM      9  N   UNL     1       3.415   5.818  18.619  0.00  0.00    +0.000 N 
ATOM     10  C   UNL     1       4.546   5.474  17.761  0.00  0.00    +0.000 C 
ATOM     11  C   UNL     1       5.504   4.536  18.443  0.00  0.00    +0.000 C 
ATOM     12  N   UNL     1       5.165   3.687  19.363  0.00  0.00    +0.000 NA
ATOM     13  C   UNL     1       3.809   3.696  19.750  0.00  0.00    +0.000 A 
ATOM     14  C   UNL     1       3.360   2.624  20.528  0.00  0.00    +0.000 A 
ATOM     15  C   UNL     1       2.037   2.559  20.955  0.00  0.00    +0.000 A 
ATOM     16  C   UNL     1       1.144   3.563  20.596  0.00  0.00    +0.000 A 
ATOM     17  C   UNL     1       1.577   4.642  19.818  0.00  0.00    +0.000 A 
ATOM     18  C   UNL     1       2.916   4.740  19.413  0.00  0.00    +0.000 A 
ATOM     19  C   UNL     1       0.647   9.082  20.632  0.00  0.00    +0.000 A 
ATOM     20  H   UNL     1       2.019   6.976  20.294  0.00  0.00    +0.000 HD
ENDROOT
BRANCH   1  22
ATOM     21  C   UNL     1      -0.327   9.899  23.242  0.00  0.00    +0.000 C 
ATOM     22  C   UNL     1      -0.772  10.687  22.002  0.00  0.00    +0.000 C 
BRANCH  22  23
ATOM     23  S   UNL     1      -0.729  12.493  22.322  0.00  0.00    +0.000 S 
BRANCH  23  24
ATOM     24  C   UNL     1      -2.215  12.736  23.175  0.00  0.00    +0.000 A 
ATOM     25  N   UNL     1      -3.264  11.947  23.183  0.00  0.00    +0.000 NA
ATOM     26  N   UNL     1      -4.195  12.502  24.038  0.00  0.00    +0.000 NA
ATOM     27  C   UNL     1      -3.685  13.617  24.510  0.00  0.00    +0.000 A 
ATOM     28  N   UNL     1      -2.445  13.813  23.981  0.00  0.00    +0.000 N 
ATOM     29  C   UNL     1      -1.572  14.921  24.257  0.00  0.00    +0.000 C 
ENDBRANCH  23  24
ENDBRANCH  22  23
ENDBRANCH   1  22
TORSDOF 3
ENDMDL
MODEL 3
REMARK VINA RESULT:      -8.8      0.576      1.152
REMARK  Name = 
REMARK  5 active torsions:
REMARK  status: ('A' for Active; 'I' for Inactive)
REMARK    1  A    between atoms: C_1  and  C_2
REMARK    2  A    between atoms: C_2  and  S_3
REMARK    3  A    between atoms: C_2  and  C_10
REMARK    4  A    between atoms: S_3  and  C_4
REMARK    5  A    between atoms: N_8  and  C_9
REMARK                            x       y       z     vdW  Elec       q    Type
REMARK                         _______ _______ _______ _____ _____    ______ ____
ROOT
ATOM      1  C   UNL     1       0.033  10.241  20.869  0.00  0.00    +0.000 A 
ATOM      2  C   UNL     1       0.276  11.206  19.884  0.00  0.00    +0.000 A 
ATOM      3  C   UNL     1       1.087  10.879  18.815  0.00  0.00    +0.000 A 
ATOM      4  N   UNL     1       1.657   9.672  18.654  0.00  0.00    +0.000 NA
ATOM      5  C   UNL     1       1.438   8.734  19.588  0.00  0.00    +0.000 A 
ATOM      6  N   UNL     1       2.062   7.481  19.494  0.00  0.00    +0.000 N 
ATOM      7  C   UNL     1       2.893   7.078  18.474  0.00  0.00    +0.000 C 
ATOM      8  O   UNL     1       3.230   7.781  17.521  0.00  0.00    +0.000 OA
ATOM      9  N   UNL     1       3.437   5.796  18.613  0.00  0.00    +0.000 N 
ATOM     10  C   UNL     1       4.575   5.487  17.751  0.00  0.00    +0.000 C 
ATOM     11  C   UNL     1       5.545   4.548  18.413  0.00  0.00    +0.000 C 
ATOM     12  N   UNL     1       5.216   3.674  19.312  0.00  0.00    +0.000 NA
ATOM     13  C   UNL     1       3.859   3.655  19.697  0.00  0.00    +0.000 A 
ATOM     14  C   UNL     1       3.425   2.559  20.450  0.00  0.00    +0.000 A 
ATOM     15  C   UNL     1       2.101   2.466  20.873  0.00  0.00    +0.000 A 
ATOM     16  C   UNL     1       1.195   3.465  20.534  0.00  0.00    +0.000 A 
ATOM     17  C   UNL     1       1.614   4.568  19.782  0.00  0.00    +0.000 A 
ATOM     18  C   UNL     1       2.952   4.694  19.382  0.00  0.00    +0.000 A 
ATOM     19  C   UNL     1       0.620   8.975  20.694  0.00  0.00    +0.000 A 
ATOM     20  H   UNL     1       2.022   6.897  20.312  0.00  0.00    +0.000 HD
ENDROOT
BRANCH   1  22
ATOM     21  C   UNL     1      -0.263   9.863  23.361  0.00  0.00    +0.000 C 
ATOM     22  C   UNL     1      -0.824  10.528  22.096  0.00  0.00    +0.000 C 
BRANCH  22  23
ATOM     23  S   UNL     1      -0.988  12.340  22.327  0.00  0.00    +0.000 S 
BRANCH  23  24
ATOM     24  C   UNL     1      -2.604  12.621  21.777  0.00  0.00    +0.000 A 
ATOM     25  N   UNL     1      -2.999  12.819  20.541  0.00  0.00    +0.000 NA
ATOM     26  N   UNL     1      -4.374  12.945  20.558  0.00  0.00    +0.000 NA
ATOM     27  C   UNL     1      -4.767  12.832  21.806  0.00  0.00    +0.000 A 
ATOM     28  N   UNL     1      -3.684  12.644  22.611  0.00  0.00    +0.000 N 
ATOM     29  C   UNL     1      -3.709  12.478  24.039  0.00  0.00    +0.000 C 
ENDBRANCH  23  24
ENDBRANCH  22  23
ENDBRANCH   1  22
TORSDOF 3
ENDMDL
MODEL 4
REMARK VINA RESULT:      -8.6      3.957     10.124
REMARK  Name = 
REMARK  5 active torsions:
REMARK  status: ('A' for Active; 'I' for Inactive)
REMARK    1  A    between atoms: C_1  and  C_2
REMARK    2  A    between atoms: C_2  and  S_3
REMARK    3  A    between atoms: C_2  and  C_10
REMARK    4  A    between atoms: S_3  and  C_4
REMARK    5  A    between atoms: N_8  and  C_9
REMARK                            x       y       z     vdW  Elec       q    Type
REMARK                         _______ _______ _______ _____ _____    ______ ____
ROOT
ATOM      1  C   UNL     1       5.013   4.797  17.943  0.00  0.00    +0.000 A 
ATOM      2  C   UNL     1       4.621   3.558  18.462  0.00  0.00    +0.000 A 
ATOM      3  C   UNL     1       3.555   3.510  19.340  0.00  0.00    +0.000 A 
ATOM      4  N   UNL     1       2.855   4.592  19.722  0.00  0.00    +0.000 NA
ATOM      5  C   UNL     1       3.216   5.789  19.236  0.00  0.00    +0.000 A 
ATOM      6  N   UNL     1       2.555   6.954  19.655  0.00  0.00    +0.000 N 
ATOM      7  C   UNL     1       1.497   6.998  20.533  0.00  0.00    +0.000 C 
ATOM      8  O   UNL     1       1.009   6.019  21.098  0.00  0.00    +0.000 OA
ATOM      9  N   UNL     1       1.024   8.279  20.839  0.00  0.00    +0.000 N 
ATOM     10  C   UNL     1       0.159   8.377  22.012  0.00  0.00    +0.000 C 
ATOM     11  C   UNL     1       0.324   9.692  22.724  0.00  0.00    +0.000 C 
ATOM     12  N   UNL     1       0.682  10.795  22.146  0.00  0.00    +0.000 NA
ATOM     13  C   UNL     1       0.963  10.714  20.766  0.00  0.00    +0.000 A 
ATOM     14  C   UNL     1       1.083  11.919  20.067  0.00  0.00    +0.000 A 
ATOM     15  C   UNL     1       1.363  11.926  18.703  0.00  0.00    +0.000 A 
ATOM     16  C   UNL     1       1.513  10.723  18.022  0.00  0.00    +0.000 A 
ATOM     17  C   UNL     1       1.396   9.508  18.707  0.00  0.00    +0.000 A 
ATOM     18  C   UNL     1       1.153   9.487  20.087  0.00  0.00    +0.000 A 
ATOM     19  C   UNL     1       4.273   5.928  18.334  0.00  0.00    +0.000 A 
ATOM     20  H   UNL     1       2.991   7.828  19.417  0.00  0.00    +0.000 HD
ENDROOT
BRANCH   1  22
ATOM     21  C   UNL     1       7.540   4.751  17.712  0.00  0.00    +0.000 C 
ATOM     22  C   UNL     1       6.198   4.944  16.993  0.00  0.00    +0.000 C 
BRANCH  22  23
ATOM     23  S   UNL     1       6.024   3.763  15.600  0.00  0.00    +0.000 S 
BRANCH  23  24
ATOM     24  C   UNL     1       6.927   4.553  14.353  0.00  0.00    +0.000 A 
ATOM     25  N   UNL     1       7.843   5.480  14.503  0.00  0.00    +0.000 NA
ATOM     26  N   UNL     1       8.337   5.783  13.250  0.00  0.00    +0.000 NA
ATOM     27  C   UNL     1       7.694   5.039  12.379  0.00  0.00    +0.000 A 
ATOM     28  N   UNL     1       6.784   4.259  13.028  0.00  0.00    +0.000 N 
ATOM     29  C   UNL     1       5.891   3.312  12.417  0.00  0.00    +0.000 C 
ENDBRANCH  23  24
ENDBRANCH  22  23
ENDBRANCH   1  22
TORSDOF 3
ENDMDL
MODEL 5
REMARK VINA RESULT:      -8.4      3.081      4.338
REMARK  Name = 
REMARK  5 active torsions:
REMARK  status: ('A' for Active; 'I' for Inactive)
REMARK    1  A    between atoms: C_1  and  C_2
REMARK    2  A    between atoms: C_2  and  S_3
REMARK    3  A    between atoms: C_2  and  C_10
REMARK    4  A    between atoms: S_3  and  C_4
REMARK    5  A    between atoms: N_8  and  C_9
REMARK                            x       y       z     vdW  Elec       q    Type
REMARK                         _______ _______ _______ _____ _____    ______ ____
ROOT
ATOM      1  C   UNL     1       0.666  10.353  19.676  0.00  0.00    +0.000 A 
ATOM      2  C   UNL     1       0.179  10.204  20.979  0.00  0.00    +0.000 A 
ATOM      3  C   UNL     1       0.434   9.027  21.657  0.00  0.00    +0.000 A 
ATOM      4  N   UNL     1       1.142   8.008  21.139  0.00  0.00    +0.000 NA
ATOM      5  C   UNL     1       1.616   8.131  19.890  0.00  0.00    +0.000 A 
ATOM      6  N   UNL     1       2.305   7.069  19.285  0.00  0.00    +0.000 N 
ATOM      7  C   UNL     1       2.590   5.862  19.880  0.00  0.00    +0.000 C 
ATOM      8  O   UNL     1       2.246   5.538  21.017  0.00  0.00    +0.000 OA
ATOM      9  N   UNL     1       3.253   4.934  19.068  0.00  0.00    +0.000 N 
ATOM     10  C   UNL     1       3.251   3.552  19.543  0.00  0.00    +0.000 C 
ATOM     11  C   UNL     1       3.231   2.567  18.408  0.00  0.00    +0.000 C 
ATOM     12  N   UNL     1       3.724   2.798  17.232  0.00  0.00    +0.000 NA
ATOM     13  C   UNL     1       4.275   4.080  17.028  0.00  0.00    +0.000 A 
ATOM     14  C   UNL     1       5.049   4.266  15.877  0.00  0.00    +0.000 A 
ATOM     15  C   UNL     1       5.625   5.503  15.600  0.00  0.00    +0.000 A 
ATOM     16  C   UNL     1       5.441   6.565  16.480  0.00  0.00    +0.000 A 
ATOM     17  C   UNL     1       4.670   6.395  17.634  0.00  0.00    +0.000 A 
ATOM     18  C   UNL     1       4.052   5.166  17.906  0.00  0.00    +0.000 A 
ATOM     19  C   UNL     1       1.415   9.291  19.138  0.00  0.00    +0.000 A 
ATOM     20  H   UNL     1       2.460   7.140  18.293  0.00  0.00    +0.000 HD
ENDROOT
BRANCH   1  22
ATOM     21  C   UNL     1      -0.651  12.515  19.494  0.00  0.00    +0.000 C 
ATOM     22  C   UNL     1       0.402  11.605  18.846  0.00  0.00    +0.000 C 
BRANCH  22  23
ATOM     23  S   UNL     1       1.975  12.511  18.576  0.00  0.00    +0.000 S 
BRANCH  23  24
ATOM     24  C   UNL     1       2.041  13.528  19.975  0.00  0.00    +0.000 A 
ATOM     25  N   UNL     1       2.335  13.171  21.203  0.00  0.00    +0.000 NA
ATOM     26  N   UNL     1       2.321  14.311  21.982  0.00  0.00    +0.000 NA
ATOM     27  C   UNL     1       2.006  15.321  21.203  0.00  0.00    +0.000 A 
ATOM     28  N   UNL     1       1.804  14.872  19.932  0.00  0.00    +0.000 N 
ATOM     29  C   UNL     1       1.444  15.677  18.797  0.00  0.00    +0.000 C 
ENDBRANCH  23  24
ENDBRANCH  22  23
ENDBRANCH   1  22
TORSDOF 3
ENDMDL
MODEL 6
REMARK VINA RESULT:      -8.3      1.318      1.868
REMARK  Name = 
REMARK  5 active torsions:
REMARK  status: ('A' for Active; 'I' for Inactive)
REMARK    1  A    between atoms: C_1  and  C_2
REMARK    2  A    between atoms: C_2  and  S_3
REMARK    3  A    between atoms: C_2  and  C_10
REMARK    4  A    between atoms: S_3  and  C_4
REMARK    5  A    between atoms: N_8  and  C_9
REMARK                            x       y       z     vdW  Elec       q    Type
REMARK                         _______ _______ _______ _____ _____    ______ ____
ROOT
ATOM      1  C   UNL     1       0.309  10.468  19.862  0.00  0.00    +0.000 A 
ATOM      2  C   UNL     1       0.793  11.347  18.887  0.00  0.00    +0.000 A 
ATOM      3  C   UNL     1       1.740  10.892  17.990  0.00  0.00    +0.000 A 
ATOM      4  N   UNL     1       2.222   9.638  17.988  0.00  0.00    +0.000 NA
ATOM      5  C   UNL     1       1.772   8.780  18.916  0.00  0.00    +0.000 A 
ATOM      6  N   UNL     1       2.293   7.479  18.993  0.00  0.00    +0.000 N 
ATOM      7  C   UNL     1       3.244   6.951  18.151  0.00  0.00    +0.000 C 
ATOM      8  O   UNL     1       3.794   7.564  17.235  0.00  0.00    +0.000 OA
ATOM      9  N   UNL     1       3.645   5.642  18.445  0.00  0.00    +0.000 N 
ATOM     10  C   UNL     1       4.880   5.194  17.805  0.00  0.00    +0.000 C 
ATOM     11  C   UNL     1       5.642   4.227  18.669  0.00  0.00    +0.000 C 
ATOM     12  N   UNL     1       5.094   3.440  19.541  0.00  0.00    +0.000 NA
ATOM     13  C   UNL     1       3.697   3.548  19.689  0.00  0.00    +0.000 A 
ATOM     14  C   UNL     1       3.051   2.539  20.411  0.00  0.00    +0.000 A 
ATOM     15  C   UNL     1       1.672   2.574  20.606  0.00  0.00    +0.000 A 
ATOM     16  C   UNL     1       0.924   3.616  20.068  0.00  0.00    +0.000 A 
ATOM     17  C   UNL     1       1.555   4.633  19.344  0.00  0.00    +0.000 A 
ATOM     18  C   UNL     1       2.946   4.631  19.173  0.00  0.00    +0.000 A 
ATOM     19  C   UNL     1       0.805   9.152  19.853  0.00  0.00    +0.000 A 
ATOM     20  H   UNL     1       2.068   6.953  19.820  0.00  0.00    +0.000 HD
ENDROOT
BRANCH   1  22
ATOM     21  C   UNL     1      -0.161  10.778  22.337  0.00  0.00    +0.000 C 
ATOM     22  C   UNL     1      -0.713  10.896  20.910  0.00  0.00    +0.000 C 
BRANCH  22  23
ATOM     23  S   UNL     1      -1.274  12.609  20.564  0.00  0.00    +0.000 S 
BRANCH  23  24
ATOM     24  C   UNL     1      -2.752  12.330  19.709  0.00  0.00    +0.000 A 
ATOM     25  N   UNL     1      -2.892  11.796  18.518  0.00  0.00    +0.000 NA
ATOM     26  N   UNL     1      -4.245  11.717  18.254  0.00  0.00    +0.000 NA
ATOM     27  C   UNL     1      -4.881  12.217  19.288  0.00  0.00    +0.000 A 
ATOM     28  N   UNL     1      -3.980  12.631  20.223  0.00  0.00    +0.000 N 
ATOM     29  C   UNL     1      -4.291  13.233  21.491  0.00  0.00    +0.000 C 
ENDBRANCH  23  24
ENDBRANCH  22  23
ENDBRANCH   1  22
TORSDOF 3
ENDMDL
MODEL 7
REMARK VINA RESULT:      -8.2      2.196      3.580
REMARK  Name = 
REMARK  5 active torsions:
REMARK  status: ('A' for Active; 'I' for Inactive)
REMARK    1  A    between atoms: C_1  and  C_2
REMARK    2  A    between atoms: C_2  and  S_3
REMARK    3  A    between atoms: C_2  and  C_10
REMARK    4  A    between atoms: S_3  and  C_4
REMARK    5  A    between atoms: N_8  and  C_9
REMARK                            x       y       z     vdW  Elec       q    Type
REMARK                         _______ _______ _______ _____ _____    ______ ____
ROOT
ATOM      1  C   UNL     1       0.540  10.269  20.039  0.00  0.00    +0.000 A 
ATOM      2  C   UNL     1       0.100  10.057  21.351  0.00  0.00    +0.000 A 
ATOM      3  C   UNL     1       0.404   8.861  21.971  0.00  0.00    +0.000 A 
ATOM      4  N   UNL     1       1.116   7.880  21.389  0.00  0.00    +0.000 NA
ATOM      5  C   UNL     1       1.545   8.063  20.131  0.00  0.00    +0.000 A 
ATOM      6  N   UNL     1       2.236   7.043  19.461  0.00  0.00    +0.000 N 
ATOM      7  C   UNL     1       2.568   5.820  19.997  0.00  0.00    +0.000 C 
ATOM      8  O   UNL     1       2.269   5.443  21.131  0.00  0.00    +0.000 OA
ATOM      9  N   UNL     1       3.222   4.941  19.127  0.00  0.00    +0.000 N 
ATOM     10  C   UNL     1       3.267   3.542  19.546  0.00  0.00    +0.000 C 
ATOM     11  C   UNL     1       3.230   2.602  18.372  0.00  0.00    +0.000 C 
ATOM     12  N   UNL     1       3.679   2.892  17.191  0.00  0.00    +0.000 NA
ATOM     13  C   UNL     1       4.194   4.193  17.021  0.00  0.00    +0.000 A 
ATOM     14  C   UNL     1       4.925   4.443  15.855  0.00  0.00    +0.000 A 
ATOM     15  C   UNL     1       5.464   5.703  15.610  0.00  0.00    +0.000 A 
ATOM     16  C   UNL     1       5.287   6.724  16.537  0.00  0.00    +0.000 A 
ATOM     17  C   UNL     1       4.558   6.490  17.708  0.00  0.00    +0.000 A 
ATOM     18  C   UNL     1       3.977   5.238  17.950  0.00  0.00    +0.000 A 
ATOM     19  C   UNL     1       1.293   9.248  19.435  0.00  0.00    +0.000 A 
ATOM     20  H   UNL     1       2.357   7.157  18.469  0.00  0.00    +0.000 HD
ENDROOT
BRANCH   1  22
ATOM     21  C   UNL     1       1.455  12.112  18.554  0.00  0.00    +0.000 C 
ATOM     22  C   UNL     1       0.221  11.548  19.271  0.00  0.00    +0.000 C 
BRANCH  22  23
ATOM     23  S   UNL     1      -1.140  11.233  18.083  0.00  0.00    +0.000 S 
BRANCH  23  24
ATOM     24  C   UNL     1      -2.516  11.804  18.963  0.00  0.00    +0.000 A 
ATOM     25  N   UNL     1      -2.521  12.376  20.144  0.00  0.00    +0.000 NA
ATOM     26  N   UNL     1      -3.827  12.717  20.435  0.00  0.00    +0.000 NA
ATOM     27  C   UNL     1      -4.574  12.329  19.426  0.00  0.00    +0.000 A 
ATOM     28  N   UNL     1      -3.792  11.734  18.482  0.00  0.00    +0.000 N 
ATOM     29  C   UNL     1      -4.244  11.180  17.235  0.00  0.00    +0.000 C 
ENDBRANCH  23  24
ENDBRANCH  22  23
ENDBRANCH   1  22
TORSDOF 3
ENDMDL
MODEL 8
REMARK VINA RESULT:      -8.2      1.367      1.699
REMARK  Name = 
REMARK  5 active torsions:
REMARK  status: ('A' for Active; 'I' for Inactive)
REMARK    1  A    between atoms: C_1  and  C_2
REMARK    2  A    between atoms: C_2  and  S_3
REMARK    3  A    between atoms: C_2  and  C_10
REMARK    4  A    between atoms: S_3  and  C_4
REMARK    5  A    between atoms: N_8  and  C_9
REMARK                            x       y       z     vdW  Elec       q    Type
REMARK                         _______ _______ _______ _____ _____    ______ ____
ROOT
ATOM      1  C   UNL     1       0.373  10.503  19.693  0.00  0.00    +0.000 A 
ATOM      2  C   UNL     1       0.873  11.345  18.693  0.00  0.00    +0.000 A 
ATOM      3  C   UNL     1       1.817  10.850  17.815  0.00  0.00    +0.000 A 
ATOM      4  N   UNL     1       2.282   9.589  17.853  0.00  0.00    +0.000 NA
ATOM      5  C   UNL     1       1.816   8.767  18.805  0.00  0.00    +0.000 A 
ATOM      6  N   UNL     1       2.319   7.462  18.924  0.00  0.00    +0.000 N 
ATOM      7  C   UNL     1       3.266   6.895  18.103  0.00  0.00    +0.000 C 
ATOM      8  O   UNL     1       3.827   7.472  17.171  0.00  0.00    +0.000 OA
ATOM      9  N   UNL     1       3.647   5.590  18.438  0.00  0.00    +0.000 N 
ATOM     10  C   UNL     1       4.878   5.105  17.818  0.00  0.00    +0.000 C 
ATOM     11  C   UNL     1       5.623   4.155  18.714  0.00  0.00    +0.000 C 
ATOM     12  N   UNL     1       5.061   3.403  19.607  0.00  0.00    +0.000 NA
ATOM     13  C   UNL     1       3.664   3.535  19.746  0.00  0.00    +0.000 A 
ATOM     14  C   UNL     1       3.001   2.557  20.495  0.00  0.00    +0.000 A 
ATOM     15  C   UNL     1       1.623   2.617  20.683  0.00  0.00    +0.000 A 
ATOM     16  C   UNL     1       0.892   3.652  20.110  0.00  0.00    +0.000 A 
ATOM     17  C   UNL     1       1.539   4.638  19.359  0.00  0.00    +0.000 A 
ATOM     18  C   UNL     1       2.931   4.612  19.194  0.00  0.00    +0.000 A 
ATOM     19  C   UNL     1       0.851   9.181  19.726  0.00  0.00    +0.000 A 
ATOM     20  H   UNL     1       2.083   6.964  19.765  0.00  0.00    +0.000 HD
ENDROOT
BRANCH   1  22
ATOM     21  C   UNL     1      -0.100  10.900  22.155  0.00  0.00    +0.000 C 
ATOM     22  C   UNL     1      -0.647  10.977  20.723  0.00  0.00    +0.000 C 
BRANCH  22  23
ATOM     23  S   UNL     1      -1.187  12.684  20.319  0.00  0.00    +0.000 S 
BRANCH  23  24
ATOM     24  C   UNL     1      -2.878  12.460  20.031  0.00  0.00    +0.000 A 
ATOM     25  N   UNL     1      -3.867  12.748  20.844  0.00  0.00    +0.000 NA
ATOM     26  N   UNL     1      -5.045  12.458  20.186  0.00  0.00    +0.000 NA
ATOM     27  C   UNL     1      -4.732  11.990  18.999  0.00  0.00    +0.000 A 
ATOM     28  N   UNL     1      -3.377  11.959  18.863  0.00  0.00    +0.000 N 
ATOM     29  C   UNL     1      -2.652  11.510  17.706  0.00  0.00    +0.000 C 
ENDBRANCH  23  24
ENDBRANCH  22  23
ENDBRANCH   1  22
TORSDOF 3
ENDMDL
MODEL 9
REMARK VINA RESULT:      -8.1      3.173      4.768
REMARK  Name = 
REMARK  5 active torsions:
REMARK  status: ('A' for Active; 'I' for Inactive)
REMARK    1  A    between atoms: C_1  and  C_2
REMARK    2  A    between atoms: C_2  and  S_3
REMARK    3  A    between atoms: C_2  and  C_10
REMARK    4  A    between atoms: S_3  and  C_4
REMARK    5  A    between atoms: N_8  and  C_9
REMARK                            x       y       z     vdW  Elec       q    Type
REMARK                         _______ _______ _______ _____ _____    ______ ____
ROOT
ATOM      1  C   UNL     1       0.558  10.189  19.723  0.00  0.00    +0.000 A 
ATOM      2  C   UNL     1       0.121  10.032  21.043  0.00  0.00    +0.000 A 
ATOM      3  C   UNL     1       0.452   8.875  21.722  0.00  0.00    +0.000 A 
ATOM      4  N   UNL     1       1.186   7.883  21.191  0.00  0.00    +0.000 NA
ATOM      5  C   UNL     1       1.613   8.013  19.925  0.00  0.00    +0.000 A 
ATOM      6  N   UNL     1       2.329   6.977  19.307  0.00  0.00    +0.000 N 
ATOM      7  C   UNL     1       2.687   5.790  19.903  0.00  0.00    +0.000 C 
ATOM      8  O   UNL     1       2.396   5.463  21.054  0.00  0.00    +0.000 OA
ATOM      9  N   UNL     1       3.363   4.884  19.078  0.00  0.00    +0.000 N 
ATOM     10  C   UNL     1       3.438   3.509  19.566  0.00  0.00    +0.000 C 
ATOM     11  C   UNL     1       3.425   2.511  18.442  0.00  0.00    +0.000 C 
ATOM     12  N   UNL     1       3.868   2.751  17.247  0.00  0.00    +0.000 NA
ATOM     13  C   UNL     1       4.354   4.054  17.013  0.00  0.00    +0.000 A 
ATOM     14  C   UNL     1       5.081   4.262  15.836  0.00  0.00    +0.000 A 
ATOM     15  C   UNL     1       5.592   5.520  15.528  0.00  0.00    +0.000 A 
ATOM     16  C   UNL     1       5.390   6.582  16.404  0.00  0.00    +0.000 A 
ATOM     17  C   UNL     1       4.665   6.391  17.585  0.00  0.00    +0.000 A 
ATOM     18  C   UNL     1       4.112   5.139  17.889  0.00  0.00    +0.000 A 
ATOM     19  C   UNL     1       1.336   9.155  19.170  0.00  0.00    +0.000 A 
ATOM     20  H   UNL     1       2.448   7.044  18.311  0.00  0.00    +0.000 HD
ENDROOT
BRANCH   1  22
ATOM     21  C   UNL     1      -1.191  11.324  18.275  0.00  0.00    +0.000 C 
ATOM     22  C   UNL     1       0.212  11.419  18.891  0.00  0.00    +0.000 C 
BRANCH  22  23
ATOM     23  S   UNL     1       0.373  12.928  19.922  0.00  0.00    +0.000 S 
BRANCH  23  24
ATOM     24  C   UNL     1       1.916  13.533  19.423  0.00  0.00    +0.000 A 
ATOM     25  N   UNL     1       2.502  13.352  18.263  0.00  0.00    +0.000 NA
ATOM     26  N   UNL     1       3.690  14.056  18.283  0.00  0.00    +0.000 NA
ATOM     27  C   UNL     1       3.792  14.630  19.460  0.00  0.00    +0.000 A 
ATOM     28  N   UNL     1       2.704  14.315  20.218  0.00  0.00    +0.000 N 
ATOM     29  C   UNL     1       2.453  14.754  21.564  0.00  0.00    +0.000 C 
ENDBRANCH  23  24
ENDBRANCH  22  23
ENDBRANCH   1  22
TORSDOF 3
ENDMDL
