MODEL 1
REMARK VINA RESULT:      -9.0      0.000      0.000
REMARK  Name = 
REMARK  4 active torsions:
REMARK  status: ('A' for Active; 'I' for Inactive)
REMARK    1  A    between atoms: C_4  and  C_5
REMARK    2  A    between atoms: C_5  and  N_6
REMARK    3  A    between atoms: C_9  and  C_10
REMARK    4  A    between atoms: C_14  and  C_15
REMARK                            x       y       z     vdW  Elec       q    Type
REMARK                         _______ _______ _______ _____ _____    ______ ____
ROOT
ATOM      1  N   UNL     1       7.368   7.083  17.443  0.00  0.00    +0.000 N 
ATOM      2  N   UNL     1       8.043   6.742  18.556  0.00  0.00    +0.000 NA
ATOM      3  N   UNL     1       8.595   7.871  18.979  0.00  0.00    +0.000 NA
ATOM      4  C   UNL     1       8.227   8.861  18.097  0.00  0.00    +0.000 A 
ATOM      5  N   UNL     1       7.442   8.392  17.104  0.00  0.00    +0.000 NA
ENDROOT
BRANCH   4   6
ATOM      6  C   UNL     1       8.667  10.252  18.241  0.00  0.00    +0.000 A 
ATOM      7  C   UNL     1       8.115  11.263  17.440  0.00  0.00    +0.000 A 
ATOM      8  C   UNL     1       8.543  12.588  17.558  0.00  0.00    +0.000 A 
ATOM      9  C   UNL     1       9.520  12.930  18.491  0.00  0.00    +0.000 A 
ATOM     10  C   UNL     1      10.077  11.951  19.325  0.00  0.00    +0.000 A 
ATOM     11  C   UNL     1       9.653  10.612  19.181  0.00  0.00    +0.000 A 
BRANCH  10  12
ATOM     12  C   UNL     1      11.100  12.333  20.373  0.00  0.00    +0.000 C 
ATOM     13  F   UNL     1      12.262  11.627  20.279  0.00  0.00    +0.000 F 
ATOM     14  F   UNL     1      11.459  13.644  20.292  0.00  0.00    +0.000 F 
ATOM     15  F   UNL     1      10.652  12.142  21.644  0.00  0.00    +0.000 F 
ENDBRANCH  10  12
ENDBRANCH   4   6
BRANCH   1  16
ATOM     16  C   UNL     1       6.649   6.088  16.648  0.00  0.00    +0.000 C 
BRANCH  16  20
ATOM     17  O   UNL     1       2.220   7.058  18.345  0.00  0.00    +0.000 OA
ATOM     18  C   UNL     1       3.027   6.196  18.001  0.00  0.00    +0.000 A 
ATOM     19  C   UNL     1       4.349   6.624  17.529  0.00  0.00    +0.000 A 
ATOM     20  C   UNL     1       5.255   5.710  17.151  0.00  0.00    +0.000 A 
ATOM     21  N   UNL     1       4.987   4.353  17.189  0.00  0.00    +0.000 NA
ATOM     22  C   UNL     1       3.815   3.967  17.608  0.00  0.00    +0.000 A 
ATOM     23  C   UNL     1       3.492   2.505  17.664  0.00  0.00    +0.000 A 
ATOM     24  C   UNL     1       2.289   2.094  18.098  0.00  0.00    +0.000 A 
ATOM     25  C   UNL     1       1.298   3.050  18.509  0.00  0.00    +0.000 A 
ATOM     26  C   UNL     1       1.577   4.358  18.462  0.00  0.00    +0.000 A 
ATOM     27  N   UNL     1       2.809   4.831  18.022  0.00  0.00    +0.000 N 
ENDBRANCH  16  20
ENDBRANCH   1  16
TORSDOF 4
ENDMDL
MODEL 2
REMARK VINA RESULT:      -8.9      1.379      2.064
REMARK  Name = 
REMARK  4 active torsions:
REMARK  status: ('A' for Active; 'I' for Inactive)
REMARK    1  A    between atoms: C_4  and  C_5
REMARK    2  A    between atoms: C_5  and  N_6
REMARK    3  A    between atoms: C_9  and  C_10
REMARK    4  A    between atoms: C_14  and  C_15
REMARK                            x       y       z     vdW  Elec       q    Type
REMARK                         _______ _______ _______ _____ _____    ______ ____
ROOT
ATOM      1  N   UNL     1       7.219   6.898  17.395  0.00  0.00    +0.000 N 
ATOM      2  N   UNL     1       7.954   6.538  18.462  0.00  0.00    +0.000 NA
ATOM      3  N   UNL     1       8.519   7.662  18.882  0.00  0.00    +0.000 NA
ATOM      4  C   UNL     1       8.097   8.668  18.042  0.00  0.00    +0.000 A 
ATOM      5  N   UNL     1       7.265   8.214  17.082  0.00  0.00    +0.000 NA
ENDROOT
BRANCH   4   6
ATOM      6  C   UNL     1       8.534  10.060  18.194  0.00  0.00    +0.000 A 
ATOM      7  C   UNL     1       7.983  11.073  17.395  0.00  0.00    +0.000 A 
ATOM      8  C   UNL     1       8.408  12.398  17.521  0.00  0.00    +0.000 A 
ATOM      9  C   UNL     1       9.380  12.738  18.461  0.00  0.00    +0.000 A 
ATOM     10  C   UNL     1       9.935  11.756  19.293  0.00  0.00    +0.000 A 
ATOM     11  C   UNL     1       9.514  10.417  19.141  0.00  0.00    +0.000 A 
BRANCH  10  12
ATOM     12  C   UNL     1      10.951  12.136  20.347  0.00  0.00    +0.000 C 
ATOM     13  F   UNL     1      11.252  13.466  20.356  0.00  0.00    +0.000 F 
ATOM     14  F   UNL     1      10.524  11.848  21.608  0.00  0.00    +0.000 F 
ATOM     15  F   UNL     1      12.139  11.489  20.195  0.00  0.00    +0.000 F 
ENDBRANCH  10  12
ENDBRANCH   4   6
BRANCH   1  16
ATOM     16  C   UNL     1       6.465   5.914  16.617  0.00  0.00    +0.000 C 
BRANCH  16  20
ATOM     17  O   UNL     1       3.646   2.137  17.716  0.00  0.00    +0.000 OA
ATOM     18  C   UNL     1       3.894   3.327  17.901  0.00  0.00    +0.000 A 
ATOM     19  C   UNL     1       5.015   3.930  17.171  0.00  0.00    +0.000 A 
ATOM     20  C   UNL     1       5.311   5.226  17.345  0.00  0.00    +0.000 A 
ATOM     21  N   UNL     1       4.586   6.034  18.203  0.00  0.00    +0.000 NA
ATOM     22  C   UNL     1       3.588   5.505  18.854  0.00  0.00    +0.000 A 
ATOM     23  C   UNL     1       2.781   6.352  19.789  0.00  0.00    +0.000 A 
ATOM     24  C   UNL     1       1.748   5.820  20.462  0.00  0.00    +0.000 A 
ATOM     25  C   UNL     1       1.407   4.434  20.297  0.00  0.00    +0.000 A 
ATOM     26  C   UNL     1       2.123   3.669  19.464  0.00  0.00    +0.000 A 
ATOM     27  N   UNL     1       3.200   4.175  18.744  0.00  0.00    +0.000 N 
ENDBRANCH  16  20
ENDBRANCH   1  16
TORSDOF 4
ENDMDL
MODEL 3
REMARK VINA RESULT:      -8.8      6.733      8.590
REMARK  Name = 
REMARK  4 active torsions:
REMARK  status: ('A' for Active; 'I' for Inactive)
REMARK    1  A    between atoms: C_4  and  C_5
REMARK    2  A    between atoms: C_5  and  N_6
REMARK    3  A    between atoms: C_9  and  C_10
REMARK    4  A    between atoms: C_14  and  C_15
REMARK                            x       y       z     vdW  Elec       q    Type
REMARK                         _______ _______ _______ _____ _____    ______ ____
ROOT
ATOM      1  N   UNL     1       6.840   4.833  16.313  0.00  0.00    +0.000 N 
ATOM      2  N   UNL     1       7.554   5.747  15.630  0.00  0.00    +0.000 NA
ATOM      3  N   UNL     1       7.424   5.399  14.357  0.00  0.00    +0.000 NA
ATOM      4  C   UNL     1       6.625   4.278  14.320  0.00  0.00    +0.000 A 
ATOM      5  N   UNL     1       6.235   3.891  15.552  0.00  0.00    +0.000 NA
ENDROOT
BRANCH   4   6
ATOM      6  C   UNL     1       6.273   3.599  13.069  0.00  0.00    +0.000 A 
ATOM      7  C   UNL     1       7.190   2.747  12.436  0.00  0.00    +0.000 A 
ATOM      8  C   UNL     1       6.868   2.111  11.233  0.00  0.00    +0.000 A 
ATOM      9  C   UNL     1       5.618   2.303  10.650  0.00  0.00    +0.000 A 
ATOM     10  C   UNL     1       4.667   3.129  11.266  0.00  0.00    +0.000 A 
ATOM     11  C   UNL     1       5.011   3.783  12.469  0.00  0.00    +0.000 A 
BRANCH  10  12
ATOM     12  C   UNL     1       3.292   3.294  10.658  0.00  0.00    +0.000 C 
ATOM     13  F   UNL     1       2.284   2.871  11.473  0.00  0.00    +0.000 F 
ATOM     14  F   UNL     1       3.007   4.594  10.367  0.00  0.00    +0.000 F 
ATOM     15  F   UNL     1       3.142   2.606   9.494  0.00  0.00    +0.000 F 
ENDBRANCH  10  12
ENDBRANCH   4   6
BRANCH   1  16
ATOM     16  C   UNL     1       6.771   4.851  17.774  0.00  0.00    +0.000 C 
BRANCH  16  20
ATOM     17  O   UNL     1       2.427   6.830  18.574  0.00  0.00    +0.000 OA
ATOM     18  C   UNL     1       3.181   5.881  18.779  0.00  0.00    +0.000 A 
ATOM     19  C   UNL     1       4.517   5.905  18.172  0.00  0.00    +0.000 A 
ATOM     20  C   UNL     1       5.367   4.889  18.377  0.00  0.00    +0.000 A 
ATOM     21  N   UNL     1       5.027   3.796  19.156  0.00  0.00    +0.000 NA
ATOM     22  C   UNL     1       3.843   3.769  19.699  0.00  0.00    +0.000 A 
ATOM     23  C   UNL     1       3.443   2.603  20.549  0.00  0.00    +0.000 A 
ATOM     24  C   UNL     1       2.227   2.565  21.118  0.00  0.00    +0.000 A 
ATOM     25  C   UNL     1       1.295   3.639  20.914  0.00  0.00    +0.000 A 
ATOM     26  C   UNL     1       1.642   4.685  20.156  0.00  0.00    +0.000 A 
ATOM     27  N   UNL     1       2.891   4.770  19.548  0.00  0.00    +0.000 N 
ENDBRANCH  16  20
ENDBRANCH   1  16
TORSDOF 4
ENDMDL
MODEL 4
REMARK VINA RESULT:      -8.7      7.014      9.538
REMARK  Name = 
REMARK  4 active torsions:
REMARK  status: ('A' for Active; 'I' for Inactive)
REMARK    1  A    between atoms: C_4  and  C_5
REMARK    2  A    between atoms: C_5  and  N_6
REMARK    3  A    between atoms: C_9  and  C_10
REMARK    4  A    between atoms: C_14  and  C_15
REMARK                            x       y       z     vdW  Elec       q    Type
REMARK                         _______ _______ _______ _____ _____    ______ ____
ROOT
ATOM      1  N   UNL     1       1.610   9.363  18.876  0.00  0.00    +0.000 N 
ATOM      2  N   UNL     1       2.181   9.607  17.683  0.00  0.00    +0.000 NA
ATOM      3  N   UNL     1       2.681   8.441  17.299  0.00  0.00    +0.000 NA
ATOM      4  C   UNL     1       2.388   7.527  18.286  0.00  0.00    +0.000 A 
ATOM      5  N   UNL     1       1.704   8.083  19.307  0.00  0.00    +0.000 NA
ENDROOT
BRANCH   4   6
ATOM      6  C   UNL     1       2.801   6.122  18.210  0.00  0.00    +0.000 A 
ATOM      7  C   UNL     1       3.903   5.742  17.430  0.00  0.00    +0.000 A 
ATOM      8  C   UNL     1       4.291   4.402  17.338  0.00  0.00    +0.000 A 
ATOM      9  C   UNL     1       3.594   3.420  18.038  0.00  0.00    +0.000 A 
ATOM     10  C   UNL     1       2.502   3.765  18.847  0.00  0.00    +0.000 A 
ATOM     11  C   UNL     1       2.106   5.118  18.914  0.00  0.00    +0.000 A 
BRANCH  10  12
ATOM     12  C   UNL     1       1.779   2.704  19.646  0.00  0.00    +0.000 C 
ATOM     13  F   UNL     1       2.241   2.577  20.923  0.00  0.00    +0.000 F 
ATOM     14  F   UNL     1       0.447   2.959  19.763  0.00  0.00    +0.000 F 
ATOM     15  F   UNL     1       1.878   1.465  19.092  0.00  0.00    +0.000 F 
ENDBRANCH  10  12
ENDBRANCH   4   6
BRANCH   1  16
ATOM     16  C   UNL     1       0.977  10.427  19.655  0.00  0.00    +0.000 C 
BRANCH  16  20
ATOM     17  O   UNL     1      -3.238  12.757  20.141  0.00  0.00    +0.000 OA
ATOM     18  C   UNL     1      -2.545  12.011  19.451  0.00  0.00    +0.000 A 
ATOM     19  C   UNL     1      -1.207  11.653  19.934  0.00  0.00    +0.000 A 
ATOM     20  C   UNL     1      -0.427  10.838  19.209  0.00  0.00    +0.000 A 
ATOM     21  N   UNL     1      -0.842  10.311  17.999  0.00  0.00    +0.000 NA
ATOM     22  C   UNL     1      -2.030  10.625  17.565  0.00  0.00    +0.000 A 
ATOM     23  C   UNL     1      -2.513  10.070  16.260  0.00  0.00    +0.000 A 
ATOM     24  C   UNL     1      -3.737  10.382  15.803  0.00  0.00    +0.000 A 
ATOM     25  C   UNL     1      -4.595  11.254  16.557  0.00  0.00    +0.000 A 
ATOM     26  C   UNL     1      -4.173  11.755  17.724  0.00  0.00    +0.000 A 
ATOM     27  N   UNL     1      -2.914  11.459  18.239  0.00  0.00    +0.000 N 
ENDBRANCH  16  20
ENDBRANCH   1  16
TORSDOF 4
ENDMDL
MODEL 5
REMARK VINA RESULT:      -8.6      6.111      8.445
REMARK  Name = 
REMARK  4 active torsions:
REMARK  status: ('A' for Active; 'I' for Inactive)
REMARK    1  A    between atoms: C_4  and  C_5
REMARK    2  A    between atoms: C_5  and  N_6
REMARK    3  A    between atoms: C_9  and  C_10
REMARK    4  A    between atoms: C_14  and  C_15
REMARK                            x       y       z     vdW  Elec       q    Type
REMARK                         _______ _______ _______ _____ _____    ______ ____
ROOT
ATOM      1  N   UNL     1       1.628   9.215  18.930  0.00  0.00    +0.000 N 
ATOM      2  N   UNL     1       2.111   9.695  17.770  0.00  0.00    +0.000 NA
ATOM      3  N   UNL     1       2.777   8.682  17.233  0.00  0.00    +0.000 NA
ATOM      4  C   UNL     1       2.667   7.617  18.098  0.00  0.00    +0.000 A 
ATOM      5  N   UNL     1       1.939   7.923  19.192  0.00  0.00    +0.000 NA
ENDROOT
BRANCH   4   6
ATOM      6  C   UNL     1       3.296   6.318  17.837  0.00  0.00    +0.000 A 
ATOM      7  C   UNL     1       2.542   5.137  17.887  0.00  0.00    +0.000 A 
ATOM      8  C   UNL     1       3.137   3.893  17.658  0.00  0.00    +0.000 A 
ATOM      9  C   UNL     1       4.495   3.810  17.358  0.00  0.00    +0.000 A 
ATOM     10  C   UNL     1       5.276   4.972  17.276  0.00  0.00    +0.000 A 
ATOM     11  C   UNL     1       4.668   6.220  17.531  0.00  0.00    +0.000 A 
BRANCH  10  12
ATOM     12  C   UNL     1       6.738   4.883  16.899  0.00  0.00    +0.000 C 
ATOM     13  F   UNL     1       6.971   4.098  15.809  0.00  0.00    +0.000 F 
ATOM     14  F   UNL     1       7.271   6.099  16.596  0.00  0.00    +0.000 F 
ATOM     15  F   UNL     1       7.511   4.371  17.896  0.00  0.00    +0.000 F 
ENDBRANCH  10  12
ENDBRANCH   4   6
BRANCH   1  16
ATOM     16  C   UNL     1       0.860  10.057  19.847  0.00  0.00    +0.000 C 
BRANCH  16  20
ATOM     17  O   UNL     1      -3.160  12.743  20.065  0.00  0.00    +0.000 OA
ATOM     18  C   UNL     1      -2.500  11.925  19.428  0.00  0.00    +0.000 A 
ATOM     19  C   UNL     1      -1.223  11.468  19.988  0.00  0.00    +0.000 A 
ATOM     20  C   UNL     1      -0.479  10.573  19.321  0.00  0.00    +0.000 A 
ATOM     21  N   UNL     1      -0.877  10.052  18.102  0.00  0.00    +0.000 NA
ATOM     22  C   UNL     1      -2.011  10.452  17.601  0.00  0.00    +0.000 A 
ATOM     23  C   UNL     1      -2.473   9.907  16.284  0.00  0.00    +0.000 A 
ATOM     24  C   UNL     1      -3.642  10.309  15.758  0.00  0.00    +0.000 A 
ATOM     25  C   UNL     1      -4.459  11.268  16.448  0.00  0.00    +0.000 A 
ATOM     26  C   UNL     1      -4.055  11.762  17.624  0.00  0.00    +0.000 A 
ATOM     27  N   UNL     1      -2.853  11.374  18.210  0.00  0.00    +0.000 N 
ENDBRANCH  16  20
ENDBRANCH   1  16
TORSDOF 4
ENDMDL
MODEL 6
REMARK VINA RESULT:      -8.6      7.118      9.572
REMARK  Name = 
REMARK  4 active torsions:
REMARK  status: ('A' for Active; 'I' for Inactive)
REMARK    1  A    between atoms: C_4  and  C_5
REMARK    2  A    between atoms: C_5  and  N_6
REMARK    3  A    between atoms: C_9  and  C_10
REMARK    4  A    between atoms: C_14  and  C_15
REMARK                            x       y       z     vdW  Elec       q    Type
REMARK                         _______ _______ _______ _____ _____    ______ ____
ROOT
ATOM      1  N   UNL     1       1.304   9.359  20.034  0.00  0.00    +0.000 N 
ATOM      2  N   UNL     1       1.063   8.560  21.090  0.00  0.00    +0.000 NA
ATOM      3  N   UNL     1       1.517   7.368  20.727  0.00  0.00    +0.000 NA
ATOM      4  C   UNL     1       2.023   7.495  19.453  0.00  0.00    +0.000 A 
ATOM      5  N   UNL     1       1.904   8.754  18.981  0.00  0.00    +0.000 NA
ENDROOT
BRANCH   4   6
ATOM      6  C   UNL     1       2.604   6.368  18.717  0.00  0.00    +0.000 A 
ATOM      7  C   UNL     1       3.699   6.561  17.862  0.00  0.00    +0.000 A 
ATOM      8  C   UNL     1       4.246   5.494  17.142  0.00  0.00    +0.000 A 
ATOM      9  C   UNL     1       3.718   4.212  17.278  0.00  0.00    +0.000 A 
ATOM     10  C   UNL     1       2.639   3.977  18.141  0.00  0.00    +0.000 A 
ATOM     11  C   UNL     1       2.081   5.066  18.846  0.00  0.00    +0.000 A 
BRANCH  10  12
ATOM     12  C   UNL     1       2.101   2.575  18.326  0.00  0.00    +0.000 C 
ATOM     13  F   UNL     1       2.381   1.745  17.281  0.00  0.00    +0.000 F 
ATOM     14  F   UNL     1       2.616   1.963  19.428  0.00  0.00    +0.000 F 
ATOM     15  F   UNL     1       0.749   2.542  18.472  0.00  0.00    +0.000 F 
ENDBRANCH  10  12
ENDBRANCH   4   6
BRANCH   1  16
ATOM     16  C   UNL     1       0.903  10.765  20.029  0.00  0.00    +0.000 C 
BRANCH  16  20
ATOM     17  O   UNL     1      -3.498  12.777  20.155  0.00  0.00    +0.000 OA
ATOM     18  C   UNL     1      -2.702  12.075  19.534  0.00  0.00    +0.000 A 
ATOM     19  C   UNL     1      -1.381  11.826  20.122  0.00  0.00    +0.000 A 
ATOM     20  C   UNL     1      -0.490  11.062  19.474  0.00  0.00    +0.000 A 
ATOM     21  N   UNL     1      -0.774  10.486  18.247  0.00  0.00    +0.000 NA
ATOM     22  C   UNL     1      -1.946  10.702  17.720  0.00  0.00    +0.000 A 
ATOM     23  C   UNL     1      -2.287  10.092  16.395  0.00  0.00    +0.000 A 
ATOM     24  C   UNL     1      -3.493  10.304  15.843  0.00  0.00    +0.000 A 
ATOM     25  C   UNL     1      -4.467  11.119  16.514  0.00  0.00    +0.000 A 
ATOM     26  C   UNL     1      -4.172  11.669  17.697  0.00  0.00    +0.000 A 
ATOM     27  N   UNL     1      -2.937  11.477  18.310  0.00  0.00    +0.000 N 
ENDBRANCH  16  20
ENDBRANCH   1  16
TORSDOF 4
ENDMDL
MODEL 7
REMARK VINA RESULT:      -8.5      5.837      7.462
REMARK  Name = 
REMARK  4 active torsions:
REMARK  status: ('A' for Active; 'I' for Inactive)
REMARK    1  A    between atoms: C_4  and  C_5
REMARK    2  A    between atoms: C_5  and  N_6
REMARK    3  A    between atoms: C_9  and  C_10
REMARK    4  A    between atoms: C_14  and  C_15
REMARK                            x       y       z     vdW  Elec       q    Type
REMARK                         _______ _______ _______ _____ _____    ______ ____
ROOT
ATOM      1  N   UNL     1       3.532   4.427  18.513  0.00  0.00    +0.000 N 
ATOM      2  N   UNL     1       3.394   4.165  19.826  0.00  0.00    +0.000 NA
ATOM      3  N   UNL     1       2.817   5.246  20.331  0.00  0.00    +0.000 NA
ATOM      4  C   UNL     1       2.624   6.129  19.291  0.00  0.00    +0.000 A 
ATOM      5  N   UNL     1       3.069   5.636  18.117  0.00  0.00    +0.000 NA
ENDROOT
BRANCH   4   6
ATOM      6  C   UNL     1       2.017   7.450  19.478  0.00  0.00    +0.000 A 
ATOM      7  C   UNL     1       1.994   8.381  18.430  0.00  0.00    +0.000 A 
ATOM      8  C   UNL     1       1.434   9.649  18.606  0.00  0.00    +0.000 A 
ATOM      9  C   UNL     1       0.870  10.004  19.830  0.00  0.00    +0.000 A 
ATOM     10  C   UNL     1       0.853   9.091  20.893  0.00  0.00    +0.000 A 
ATOM     11  C   UNL     1       1.442   7.821  20.711  0.00  0.00    +0.000 A 
BRANCH  10  12
ATOM     12  C   UNL     1       0.194   9.460  22.204  0.00  0.00    +0.000 C 
ATOM     13  F   UNL     1       1.035   9.381  23.275  0.00  0.00    +0.000 F 
ATOM     14  F   UNL     1      -0.282  10.735  22.205  0.00  0.00    +0.000 F 
ATOM     15  F   UNL     1      -0.866   8.662  22.507  0.00  0.00    +0.000 F 
ENDBRANCH  10  12
ENDBRANCH   4   6
BRANCH   1  16
ATOM     16  C   UNL     1       4.176   3.478  17.606  0.00  0.00    +0.000 C 
BRANCH  16  20
ATOM     17  O   UNL     1       7.748   6.462  16.280  0.00  0.00    +0.000 OA
ATOM     18  C   UNL     1       6.971   5.571  15.944  0.00  0.00    +0.000 A 
ATOM     19  C   UNL     1       6.037   5.042  16.945  0.00  0.00    +0.000 A 
ATOM     20  C   UNL     1       5.173   4.072  16.612  0.00  0.00    +0.000 A 
ATOM     21  N   UNL     1       5.126   3.540  15.335  0.00  0.00    +0.000 NA
ATOM     22  C   UNL     1       5.952   4.006  14.441  0.00  0.00    +0.000 A 
ATOM     23  C   UNL     1       5.927   3.454  13.049  0.00  0.00    +0.000 A 
ATOM     24  C   UNL     1       6.770   3.928  12.118  0.00  0.00    +0.000 A 
ATOM     25  C   UNL     1       7.708   4.966  12.445  0.00  0.00    +0.000 A 
ATOM     26  C   UNL     1       7.739   5.465  13.686  0.00  0.00    +0.000 A 
ATOM     27  N   UNL     1       6.884   5.008  14.684  0.00  0.00    +0.000 N 
ENDBRANCH  16  20
ENDBRANCH   1  16
TORSDOF 4
ENDMDL
MODEL 8
REMARK VINA RESULT:      -8.5      6.492      8.289
REMARK  Name = 
REMARK  4 active torsions:
REMARK  status: ('A' for Active; 'I' for Inactive)
REMARK    1  A    between atoms: C_4  and  C_5
REMARK    2  A    between atoms: C_5  and  N_6
REMARK    3  A    between atoms: C_9  and  C_10
REMARK    4  A    between atoms: C_14  and  C_15
REMARK                            x       y       z     vdW  Elec       q    Type
REMARK                         _______ _______ _______ _____ _____    ______ ____
ROOT
ATOM      1  N   UNL     1       3.231   4.973  18.712  0.00  0.00    +0.000 N 
ATOM      2  N   UNL     1       2.560   3.977  18.106  0.00  0.00    +0.000 NA
ATOM      3  N   UNL     1       3.265   3.703  17.017  0.00  0.00    +0.000 NA
ATOM      4  C   UNL     1       4.349   4.552  17.008  0.00  0.00    +0.000 A 
ATOM      5  N   UNL     1       4.357   5.376  18.077  0.00  0.00    +0.000 NA
ENDROOT
BRANCH   4   6
ATOM      6  C   UNL     1       5.350   4.546  15.937  0.00  0.00    +0.000 A 
ATOM      7  C   UNL     1       6.641   5.046  16.163  0.00  0.00    +0.000 A 
ATOM      8  C   UNL     1       7.595   5.060  15.141  0.00  0.00    +0.000 A 
ATOM      9  C   UNL     1       7.280   4.559  13.880  0.00  0.00    +0.000 A 
ATOM     10  C   UNL     1       6.008   4.029  13.624  0.00  0.00    +0.000 A 
ATOM     11  C   UNL     1       5.045   4.041  14.657  0.00  0.00    +0.000 A 
BRANCH  10  12
ATOM     12  C   UNL     1       5.685   3.439  12.269  0.00  0.00    +0.000 C 
ATOM     13  F   UNL     1       4.404   3.673  11.867  0.00  0.00    +0.000 F 
ATOM     14  F   UNL     1       6.477   3.943  11.282  0.00  0.00    +0.000 F 
ATOM     15  F   UNL     1       5.846   2.088  12.228  0.00  0.00    +0.000 F 
ENDBRANCH  10  12
ENDBRANCH   4   6
BRANCH   1  16
ATOM     16  C   UNL     1       2.740   5.590  19.943  0.00  0.00    +0.000 C 
BRANCH  16  20
ATOM     17  O   UNL     1       1.839   9.710  17.569  0.00  0.00    +0.000 OA
ATOM     18  C   UNL     1       1.705   9.069  18.609  0.00  0.00    +0.000 A 
ATOM     19  C   UNL     1       2.285   7.723  18.682  0.00  0.00    +0.000 A 
ATOM     20  C   UNL     1       2.161   6.998  19.803  0.00  0.00    +0.000 A 
ATOM     21  N   UNL     1       1.495   7.478  20.917  0.00  0.00    +0.000 NA
ATOM     22  C   UNL     1       0.979   8.674  20.859  0.00  0.00    +0.000 A 
ATOM     23  C   UNL     1       0.254   9.226  22.047  0.00  0.00    +0.000 A 
ATOM     24  C   UNL     1      -0.279  10.458  22.002  0.00  0.00    +0.000 A 
ATOM     25  C   UNL     1      -0.164  11.258  20.814  0.00  0.00    +0.000 A 
ATOM     26  C   UNL     1       0.482  10.773  19.747  0.00  0.00    +0.000 A 
ATOM     27  N   UNL     1       1.052   9.504  19.747  0.00  0.00    +0.000 N 
ENDBRANCH  16  20
ENDBRANCH   1  16
TORSDOF 4
ENDMDL
MODEL 9
REMARK VINA RESULT:      -8.5      7.171      9.624
REMARK  Name = 
REMARK  4 active torsions:
REMARK  status: ('A' for Active; 'I' for Inactive)
REMARK    1  A    between atoms: C_4  and  C_5
REMARK    2  A    between atoms: C_5  and  N_6
REMARK    3  A    between atoms: C_9  and  C_10
REMARK    4  A    between atoms: C_14  and  C_15
REMARK                            x       y       z     vdW  Elec       q    Type
REMARK                         _______ _______ _______ _____ _____    ______ ____
ROOT
ATOM      1  N   UNL     1       1.474   9.305  19.207  0.00  0.00    +0.000 N 
ATOM      2  N   UNL     1       1.326   8.649  20.372  0.00  0.00    +0.000 NA
ATOM      3  N   UNL     1       1.864   7.455  20.162  0.00  0.00    +0.000 NA
ATOM      4  C   UNL     1       2.324   7.437  18.864  0.00  0.00    +0.000 A 
ATOM      5  N   UNL     1       2.091   8.603  18.226  0.00  0.00    +0.000 NA
ENDROOT
BRANCH   4   6
ATOM      6  C   UNL     1       2.972   6.264  18.271  0.00  0.00    +0.000 A 
ATOM      7  C   UNL     1       4.063   6.413  17.402  0.00  0.00    +0.000 A 
ATOM      8  C   UNL     1       4.674   5.300  16.818  0.00  0.00    +0.000 A 
ATOM      9  C   UNL     1       4.217   4.015  17.106  0.00  0.00    +0.000 A 
ATOM     10  C   UNL     1       3.145   3.826  17.990  0.00  0.00    +0.000 A 
ATOM     11  C   UNL     1       2.521   4.959  18.556  0.00  0.00    +0.000 A 
BRANCH  10  12
ATOM     12  C   UNL     1       2.683   2.429  18.341  0.00  0.00    +0.000 C 
ATOM     13  F   UNL     1       3.397   1.449  17.717  0.00  0.00    +0.000 F 
ATOM     14  F   UNL     1       2.788   2.168  19.673  0.00  0.00    +0.000 F 
ATOM     15  F   UNL     1       1.382   2.204  18.014  0.00  0.00    +0.000 F 
ENDBRANCH  10  12
ENDBRANCH   4   6
BRANCH   1  16
ATOM     16  C   UNL     1       0.961  10.662  19.021  0.00  0.00    +0.000 C 
BRANCH  16  20
ATOM     17  O   UNL     1      -3.022   9.632  16.472  0.00  0.00    +0.000 OA
ATOM     18  C   UNL     1      -2.531  10.257  17.410  0.00  0.00    +0.000 A 
ATOM     19  C   UNL     1      -1.096  10.106  17.676  0.00  0.00    +0.000 A 
ATOM     20  C   UNL     1      -0.526  10.776  18.689  0.00  0.00    +0.000 A 
ATOM     21  N   UNL     1      -1.253  11.622  19.508  0.00  0.00    +0.000 NA
ATOM     22  C   UNL     1      -2.528  11.762  19.275  0.00  0.00    +0.000 A 
ATOM     23  C   UNL     1      -3.344  12.672  20.141  0.00  0.00    +0.000 A 
ATOM     24  C   UNL     1      -4.658  12.828  19.910  0.00  0.00    +0.000 A 
ATOM     25  C   UNL     1      -5.296  12.122  18.833  0.00  0.00    +0.000 A 
ATOM     26  C   UNL     1      -4.576  11.306  18.055  0.00  0.00    +0.000 A 
ATOM     27  N   UNL     1      -3.212  11.114  18.254  0.00  0.00    +0.000 N 
ENDBRANCH  16  20
ENDBRANCH   1  16
TORSDOF 4
ENDMDL
