MODEL 1
REMARK VINA RESULT:      -8.7      0.000      0.000
REMARK  Name = 
REMARK  6 active torsions:
REMARK  status: ('A' for Active; 'I' for Inactive)
REMARK    1  A    between atoms: C_2  and  C_10
REMARK    2  A    between atoms: N_3  and  C_4
REMARK    3  A    between atoms: C_4  and  C_5
REMARK    4  A    between atoms: C_13  and  N_14
REMARK    5  A    between atoms: N_14  and  S_15
REMARK    6  A    between atoms: S_15  and  C_18
REMARK                            x       y       z     vdW  Elec       q    Type
REMARK                         _______ _______ _______ _____ _____    ______ ____
ROOT
ATOM      1  N   UNL     1       3.048   5.796  20.349  0.00  0.00    +0.000 N 
ATOM      2  H   UNL     1       2.959   5.496  21.320  0.00  0.00    +0.000 HD
ENDROOT
BRANCH   1   6
ATOM      3  C   UNL     1       0.995   9.343  19.307  0.00  0.00    +0.000 A 
ATOM      4  C   UNL     1       1.833   8.714  18.371  0.00  0.00    +0.000 A 
ATOM      5  C   UNL     1       2.519   7.543  18.709  0.00  0.00    +0.000 A 
ATOM      6  C   UNL     1       2.359   6.977  19.973  0.00  0.00    +0.000 A 
ATOM      7  C   UNL     1       1.527   7.595  20.908  0.00  0.00    +0.000 A 
ATOM      8  C   UNL     1       0.842   8.767  20.581  0.00  0.00    +0.000 A 
BRANCH   3  10
ATOM      9  O   UNL     1       0.755  11.519  18.438  0.00  0.00    +0.000 OA
ATOM     10  C   UNL     1       0.215  10.564  18.980  0.00  0.00    +0.000 C 
ATOM     11  N   UNL     1      -1.116  10.537  19.329  0.00  0.00    +0.000 N 
ATOM     12  H   UNL     1      -1.570   9.649  19.498  0.00  0.00    +0.000 HD
BRANCH  11  13
ATOM     13  C   UNL     1      -2.005  11.664  19.094  0.00  0.00    +0.000 C 
BRANCH  13  14
ATOM     14  C   UNL     1      -2.949  11.391  17.914  0.00  0.00    +0.000 C 
ATOM     15  C   UNL     1      -3.374   9.935  17.774  0.00  0.00    +0.000 C 
ATOM     16  C   UNL     1      -3.622   9.818  16.293  0.00  0.00    +0.000 C 
ATOM     17  C   UNL     1      -2.546  10.710  15.714  0.00  0.00    +0.000 C 
ATOM     18  O   UNL     1      -2.292  11.744  16.677  0.00  0.00    +0.000 OA
ENDBRANCH  13  14
ENDBRANCH  11  13
ENDBRANCH   3  10
ENDBRANCH   1   6
BRANCH   1  19
ATOM     19  S   UNL     1       2.967   4.458  19.320  0.00  0.00    +0.000 S 
ATOM     20  O   UNL     1       3.147   3.293  20.161  0.00  0.00    +0.000 OA
ATOM     21  O   UNL     1       1.797   4.583  18.474  0.00  0.00    +0.000 OA
BRANCH  19  22
ATOM     22  C   UNL     1       4.418   4.611  18.299  0.00  0.00    +0.000 A 
ATOM     23  C   UNL     1       5.627   5.023  18.917  0.00  0.00    +0.000 A 
ATOM     24  C   UNL     1       6.751   5.336  18.151  0.00  0.00    +0.000 A 
ATOM     25  C   UNL     1       6.622   5.202  16.790  0.00  0.00    +0.000 A 
ATOM     26  N   UNL     1       7.534   5.497  15.785  0.00  0.00    +0.000 N 
ATOM     27  C   UNL     1       6.987   5.118  14.552  0.00  0.00    +0.000 A 
ATOM     28  O   UNL     1       7.523   5.199  13.463  0.00  0.00    +0.000 OA
ATOM     29  N   UNL     1       5.695   4.633  14.820  0.00  0.00    +0.000 N 
ATOM     30  C   UNL     1       5.458   4.719  16.189  0.00  0.00    +0.000 A 
ATOM     31  C   UNL     1       4.320   4.441  16.911  0.00  0.00    +0.000 A 
ATOM     32  H   UNL     1       8.423   5.961  15.883  0.00  0.00    +0.000 HD
ATOM     33  H   UNL     1       5.072   4.293  14.106  0.00  0.00    +0.000 HD
ENDBRANCH  19  22
ENDBRANCH   1  19
TORSDOF 6
ENDMDL
MODEL 2
REMARK VINA RESULT:      -8.5      1.022      1.529
REMARK  Name = 
REMARK  6 active torsions:
REMARK  status: ('A' for Active; 'I' for Inactive)
REMARK    1  A    between atoms: C_2  and  C_10
REMARK    2  A    between atoms: N_3  and  C_4
REMARK    3  A    between atoms: C_4  and  C_5
REMARK    4  A    between atoms: C_13  and  N_14
REMARK    5  A    between atoms: N_14  and  S_15
REMARK    6  A    between atoms: S_15  and  C_18
REMARK                            x       y       z     vdW  Elec       q    Type
REMARK                         _______ _______ _______ _____ _____    ______ ____
ROOT
ATOM      1  N   UNL     1       3.273   5.835  20.056  0.00  0.00    +0.000 N 
ATOM      2  H   UNL     1       3.304   5.556  21.037  0.00  0.00    +0.000 HD
ENDROOT
BRANCH   1   6
ATOM      3  C   UNL     1       1.072   9.299  19.036  0.00  0.00    +0.000 A 
ATOM      4  C   UNL     1       0.964   8.751  20.324  0.00  0.00    +0.000 A 
ATOM      5  C   UNL     1       1.685   7.603  20.670  0.00  0.00    +0.000 A 
ATOM      6  C   UNL     1       2.536   7.005  19.741  0.00  0.00    +0.000 A 
ATOM      7  C   UNL     1       2.650   7.544  18.458  0.00  0.00    +0.000 A 
ATOM      8  C   UNL     1       1.930   8.687  18.104  0.00  0.00    +0.000 A 
BRANCH   3  10
ATOM      9  O   UNL     1       0.966  11.595  18.520  0.00  0.00    +0.000 OA
ATOM     10  C   UNL     1       0.358  10.539  18.638  0.00  0.00    +0.000 C 
ATOM     11  N   UNL     1      -0.995  10.410  18.423  0.00  0.00    +0.000 N 
ATOM     12  H   UNL     1      -1.388   9.495  18.249  0.00  0.00    +0.000 HD
BRANCH  11  13
ATOM     13  C   UNL     1      -1.835  11.538  18.049  0.00  0.00    +0.000 C 
BRANCH  13  14
ATOM     14  C   UNL     1      -3.323  11.168  18.116  0.00  0.00    +0.000 C 
ATOM     15  C   UNL     1      -4.093  11.423  16.827  0.00  0.00    +0.000 C 
ATOM     16  C   UNL     1      -5.487  11.682  17.336  0.00  0.00    +0.000 C 
ATOM     17  C   UNL     1      -5.226  12.426  18.627  0.00  0.00    +0.000 C 
ATOM     18  O   UNL     1      -3.971  11.954  19.140  0.00  0.00    +0.000 OA
ENDBRANCH  13  14
ENDBRANCH  11  13
ENDBRANCH   3  10
ENDBRANCH   1   6
BRANCH   1  19
ATOM     19  S   UNL     1       3.079   4.476  19.073  0.00  0.00    +0.000 S 
ATOM     20  O   UNL     1       3.231   3.327  19.941  0.00  0.00    +0.000 OA
ATOM     21  O   UNL     1       1.884   4.640  18.269  0.00  0.00    +0.000 OA
BRANCH  19  22
ATOM     22  C   UNL     1       4.493   4.519  17.991  0.00  0.00    +0.000 A 
ATOM     23  C   UNL     1       5.756   4.830  18.559  0.00  0.00    +0.000 A 
ATOM     24  C   UNL     1       6.868   5.058  17.747  0.00  0.00    +0.000 A 
ATOM     25  C   UNL     1       6.673   4.944  16.393  0.00  0.00    +0.000 A 
ATOM     26  N   UNL     1       7.562   5.173  15.350  0.00  0.00    +0.000 N 
ATOM     27  C   UNL     1       6.935   4.847  14.141  0.00  0.00    +0.000 A 
ATOM     28  O   UNL     1       7.430   4.893  13.030  0.00  0.00    +0.000 OA
ATOM     29  N   UNL     1       5.621   4.464  14.461  0.00  0.00    +0.000 N 
ATOM     30  C   UNL     1       5.449   4.559  15.839  0.00  0.00    +0.000 A 
ATOM     31  C   UNL     1       4.324   4.368  16.608  0.00  0.00    +0.000 A 
ATOM     32  H   UNL     1       8.488   5.563  15.413  0.00  0.00    +0.000 HD
ATOM     33  H   UNL     1       4.944   4.179  13.774  0.00  0.00    +0.000 HD
ENDBRANCH  19  22
ENDBRANCH   1  19
TORSDOF 6
ENDMDL
MODEL 3
REMARK VINA RESULT:      -8.2      1.590      2.419
REMARK  Name = 
REMARK  6 active torsions:
REMARK  status: ('A' for Active; 'I' for Inactive)
REMARK    1  A    between atoms: C_2  and  C_10
REMARK    2  A    between atoms: N_3  and  C_4
REMARK    3  A    between atoms: C_4  and  C_5
REMARK    4  A    between atoms: C_13  and  N_14
REMARK    5  A    between atoms: N_14  and  S_15
REMARK    6  A    between atoms: S_15  and  C_18
REMARK                            x       y       z     vdW  Elec       q    Type
REMARK                         _______ _______ _______ _____ _____    ______ ____
ROOT
ATOM      1  N   UNL     1       3.075   6.037  20.143  0.00  0.00    +0.000 N 
ATOM      2  H   UNL     1       3.079   5.740  21.119  0.00  0.00    +0.000 HD
ENDROOT
BRANCH   1   6
ATOM      3  C   UNL     1       0.915   9.571  19.290  0.00  0.00    +0.000 A 
ATOM      4  C   UNL     1       1.730   8.990  18.305  0.00  0.00    +0.000 A 
ATOM      5  C   UNL     1       2.451   7.823  18.580  0.00  0.00    +0.000 A 
ATOM      6  C   UNL     1       2.349   7.215  19.830  0.00  0.00    +0.000 A 
ATOM      7  C   UNL     1       1.540   7.785  20.814  0.00  0.00    +0.000 A 
ATOM      8  C   UNL     1       0.820   8.952  20.550  0.00  0.00    +0.000 A 
BRANCH   3  10
ATOM      9  O   UNL     1       0.500  11.650  18.265  0.00  0.00    +0.000 OA
ATOM     10  C   UNL     1       0.099  10.785  19.031  0.00  0.00    +0.000 C 
ATOM     11  N   UNL     1      -1.099  10.858  19.703  0.00  0.00    +0.000 N 
ATOM     12  H   UNL     1      -1.511  10.015  20.082  0.00  0.00    +0.000 HD
BRANCH  11  13
ATOM     13  C   UNL     1      -1.999  11.993  19.571  0.00  0.00    +0.000 C 
BRANCH  13  14
ATOM     14  C   UNL     1      -2.189  12.710  20.914  0.00  0.00    +0.000 C 
ATOM     15  C   UNL     1      -1.723  11.912  22.125  0.00  0.00    +0.000 C 
ATOM     16  C   UNL     1      -2.620  12.438  23.215  0.00  0.00    +0.000 C 
ATOM     17  C   UNL     1      -3.923  12.662  22.482  0.00  0.00    +0.000 C 
ATOM     18  O   UNL     1      -3.592  12.984  21.123  0.00  0.00    +0.000 OA
ENDBRANCH  13  14
ENDBRANCH  11  13
ENDBRANCH   3  10
ENDBRANCH   1   6
BRANCH   1  19
ATOM     19  S   UNL     1       2.901   4.695  19.131  0.00  0.00    +0.000 S 
ATOM     20  O   UNL     1       3.012   3.531  19.984  0.00  0.00    +0.000 OA
ATOM     21  O   UNL     1       1.736   4.885  18.290  0.00  0.00    +0.000 OA
BRANCH  19  22
ATOM     22  C   UNL     1       4.351   4.743  18.098  0.00  0.00    +0.000 A 
ATOM     23  C   UNL     1       5.563   5.208  18.674  0.00  0.00    +0.000 A 
ATOM     24  C   UNL     1       6.687   5.442  17.880  0.00  0.00    +0.000 A 
ATOM     25  C   UNL     1       6.557   5.177  16.539  0.00  0.00    +0.000 A 
ATOM     26  N   UNL     1       7.469   5.370  15.509  0.00  0.00    +0.000 N 
ATOM     27  C   UNL     1       6.919   4.876  14.319  0.00  0.00    +0.000 A 
ATOM     28  O   UNL     1       7.455   4.850  13.227  0.00  0.00    +0.000 OA
ATOM     29  N   UNL     1       5.626   4.424  14.633  0.00  0.00    +0.000 N 
ATOM     30  C   UNL     1       5.391   4.643  15.987  0.00  0.00    +0.000 A 
ATOM     31  C   UNL     1       4.252   4.441  16.733  0.00  0.00    +0.000 A 
ATOM     32  H   UNL     1       8.359   5.838  15.562  0.00  0.00    +0.000 HD
ATOM     33  H   UNL     1       5.001   4.019  13.956  0.00  0.00    +0.000 HD
ENDBRANCH  19  22
ENDBRANCH   1  19
TORSDOF 6
ENDMDL
MODEL 4
REMARK VINA RESULT:      -8.2      1.334      1.838
REMARK  Name = 
REMARK  6 active torsions:
REMARK  status: ('A' for Active; 'I' for Inactive)
REMARK    1  A    between atoms: C_2  and  C_10
REMARK    2  A    between atoms: N_3  and  C_4
REMARK    3  A    between atoms: C_4  and  C_5
REMARK    4  A    between atoms: C_13  and  N_14
REMARK    5  A    between atoms: N_14  and  S_15
REMARK    6  A    between atoms: S_15  and  C_18
REMARK                            x       y       z     vdW  Elec       q    Type
REMARK                         _______ _______ _______ _____ _____    ______ ____
ROOT
ATOM      1  N   UNL     1       3.098   6.483  20.047  0.00  0.00    +0.000 N 
ATOM      2  H   UNL     1       3.433   6.463  21.010  0.00  0.00    +0.000 HD
ENDROOT
BRANCH   1   6
ATOM      3  C   UNL     1       0.587   9.730  19.029  0.00  0.00    +0.000 A 
ATOM      4  C   UNL     1       1.419   9.152  18.056  0.00  0.00    +0.000 A 
ATOM      5  C   UNL     1       2.255   8.080  18.385  0.00  0.00    +0.000 A 
ATOM      6  C   UNL     1       2.254   7.563  19.679  0.00  0.00    +0.000 A 
ATOM      7  C   UNL     1       1.430   8.131  20.652  0.00  0.00    +0.000 A 
ATOM      8  C   UNL     1       0.595   9.204  20.333  0.00  0.00    +0.000 A 
BRANCH   3  10
ATOM      9  O   UNL     1      -0.316  11.879  19.364  0.00  0.00    +0.000 OA
ATOM     10  C   UNL     1      -0.347  10.842  18.717  0.00  0.00    +0.000 C 
ATOM     11  N   UNL     1      -1.223  10.616  17.680  0.00  0.00    +0.000 N 
ATOM     12  H   UNL     1      -1.023   9.889  17.005  0.00  0.00    +0.000 HD
BRANCH  11  13
ATOM     13  C   UNL     1      -2.213  11.600  17.268  0.00  0.00    +0.000 C 
BRANCH  13  14
ATOM     14  C   UNL     1      -3.619  11.204  17.740  0.00  0.00    +0.000 C 
ATOM     15  C   UNL     1      -4.737  11.600  16.784  0.00  0.00    +0.000 C 
ATOM     16  C   UNL     1      -5.905  11.777  17.719  0.00  0.00    +0.000 C 
ATOM     17  C   UNL     1      -5.248  12.367  18.948  0.00  0.00    +0.000 C 
ATOM     18  O   UNL     1      -3.908  11.855  18.997  0.00  0.00    +0.000 OA
ENDBRANCH  13  14
ENDBRANCH  11  13
ENDBRANCH   3  10
ENDBRANCH   1   6
BRANCH   1  19
ATOM     19  S   UNL     1       2.670   4.926  19.550  0.00  0.00    +0.000 S 
ATOM     20  O   UNL     1       3.160   4.028  20.575  0.00  0.00    +0.000 OA
ATOM     21  O   UNL     1       1.271   4.919  19.170  0.00  0.00    +0.000 OA
BRANCH  19  22
ATOM     22  C   UNL     1       3.649   4.655  18.088  0.00  0.00    +0.000 A 
ATOM     23  C   UNL     1       3.555   3.391  17.449  0.00  0.00    +0.000 A 
ATOM     24  C   UNL     1       4.424   3.048  16.411  0.00  0.00    +0.000 A 
ATOM     25  C   UNL     1       5.342   3.999  16.041  0.00  0.00    +0.000 A 
ATOM     26  N   UNL     1       6.361   3.923  15.099  0.00  0.00    +0.000 N 
ATOM     27  C   UNL     1       6.989   5.172  15.009  0.00  0.00    +0.000 A 
ATOM     28  O   UNL     1       7.899   5.476  14.261  0.00  0.00    +0.000 OA
ATOM     29  N   UNL     1       6.366   6.002  15.957  0.00  0.00    +0.000 N 
ATOM     30  C   UNL     1       5.380   5.272  16.615  0.00  0.00    +0.000 A 
ATOM     31  C   UNL     1       4.568   5.627  17.667  0.00  0.00    +0.000 A 
ATOM     32  H   UNL     1       6.664   3.107  14.592  0.00  0.00    +0.000 HD
ATOM     33  H   UNL     1       6.625   6.963  16.108  0.00  0.00    +0.000 HD
ENDBRANCH  19  22
ENDBRANCH   1  19
TORSDOF 6
ENDMDL
MODEL 5
REMARK VINA RESULT:      -8.2      1.328      1.542
REMARK  Name = 
REMARK  6 active torsions:
REMARK  status: ('A' for Active; 'I' for Inactive)
REMARK    1  A    between atoms: C_2  and  C_10
REMARK    2  A    between atoms: N_3  and  C_4
REMARK    3  A    between atoms: C_4  and  C_5
REMARK    4  A    between atoms: C_13  and  N_14
REMARK    5  A    between atoms: N_14  and  S_15
REMARK    6  A    between atoms: S_15  and  C_18
REMARK                            x       y       z     vdW  Elec       q    Type
REMARK                         _______ _______ _______ _____ _____    ______ ____
ROOT
ATOM      1  N   UNL     1       3.362   4.145  19.548  0.00  0.00    +0.000 N 
ATOM      2  H   UNL     1       3.180   3.528  20.340  0.00  0.00    +0.000 HD
ENDROOT
BRANCH   1   6
ATOM      3  C   UNL     1       1.691   8.022  19.795  0.00  0.00    +0.000 A 
ATOM      4  C   UNL     1       2.527   7.683  18.719  0.00  0.00    +0.000 A 
ATOM      5  C   UNL     1       3.087   6.405  18.631  0.00  0.00    +0.000 A 
ATOM      6  C   UNL     1       2.802   5.447  19.603  0.00  0.00    +0.000 A 
ATOM      7  C   UNL     1       1.971   5.775  20.676  0.00  0.00    +0.000 A 
ATOM      8  C   UNL     1       1.411   7.050  20.773  0.00  0.00    +0.000 A 
BRANCH   3  10
ATOM      9  O   UNL     1       0.888   9.877  21.003  0.00  0.00    +0.000 OA
ATOM     10  C   UNL     1       1.040   9.353  19.909  0.00  0.00    +0.000 C 
ATOM     11  N   UNL     1       0.634   9.924  18.725  0.00  0.00    +0.000 N 
ATOM     12  H   UNL     1       1.031   9.603  17.852  0.00  0.00    +0.000 HD
BRANCH  11  13
ATOM     13  C   UNL     1      -0.037  11.214  18.674  0.00  0.00    +0.000 C 
BRANCH  13  14
ATOM     14  C   UNL     1      -1.549  11.047  18.472  0.00  0.00    +0.000 C 
ATOM     15  C   UNL     1      -1.975   9.646  18.052  0.00  0.00    +0.000 C 
ATOM     16  C   UNL     1      -3.232   9.919  17.267  0.00  0.00    +0.000 C 
ATOM     17  C   UNL     1      -2.903  11.222  16.574  0.00  0.00    +0.000 C 
ATOM     18  O   UNL     1      -2.000  11.939  17.429  0.00  0.00    +0.000 OA
ENDBRANCH  13  14
ENDBRANCH  11  13
ENDBRANCH   3  10
ENDBRANCH   1   6
BRANCH   1  19
ATOM     19  S   UNL     1       3.242   3.281  18.101  0.00  0.00    +0.000 S 
ATOM     20  O   UNL     1       3.391   1.884  18.454  0.00  0.00    +0.000 OA
ATOM     21  O   UNL     1       2.075   3.737  17.373  0.00  0.00    +0.000 OA
BRANCH  19  22
ATOM     22  C   UNL     1       4.695   3.761  17.190  0.00  0.00    +0.000 A 
ATOM     23  C   UNL     1       5.805   4.258  17.922  0.00  0.00    +0.000 A 
ATOM     24  C   UNL     1       6.901   4.819  17.264  0.00  0.00    +0.000 A 
ATOM     25  C   UNL     1       6.849   4.838  15.892  0.00  0.00    +0.000 A 
ATOM     26  N   UNL     1       7.748   5.380  14.982  0.00  0.00    +0.000 N 
ATOM     27  C   UNL     1       7.313   5.083  13.684  0.00  0.00    +0.000 A 
ATOM     28  O   UNL     1       7.875   5.373  12.645  0.00  0.00    +0.000 OA
ATOM     29  N   UNL     1       6.096   4.392  13.818  0.00  0.00    +0.000 N 
ATOM     30  C   UNL     1       5.794   4.274  15.172  0.00  0.00    +0.000 A 
ATOM     31  C   UNL     1       4.680   3.752  15.789  0.00  0.00    +0.000 A 
ATOM     32  H   UNL     1       8.554   5.947  15.186  0.00  0.00    +0.000 HD
ATOM     33  H   UNL     1       5.559   4.059  13.035  0.00  0.00    +0.000 HD
ENDBRANCH  19  22
ENDBRANCH   1  19
TORSDOF 6
ENDMDL
MODEL 6
REMARK VINA RESULT:      -8.2      2.028      3.103
REMARK  Name = 
REMARK  6 active torsions:
REMARK  status: ('A' for Active; 'I' for Inactive)
REMARK    1  A    between atoms: C_2  and  C_10
REMARK    2  A    between atoms: N_3  and  C_4
REMARK    3  A    between atoms: C_4  and  C_5
REMARK    4  A    between atoms: C_13  and  N_14
REMARK    5  A    between atoms: N_14  and  S_15
REMARK    6  A    between atoms: S_15  and  C_18
REMARK                            x       y       z     vdW  Elec       q    Type
REMARK                         _______ _______ _______ _____ _____    ______ ____
ROOT
ATOM      1  N   UNL     1       3.662   5.531  19.853  0.00  0.00    +0.000 N 
ATOM      2  H   UNL     1       3.681   5.269  20.839  0.00  0.00    +0.000 HD
ENDROOT
BRANCH   1   6
ATOM      3  C   UNL     1       1.402   8.975  18.895  0.00  0.00    +0.000 A 
ATOM      4  C   UNL     1       2.287   8.429  17.951  0.00  0.00    +0.000 A 
ATOM      5  C   UNL     1       3.042   7.293  18.261  0.00  0.00    +0.000 A 
ATOM      6  C   UNL     1       2.904   6.678  19.505  0.00  0.00    +0.000 A 
ATOM      7  C   UNL     1       2.026   7.213  20.449  0.00  0.00    +0.000 A 
ATOM      8  C   UNL     1       1.272   8.350  20.149  0.00  0.00    +0.000 A 
BRANCH   3  10
ATOM      9  O   UNL     1      -0.450  10.038  17.903  0.00  0.00    +0.000 OA
ATOM     10  C   UNL     1       0.551  10.155  18.597  0.00  0.00    +0.000 C 
ATOM     11  N   UNL     1       0.966  11.348  19.141  0.00  0.00    +0.000 N 
ATOM     12  H   UNL     1       1.609  11.344  19.923  0.00  0.00    +0.000 HD
BRANCH  11  13
ATOM     13  C   UNL     1       0.250  12.595  18.922  0.00  0.00    +0.000 C 
BRANCH  13  14
ATOM     14  C   UNL     1       0.960  13.771  19.608  0.00  0.00    +0.000 C 
ATOM     15  C   UNL     1       1.388  14.885  18.663  0.00  0.00    +0.000 C 
ATOM     16  C   UNL     1       2.586  15.460  19.373  0.00  0.00    +0.000 C 
ATOM     17  C   UNL     1       3.221  14.230  19.982  0.00  0.00    +0.000 C 
ATOM     18  O   UNL     1       2.163  13.300  20.254  0.00  0.00    +0.000 OA
ENDBRANCH  13  14
ENDBRANCH  11  13
ENDBRANCH   3  10
ENDBRANCH   1   6
BRANCH   1  19
ATOM     19  S   UNL     1       3.515   4.150  18.890  0.00  0.00    +0.000 S 
ATOM     20  O   UNL     1       3.805   3.025  19.754  0.00  0.00    +0.000 OA
ATOM     21  O   UNL     1       2.266   4.216  18.158  0.00  0.00    +0.000 OA
BRANCH  19  22
ATOM     22  C   UNL     1       4.856   4.291  17.727  0.00  0.00    +0.000 A 
ATOM     23  C   UNL     1       6.118   4.720  18.214  0.00  0.00    +0.000 A 
ATOM     24  C   UNL     1       7.158   5.025  17.335  0.00  0.00    +0.000 A 
ATOM     25  C   UNL     1       6.896   4.866  15.996  0.00  0.00    +0.000 A 
ATOM     26  N   UNL     1       7.701   5.146  14.899  0.00  0.00    +0.000 N 
ATOM     27  C   UNL     1       7.036   4.742  13.734  0.00  0.00    +0.000 A 
ATOM     28  O   UNL     1       7.461   4.806  12.596  0.00  0.00    +0.000 OA
ATOM     29  N   UNL     1       5.781   4.256  14.138  0.00  0.00    +0.000 N 
ATOM     30  C   UNL     1       5.681   4.366  15.522  0.00  0.00    +0.000 A 
ATOM     31  C   UNL     1       4.622   4.096  16.358  0.00  0.00    +0.000 A 
ATOM     32  H   UNL     1       8.592   5.616  14.901  0.00  0.00    +0.000 HD
ATOM     33  H   UNL     1       5.092   3.900  13.496  0.00  0.00    +0.000 HD
ENDBRANCH  19  22
ENDBRANCH   1  19
TORSDOF 6
ENDMDL
MODEL 7
REMARK VINA RESULT:      -8.1      2.067      2.556
REMARK  Name = 
REMARK  6 active torsions:
REMARK  status: ('A' for Active; 'I' for Inactive)
REMARK    1  A    between atoms: C_2  and  C_10
REMARK    2  A    between atoms: N_3  and  C_4
REMARK    3  A    between atoms: C_4  and  C_5
REMARK    4  A    between atoms: C_13  and  N_14
REMARK    5  A    between atoms: N_14  and  S_15
REMARK    6  A    between atoms: S_15  and  C_18
REMARK                            x       y       z     vdW  Elec       q    Type
REMARK                         _______ _______ _______ _____ _____    ______ ____
ROOT
ATOM      1  N   UNL     1       2.607   4.411  19.846  0.00  0.00    +0.000 N 
ATOM      2  H   UNL     1       2.098   3.980  20.619  0.00  0.00    +0.000 HD
ENDROOT
BRANCH   1   6
ATOM      3  C   UNL     1       1.785   8.490  19.095  0.00  0.00    +0.000 A 
ATOM      4  C   UNL     1       2.282   7.672  18.068  0.00  0.00    +0.000 A 
ATOM      5  C   UNL     1       2.561   6.323  18.308  0.00  0.00    +0.000 A 
ATOM      6  C   UNL     1       2.326   5.773  19.568  0.00  0.00    +0.000 A 
ATOM      7  C   UNL     1       1.830   6.579  20.594  0.00  0.00    +0.000 A 
ATOM      8  C   UNL     1       1.553   7.928  20.364  0.00  0.00    +0.000 A 
BRANCH   3  10
ATOM      9  O   UNL     1       2.078  10.600  18.089  0.00  0.00    +0.000 OA
ATOM     10  C   UNL     1       1.435   9.918  18.876  0.00  0.00    +0.000 C 
ATOM     11  N   UNL     1       0.372  10.394  19.608  0.00  0.00    +0.000 N 
ATOM     12  H   UNL     1      -0.291   9.743  20.008  0.00  0.00    +0.000 HD
BRANCH  11  13
ATOM     13  C   UNL     1      -0.078  11.775  19.519  0.00  0.00    +0.000 C 
BRANCH  13  14
ATOM     14  C   UNL     1      -0.463  12.323  20.900  0.00  0.00    +0.000 C 
ATOM     15  C   UNL     1      -0.581  11.263  21.987  0.00  0.00    +0.000 C 
ATOM     16  C   UNL     1      -1.594  11.875  22.918  0.00  0.00    +0.000 C 
ATOM     17  C   UNL     1      -2.531  12.577  21.961  0.00  0.00    +0.000 C 
ATOM     18  O   UNL     1      -1.752  12.970  20.821  0.00  0.00    +0.000 OA
ENDBRANCH  13  14
ENDBRANCH  11  13
ENDBRANCH   3  10
ENDBRANCH   1   6
BRANCH   1  19
ATOM     19  S   UNL     1       2.714   3.332  18.550  0.00  0.00    +0.000 S 
ATOM     20  O   UNL     1       2.857   2.015  19.134  0.00  0.00    +0.000 OA
ATOM     21  O   UNL     1       1.643   3.611  17.614  0.00  0.00    +0.000 OA
BRANCH  19  22
ATOM     22  C   UNL     1       4.261   3.744  17.772  0.00  0.00    +0.000 A 
ATOM     23  C   UNL     1       5.359   4.075  18.608  0.00  0.00    +0.000 A 
ATOM     24  C   UNL     1       6.543   4.581  18.067  0.00  0.00    +0.000 A 
ATOM     25  C   UNL     1       6.585   4.713  16.701  0.00  0.00    +0.000 A 
ATOM     26  N   UNL     1       7.588   5.239  15.896  0.00  0.00    +0.000 N 
ATOM     27  C   UNL     1       7.216   5.089  14.553  0.00  0.00    +0.000 A 
ATOM     28  O   UNL     1       7.871   5.406  13.578  0.00  0.00    +0.000 OA
ATOM     29  N   UNL     1       5.937   4.507  14.555  0.00  0.00    +0.000 N 
ATOM     30  C   UNL     1       5.534   4.310  15.873  0.00  0.00    +0.000 A 
ATOM     31  C   UNL     1       4.340   3.849  16.376  0.00  0.00    +0.000 A 
ATOM     32  H   UNL     1       8.426   5.710  16.195  0.00  0.00    +0.000 HD
ATOM     33  H   UNL     1       5.426   4.289  13.716  0.00  0.00    +0.000 HD
ENDBRANCH  19  22
ENDBRANCH   1  19
TORSDOF 6
ENDMDL
MODEL 8
REMARK VINA RESULT:      -8.1      2.061      3.354
REMARK  Name = 
REMARK  6 active torsions:
REMARK  status: ('A' for Active; 'I' for Inactive)
REMARK    1  A    between atoms: C_2  and  C_10
REMARK    2  A    between atoms: N_3  and  C_4
REMARK    3  A    between atoms: C_4  and  C_5
REMARK    4  A    between atoms: C_13  and  N_14
REMARK    5  A    between atoms: N_14  and  S_15
REMARK    6  A    between atoms: S_15  and  C_18
REMARK                            x       y       z     vdW  Elec       q    Type
REMARK                         _______ _______ _______ _____ _____    ______ ____
ROOT
ATOM      1  N   UNL     1       3.058   5.859  20.210  0.00  0.00    +0.000 N 
ATOM      2  H   UNL     1       3.010   5.564  21.186  0.00  0.00    +0.000 HD
ENDROOT
BRANCH   1   6
ATOM      3  C   UNL     1       1.031   9.400  19.096  0.00  0.00    +0.000 A 
ATOM      4  C   UNL     1       0.842   8.854  20.375  0.00  0.00    +0.000 A 
ATOM      5  C   UNL     1       1.504   7.681  20.751  0.00  0.00    +0.000 A 
ATOM      6  C   UNL     1       2.378   7.055  19.863  0.00  0.00    +0.000 A 
ATOM      7  C   UNL     1       2.573   7.592  18.589  0.00  0.00    +0.000 A 
ATOM      8  C   UNL     1       1.912   8.760  18.205  0.00  0.00    +0.000 A 
BRANCH   3  10
ATOM      9  O   UNL     1      -0.729  10.649  18.154  0.00  0.00    +0.000 OA
ATOM     10  C   UNL     1       0.381  10.665  18.667  0.00  0.00    +0.000 C 
ATOM     11  N   UNL     1       1.106  11.814  18.883  0.00  0.00    +0.000 N 
ATOM     12  H   UNL     1       1.862  11.810  19.555  0.00  0.00    +0.000 HD
BRANCH  11  13
ATOM     13  C   UNL     1       0.614  13.129  18.499  0.00  0.00    +0.000 C 
BRANCH  13  14
ATOM     14  C   UNL     1       1.678  14.210  18.730  0.00  0.00    +0.000 C 
ATOM     15  C   UNL     1       3.081  13.816  18.286  0.00  0.00    +0.000 C 
ATOM     16  C   UNL     1       3.946  14.627  19.216  0.00  0.00    +0.000 C 
ATOM     17  C   UNL     1       3.152  14.599  20.503  0.00  0.00    +0.000 C 
ATOM     18  O   UNL     1       1.766  14.508  20.141  0.00  0.00    +0.000 OA
ENDBRANCH  13  14
ENDBRANCH  11  13
ENDBRANCH   3  10
ENDBRANCH   1   6
BRANCH   1  19
ATOM     19  S   UNL     1       2.897   4.521  19.192  0.00  0.00    +0.000 S 
ATOM     20  O   UNL     1       3.033   3.354  20.038  0.00  0.00    +0.000 OA
ATOM     21  O   UNL     1       1.723   4.697  18.362  0.00  0.00    +0.000 OA
BRANCH  19  22
ATOM     22  C   UNL     1       4.338   4.597  18.148  0.00  0.00    +0.000 A 
ATOM     23  C   UNL     1       5.566   4.996  18.738  0.00  0.00    +0.000 A 
ATOM     24  C   UNL     1       6.688   5.252  17.947  0.00  0.00    +0.000 A 
ATOM     25  C   UNL     1       6.539   5.073  16.594  0.00  0.00    +0.000 A 
ATOM     26  N   UNL     1       7.446   5.307  15.568  0.00  0.00    +0.000 N 
ATOM     27  C   UNL     1       6.872   4.900  14.356  0.00  0.00    +0.000 A 
ATOM     28  O   UNL     1       7.397   4.928  13.258  0.00  0.00    +0.000 OA
ATOM     29  N   UNL     1       5.571   4.461  14.656  0.00  0.00    +0.000 N 
ATOM     30  C   UNL     1       5.354   4.601  16.024  0.00  0.00    +0.000 A 
ATOM     31  C   UNL     1       4.218   4.382  16.768  0.00  0.00    +0.000 A 
ATOM     32  H   UNL     1       8.348   5.748  15.639  0.00  0.00    +0.000 HD
ATOM     33  H   UNL     1       4.930   4.113  13.962  0.00  0.00    +0.000 HD
ENDBRANCH  19  22
ENDBRANCH   1  19
TORSDOF 6
ENDMDL
MODEL 9
REMARK VINA RESULT:      -8.1      2.288      3.298
REMARK  Name = 
REMARK  6 active torsions:
REMARK  status: ('A' for Active; 'I' for Inactive)
REMARK    1  A    between atoms: C_2  and  C_10
REMARK    2  A    between atoms: N_3  and  C_4
REMARK    3  A    between atoms: C_4  and  C_5
REMARK    4  A    between atoms: C_13  and  N_14
REMARK    5  A    between atoms: N_14  and  S_15
REMARK    6  A    between atoms: S_15  and  C_18
REMARK                            x       y       z     vdW  Elec       q    Type
REMARK                         _______ _______ _______ _____ _____    ______ ____
ROOT
ATOM      1  N   UNL     1       2.787   5.743  20.316  0.00  0.00    +0.000 N 
ATOM      2  H   UNL     1       2.565   5.420  21.258  0.00  0.00    +0.000 HD
ENDROOT
BRANCH   1   6
ATOM      3  C   UNL     1       1.187   9.498  19.209  0.00  0.00    +0.000 A 
ATOM      4  C   UNL     1       1.978   8.774  18.302  0.00  0.00    +0.000 A 
ATOM      5  C   UNL     1       2.515   7.533  18.661  0.00  0.00    +0.000 A 
ATOM      6  C   UNL     1       2.250   6.994  19.918  0.00  0.00    +0.000 A 
ATOM      7  C   UNL     1       1.464   7.706  20.827  0.00  0.00    +0.000 A 
ATOM      8  C   UNL     1       0.928   8.947  20.478  0.00  0.00    +0.000 A 
BRANCH   3  10
ATOM      9  O   UNL     1      -0.632  10.864  18.600  0.00  0.00    +0.000 OA
ATOM     10  C   UNL     1       0.563  10.799  18.858  0.00  0.00    +0.000 C 
ATOM     11  N   UNL     1       1.407  11.885  18.843  0.00  0.00    +0.000 N 
ATOM     12  H   UNL     1       2.291  11.838  19.334  0.00  0.00    +0.000 HD
BRANCH  11  13
ATOM     13  C   UNL     1       0.949  13.222  18.498  0.00  0.00    +0.000 C 
BRANCH  13  14
ATOM     14  C   UNL     1       1.949  14.289  18.964  0.00  0.00    +0.000 C 
ATOM     15  C   UNL     1       1.862  15.607  18.205  0.00  0.00    +0.000 C 
ATOM     16  C   UNL     1       3.273  16.126  18.309  0.00  0.00    +0.000 C 
ATOM     17  C   UNL     1       4.091  14.857  18.219  0.00  0.00    +0.000 C 
ATOM     18  O   UNL     1       3.297  13.802  18.781  0.00  0.00    +0.000 OA
ENDBRANCH  13  14
ENDBRANCH  11  13
ENDBRANCH   3  10
ENDBRANCH   1   6
BRANCH   1  19
ATOM     19  S   UNL     1       2.706   4.452  19.229  0.00  0.00    +0.000 S 
ATOM     20  O   UNL     1       2.803   3.248  20.027  0.00  0.00    +0.000 OA
ATOM     21  O   UNL     1       1.583   4.657  18.336  0.00  0.00    +0.000 OA
BRANCH  19  22
ATOM     22  C   UNL     1       4.208   4.590  18.282  0.00  0.00    +0.000 A 
ATOM     23  C   UNL     1       5.386   4.998  18.960  0.00  0.00    +0.000 A 
ATOM     24  C   UNL     1       6.550   5.300  18.251  0.00  0.00    +0.000 A 
ATOM     25  C   UNL     1       6.491   5.160  16.886  0.00  0.00    +0.000 A 
ATOM     26  N   UNL     1       7.456   5.443  15.927  0.00  0.00    +0.000 N 
ATOM     27  C   UNL     1       6.969   5.061  14.670  0.00  0.00    +0.000 A 
ATOM     28  O   UNL     1       7.561   5.133  13.610  0.00  0.00    +0.000 OA
ATOM     29  N   UNL     1       5.663   4.586  14.874  0.00  0.00    +0.000 N 
ATOM     30  C   UNL     1       5.356   4.680  16.228  0.00  0.00    +0.000 A 
ATOM     31  C   UNL     1       4.180   4.414  16.892  0.00  0.00    +0.000 A 
ATOM     32  H   UNL     1       8.341   5.901  16.069  0.00  0.00    +0.000 HD
ATOM     33  H   UNL     1       5.075   4.246  14.131  0.00  0.00    +0.000 HD
ENDBRANCH  19  22
ENDBRANCH   1  19
TORSDOF 6
ENDMDL
