MODEL 1
REMARK VINA RESULT:      -8.7      0.000      0.000
REMARK  Name = 
REMARK  5 active torsions:
REMARK  status: ('A' for Active; 'I' for Inactive)
REMARK    1  A    between atoms: N_3  and  C_4
REMARK    2  A    between atoms: C_4  and  C_5
REMARK    3  A    between atoms: C_5  and  C_6
REMARK    4  A    between atoms: N_15  and  C_16
REMARK    5  A    between atoms: C_18  and  C_19
REMARK                            x       y       z     vdW  Elec       q    Type
REMARK                         _______ _______ _______ _____ _____    ______ ____
ROOT
ATOM      1  O   UNL     1       8.269   7.181  18.761  0.00  0.00    +0.000 OA
ATOM      2  C   UNL     1       7.791   8.007  17.993  0.00  0.00    +0.000 C 
ATOM      3  N   UNL     1       8.203   9.319  17.991  0.00  0.00    +0.000 N 
ATOM      4  N   UNL     1       6.779   7.770  17.095  0.00  0.00    +0.000 N 
ATOM      5  H   UNL     1       8.157   9.808  17.108  0.00  0.00    +0.000 HD
ATOM      6  H   UNL     1       6.407   8.567  16.589  0.00  0.00    +0.000 HD
ENDROOT
BRANCH   4   7
ATOM      7  C   UNL     1       6.065   6.599  16.929  0.00  0.00    +0.000 A 
ATOM      8  C   UNL     1       4.906   6.290  17.530  0.00  0.00    +0.000 A 
ATOM      9  C   UNL     1       4.177   5.062  17.248  0.00  0.00    +0.000 A 
ATOM     10  C   UNL     1       4.700   4.195  16.364  0.00  0.00    +0.000 A 
ATOM     11  N   UNL     1       5.897   4.456  15.747  0.00  0.00    +0.000 N 
ATOM     12  C   UNL     1       6.640   5.596  15.957  0.00  0.00    +0.000 A 
ATOM     13  O   UNL     1       7.711   5.801  15.389  0.00  0.00    +0.000 OA
ATOM     14  H   UNL     1       6.283   3.793  15.084  0.00  0.00    +0.000 HD
BRANCH   9  15
ATOM     15  C   UNL     1       2.859   4.824  17.933  0.00  0.00    +0.000 C 
ATOM     16  F   UNL     1       2.022   5.891  17.884  0.00  0.00    +0.000 F 
ATOM     17  F   UNL     1       2.193   3.780  17.375  0.00  0.00    +0.000 F 
ATOM     18  F   UNL     1       3.028   4.521  19.245  0.00  0.00    +0.000 F 
ENDBRANCH   9  15
ENDBRANCH   4   7
BRANCH   3  19
ATOM     19  C   UNL     1       9.212   9.725  18.954  0.00  0.00    +0.000 C 
BRANCH  19  20
ATOM     20  C   UNL     1       9.437  11.240  18.889  0.00  0.00    +0.000 C 
ATOM     21  C   UNL     1       8.711  11.971  17.698  0.00  0.00    +0.000 C 
ATOM     22  C   UNL     1      10.017  12.750  17.457  0.00  0.00    +0.000 C 
ATOM     23  C   UNL     1      10.762  11.566  18.093  0.00  0.00    +0.000 C 
BRANCH  20  24
ATOM     24  C   UNL     1       9.292  11.917  20.354  0.00  0.00    +0.000 A 
ATOM     25  C   UNL     1       9.712  13.238  20.617  0.00  0.00    +0.000 A 
ATOM     26  C   UNL     1       9.541  13.838  21.868  0.00  0.00    +0.000 A 
ATOM     27  C   UNL     1       8.961  13.124  22.909  0.00  0.00    +0.000 A 
ATOM     28  C   UNL     1       8.563  11.809  22.702  0.00  0.00    +0.000 A 
ATOM     29  C   UNL     1       8.729  11.222  21.444  0.00  0.00    +0.000 A 
ENDBRANCH  20  24
ENDBRANCH  19  20
ENDBRANCH   3  19
TORSDOF 5
ENDMDL
MODEL 2
REMARK VINA RESULT:      -8.6      6.166      7.382
REMARK  Name = 
REMARK  5 active torsions:
REMARK  status: ('A' for Active; 'I' for Inactive)
REMARK    1  A    between atoms: N_3  and  C_4
REMARK    2  A    between atoms: C_4  and  C_5
REMARK    3  A    between atoms: C_5  and  C_6
REMARK    4  A    between atoms: N_15  and  C_16
REMARK    5  A    between atoms: C_18  and  C_19
REMARK                            x       y       z     vdW  Elec       q    Type
REMARK                         _______ _______ _______ _____ _____    ______ ____
ROOT
ATOM      1  O   UNL     1       4.868   5.993  17.464  0.00  0.00    +0.000 OA
ATOM      2  C   UNL     1       4.942   4.798  17.723  0.00  0.00    +0.000 C 
ATOM      3  N   UNL     1       4.581   4.298  18.952  0.00  0.00    +0.000 N 
ATOM      4  N   UNL     1       5.427   3.827  16.880  0.00  0.00    +0.000 N 
ATOM      5  H   UNL     1       4.219   3.355  18.970  0.00  0.00    +0.000 HD
ATOM      6  H   UNL     1       5.529   2.890  17.256  0.00  0.00    +0.000 HD
ENDROOT
BRANCH   4   7
ATOM      7  C   UNL     1       5.980   4.007  15.626  0.00  0.00    +0.000 A 
ATOM      8  C   UNL     1       5.492   3.525  14.473  0.00  0.00    +0.000 A 
ATOM      9  C   UNL     1       6.094   3.819  13.181  0.00  0.00    +0.000 A 
ATOM     10  C   UNL     1       7.196   4.587  13.147  0.00  0.00    +0.000 A 
ATOM     11  N   UNL     1       7.747   5.077  14.304  0.00  0.00    +0.000 N 
ATOM     12  C   UNL     1       7.232   4.849  15.560  0.00  0.00    +0.000 A 
ATOM     13  O   UNL     1       7.749   5.301  16.579  0.00  0.00    +0.000 OA
ATOM     14  H   UNL     1       8.580   5.654  14.267  0.00  0.00    +0.000 HD
BRANCH   9  15
ATOM     15  C   UNL     1       5.447   3.276  11.936  0.00  0.00    +0.000 C 
ATOM     16  F   UNL     1       4.099   3.432  11.913  0.00  0.00    +0.000 F 
ATOM     17  F   UNL     1       5.929   3.886  10.822  0.00  0.00    +0.000 F 
ATOM     18  F   UNL     1       5.689   1.948  11.789  0.00  0.00    +0.000 F 
ENDBRANCH   9  15
ENDBRANCH   4   7
BRANCH   3  19
ATOM     19  C   UNL     1       4.131   5.231  19.969  0.00  0.00    +0.000 C 
BRANCH  19  20
ATOM     20  C   UNL     1       2.601   5.308  19.987  0.00  0.00    +0.000 C 
ATOM     21  C   UNL     1       1.905   4.479  21.130  0.00  0.00    +0.000 C 
ATOM     22  C   UNL     1       0.894   3.986  20.077  0.00  0.00    +0.000 C 
ATOM     23  C   UNL     1       1.984   4.224  19.019  0.00  0.00    +0.000 C 
BRANCH  20  24
ATOM     24  C   UNL     1       2.088   6.832  19.780  0.00  0.00    +0.000 A 
ATOM     25  C   UNL     1       2.219   7.509  18.550  0.00  0.00    +0.000 A 
ATOM     26  C   UNL     1       1.731   8.805  18.358  0.00  0.00    +0.000 A 
ATOM     27  C   UNL     1       1.113   9.479  19.405  0.00  0.00    +0.000 A 
ATOM     28  C   UNL     1       0.994   8.860  20.643  0.00  0.00    +0.000 A 
ATOM     29  C   UNL     1       1.475   7.560  20.821  0.00  0.00    +0.000 A 
ENDBRANCH  20  24
ENDBRANCH  19  20
ENDBRANCH   3  19
TORSDOF 5
ENDMDL
MODEL 3
REMARK VINA RESULT:      -8.6      0.133      1.209
REMARK  Name = 
REMARK  5 active torsions:
REMARK  status: ('A' for Active; 'I' for Inactive)
REMARK    1  A    between atoms: N_3  and  C_4
REMARK    2  A    between atoms: C_4  and  C_5
REMARK    3  A    between atoms: C_5  and  C_6
REMARK    4  A    between atoms: N_15  and  C_16
REMARK    5  A    between atoms: C_18  and  C_19
REMARK                            x       y       z     vdW  Elec       q    Type
REMARK                         _______ _______ _______ _____ _____    ______ ____
ROOT
ATOM      1  O   UNL     1       8.287   7.217  18.735  0.00  0.00    +0.000 OA
ATOM      2  C   UNL     1       7.785   8.053  17.994  0.00  0.00    +0.000 C 
ATOM      3  N   UNL     1       8.196   9.365  17.997  0.00  0.00    +0.000 N 
ATOM      4  N   UNL     1       6.745   7.828  17.124  0.00  0.00    +0.000 N 
ATOM      5  H   UNL     1       8.122   9.867  17.124  0.00  0.00    +0.000 HD
ATOM      6  H   UNL     1       6.356   8.632  16.643  0.00  0.00    +0.000 HD
ENDROOT
BRANCH   4   7
ATOM      7  C   UNL     1       6.027   6.659  16.963  0.00  0.00    +0.000 A 
ATOM      8  C   UNL     1       4.852   6.368  17.544  0.00  0.00    +0.000 A 
ATOM      9  C   UNL     1       4.121   5.140  17.267  0.00  0.00    +0.000 A 
ATOM     10  C   UNL     1       4.658   4.253  16.412  0.00  0.00    +0.000 A 
ATOM     11  N   UNL     1       5.872   4.494  15.819  0.00  0.00    +0.000 N 
ATOM     12  C   UNL     1       6.617   5.634  16.024  0.00  0.00    +0.000 A 
ATOM     13  O   UNL     1       7.702   5.821  15.478  0.00  0.00    +0.000 OA
ATOM     14  H   UNL     1       6.268   3.817  15.177  0.00  0.00    +0.000 HD
BRANCH   9  15
ATOM     15  C   UNL     1       2.787   4.924  17.926  0.00  0.00    +0.000 C 
ATOM     16  F   UNL     1       2.878   4.536  19.223  0.00  0.00    +0.000 F 
ATOM     17  F   UNL     1       2.038   6.057  17.910  0.00  0.00    +0.000 F 
ATOM     18  F   UNL     1       2.063   3.971  17.283  0.00  0.00    +0.000 F 
ENDBRANCH   9  15
ENDBRANCH   4   7
BRANCH   3  19
ATOM     19  C   UNL     1       9.233   9.759  18.935  0.00  0.00    +0.000 C 
BRANCH  19  20
ATOM     20  C   UNL     1       9.473  11.271  18.866  0.00  0.00    +0.000 C 
ATOM     21  C   UNL     1       8.831  11.992  17.622  0.00  0.00    +0.000 C 
ATOM     22  C   UNL     1      10.156  12.760  17.457  0.00  0.00    +0.000 C 
ATOM     23  C   UNL     1      10.849  11.578  18.154  0.00  0.00    +0.000 C 
BRANCH  20  24
ATOM     24  C   UNL     1       9.239  11.967  20.311  0.00  0.00    +0.000 A 
ATOM     25  C   UNL     1       8.820  11.234  21.440  0.00  0.00    +0.000 A 
ATOM     26  C   UNL     1       8.667  11.827  22.697  0.00  0.00    +0.000 A 
ATOM     27  C   UNL     1       8.909  13.185  22.861  0.00  0.00    +0.000 A 
ATOM     28  C   UNL     1       9.292  13.951  21.766  0.00  0.00    +0.000 A 
ATOM     29  C   UNL     1       9.452  13.347  20.516  0.00  0.00    +0.000 A 
ENDBRANCH  20  24
ENDBRANCH  19  20
ENDBRANCH   3  19
TORSDOF 5
ENDMDL
MODEL 4
REMARK VINA RESULT:      -8.5      6.151      7.317
REMARK  Name = 
REMARK  5 active torsions:
REMARK  status: ('A' for Active; 'I' for Inactive)
REMARK    1  A    between atoms: N_3  and  C_4
REMARK    2  A    between atoms: C_4  and  C_5
REMARK    3  A    between atoms: C_5  and  C_6
REMARK    4  A    between atoms: N_15  and  C_16
REMARK    5  A    between atoms: C_18  and  C_19
REMARK                            x       y       z     vdW  Elec       q    Type
REMARK                         _______ _______ _______ _____ _____    ______ ____
ROOT
ATOM      1  O   UNL     1       4.719   6.220  16.862  0.00  0.00    +0.000 OA
ATOM      2  C   UNL     1       4.901   5.067  17.233  0.00  0.00    +0.000 C 
ATOM      3  N   UNL     1       4.699   4.684  18.538  0.00  0.00    +0.000 N 
ATOM      4  N   UNL     1       5.368   4.039  16.449  0.00  0.00    +0.000 N 
ATOM      5  H   UNL     1       4.406   3.729  18.691  0.00  0.00    +0.000 HD
ATOM      6  H   UNL     1       5.571   3.157  16.905  0.00  0.00    +0.000 HD
ENDROOT
BRANCH   4   7
ATOM      7  C   UNL     1       5.780   4.113  15.132  0.00  0.00    +0.000 A 
ATOM      8  C   UNL     1       5.155   3.566  14.078  0.00  0.00    +0.000 A 
ATOM      9  C   UNL     1       5.615   3.749  12.709  0.00  0.00    +0.000 A 
ATOM     10  C   UNL     1       6.724   4.478  12.498  0.00  0.00    +0.000 A 
ATOM     11  N   UNL     1       7.412   5.032  13.547  0.00  0.00    +0.000 N 
ATOM     12  C   UNL     1       7.036   4.909  14.866  0.00  0.00    +0.000 A 
ATOM     13  O   UNL     1       7.675   5.416  15.786  0.00  0.00    +0.000 OA
ATOM     14  H   UNL     1       8.249   5.579  13.376  0.00  0.00    +0.000 HD
BRANCH   9  15
ATOM     15  C   UNL     1       4.821   3.140  11.587  0.00  0.00    +0.000 C 
ATOM     16  F   UNL     1       3.537   2.856  11.922  0.00  0.00    +0.000 F 
ATOM     17  F   UNL     1       4.768   3.968  10.511  0.00  0.00    +0.000 F 
ATOM     18  F   UNL     1       5.377   1.979  11.156  0.00  0.00    +0.000 F 
ENDBRANCH   9  15
ENDBRANCH   4   7
BRANCH   3  19
ATOM     19  C   UNL     1       4.287   5.695  19.496  0.00  0.00    +0.000 C 
BRANCH  19  20
ATOM     20  C   UNL     1       2.765   5.673  19.678  0.00  0.00    +0.000 C 
ATOM     21  C   UNL     1       2.256   4.857  20.925  0.00  0.00    +0.000 C 
ATOM     22  C   UNL     1       1.176   4.248  20.012  0.00  0.00    +0.000 C 
ATOM     23  C   UNL     1       2.126   4.503  18.831  0.00  0.00    +0.000 C 
BRANCH  20  24
ATOM     24  C   UNL     1       2.128   7.148  19.465  0.00  0.00    +0.000 A 
ATOM     25  C   UNL     1       1.534   7.871  20.520  0.00  0.00    +0.000 A 
ATOM     26  C   UNL     1       1.030   9.163  20.345  0.00  0.00    +0.000 A 
ATOM     27  C   UNL     1       1.083   9.769  19.096  0.00  0.00    +0.000 A 
ATOM     28  C   UNL     1       1.630   9.077  18.022  0.00  0.00    +0.000 A 
ATOM     29  C   UNL     1       2.141   7.790  18.209  0.00  0.00    +0.000 A 
ENDBRANCH  20  24
ENDBRANCH  19  20
ENDBRANCH   3  19
TORSDOF 5
ENDMDL
MODEL 5
REMARK VINA RESULT:      -8.5      6.117      7.478
REMARK  Name = 
REMARK  5 active torsions:
REMARK  status: ('A' for Active; 'I' for Inactive)
REMARK    1  A    between atoms: N_3  and  C_4
REMARK    2  A    between atoms: C_4  and  C_5
REMARK    3  A    between atoms: C_5  and  C_6
REMARK    4  A    between atoms: N_15  and  C_16
REMARK    5  A    between atoms: C_18  and  C_19
REMARK                            x       y       z     vdW  Elec       q    Type
REMARK                         _______ _______ _______ _____ _____    ______ ____
ROOT
ATOM      1  O   UNL     1       4.871   5.854  17.665  0.00  0.00    +0.000 OA
ATOM      2  C   UNL     1       4.961   4.649  17.861  0.00  0.00    +0.000 C 
ATOM      3  N   UNL     1       4.581   4.076  19.052  0.00  0.00    +0.000 N 
ATOM      4  N   UNL     1       5.483   3.733  16.980  0.00  0.00    +0.000 N 
ATOM      5  H   UNL     1       4.235   3.128  19.011  0.00  0.00    +0.000 HD
ATOM      6  H   UNL     1       5.594   2.779  17.307  0.00  0.00    +0.000 HD
ENDROOT
BRANCH   4   7
ATOM      7  C   UNL     1       6.062   3.990  15.751  0.00  0.00    +0.000 A 
ATOM      8  C   UNL     1       5.625   3.540  14.565  0.00  0.00    +0.000 A 
ATOM      9  C   UNL     1       6.249   3.914  13.304  0.00  0.00    +0.000 A 
ATOM     10  C   UNL     1       7.320   4.727  13.335  0.00  0.00    +0.000 A 
ATOM     11  N   UNL     1       7.819   5.187  14.527  0.00  0.00    +0.000 N 
ATOM     12  C   UNL     1       7.279   4.884  15.757  0.00  0.00    +0.000 A 
ATOM     13  O   UNL     1       7.750   5.311  16.809  0.00  0.00    +0.000 OA
ATOM     14  H   UNL     1       8.628   5.798  14.538  0.00  0.00    +0.000 HD
BRANCH   9  15
ATOM     15  C   UNL     1       5.659   3.401  12.019  0.00  0.00    +0.000 C 
ATOM     16  F   UNL     1       6.144   4.021  10.914  0.00  0.00    +0.000 F 
ATOM     17  F   UNL     1       5.900   2.074  11.860  0.00  0.00    +0.000 F 
ATOM     18  F   UNL     1       4.311   3.558  11.994  0.00  0.00    +0.000 F 
ENDBRANCH   9  15
ENDBRANCH   4   7
BRANCH   3  19
ATOM     19  C   UNL     1       4.090   4.946  20.107  0.00  0.00    +0.000 C 
BRANCH  19  20
ATOM     20  C   UNL     1       2.562   5.049  20.050  0.00  0.00    +0.000 C 
ATOM     21  C   UNL     1       1.797   4.243  21.166  0.00  0.00    +0.000 C 
ATOM     22  C   UNL     1       0.830   3.756  20.070  0.00  0.00    +0.000 C 
ATOM     23  C   UNL     1       1.974   3.964  19.064  0.00  0.00    +0.000 C 
BRANCH  20  24
ATOM     24  C   UNL     1       2.086   6.578  19.803  0.00  0.00    +0.000 A 
ATOM     25  C   UNL     1       1.490   7.354  20.819  0.00  0.00    +0.000 A 
ATOM     26  C   UNL     1       1.125   8.689  20.619  0.00  0.00    +0.000 A 
ATOM     27  C   UNL     1       1.328   9.288  19.381  0.00  0.00    +0.000 A 
ATOM     28  C   UNL     1       1.882   8.549  18.344  0.00  0.00    +0.000 A 
ATOM     29  C   UNL     1       2.252   7.218  18.557  0.00  0.00    +0.000 A 
ENDBRANCH  20  24
ENDBRANCH  19  20
ENDBRANCH   3  19
TORSDOF 5
ENDMDL
MODEL 6
REMARK VINA RESULT:      -8.5      6.134      8.166
REMARK  Name = 
REMARK  5 active torsions:
REMARK  status: ('A' for Active; 'I' for Inactive)
REMARK    1  A    between atoms: N_3  and  C_4
REMARK    2  A    between atoms: C_4  and  C_5
REMARK    3  A    between atoms: C_5  and  C_6
REMARK    4  A    between atoms: N_15  and  C_16
REMARK    5  A    between atoms: C_18  and  C_19
REMARK                            x       y       z     vdW  Elec       q    Type
REMARK                         _______ _______ _______ _____ _____    ______ ____
ROOT
ATOM      1  O   UNL     1       3.207   3.939  16.235  0.00  0.00    +0.000 OA
ATOM      2  C   UNL     1       4.017   3.418  16.993  0.00  0.00    +0.000 C 
ATOM      3  N   UNL     1       3.638   2.881  18.201  0.00  0.00    +0.000 N 
ATOM      4  N   UNL     1       5.373   3.345  16.785  0.00  0.00    +0.000 N 
ATOM      5  H   UNL     1       4.182   2.101  18.542  0.00  0.00    +0.000 HD
ATOM      6  H   UNL     1       5.942   2.978  17.540  0.00  0.00    +0.000 HD
ENDROOT
BRANCH   4   7
ATOM      7  C   UNL     1       6.089   3.890  15.736  0.00  0.00    +0.000 A 
ATOM      8  C   UNL     1       6.028   3.501  14.454  0.00  0.00    +0.000 A 
ATOM      9  C   UNL     1       6.763   4.174  13.392  0.00  0.00    +0.000 A 
ATOM     10  C   UNL     1       7.550   5.214  13.718  0.00  0.00    +0.000 A 
ATOM     11  N   UNL     1       7.666   5.627  15.021  0.00  0.00    +0.000 N 
ATOM     12  C   UNL     1       6.998   5.047  16.076  0.00  0.00    +0.000 A 
ATOM     13  O   UNL     1       7.123   5.440  17.234  0.00  0.00    +0.000 OA
ATOM     14  H   UNL     1       8.264   6.412  15.254  0.00  0.00    +0.000 HD
BRANCH   9  15
ATOM     15  C   UNL     1       6.593   3.699  11.976  0.00  0.00    +0.000 C 
ATOM     16  F   UNL     1       7.171   2.496  11.734  0.00  0.00    +0.000 F 
ATOM     17  F   UNL     1       5.280   3.574  11.650  0.00  0.00    +0.000 F 
ATOM     18  F   UNL     1       7.132   4.575  11.089  0.00  0.00    +0.000 F 
ENDBRANCH   9  15
ENDBRANCH   4   7
BRANCH   3  19
ATOM     19  C   UNL     1       2.240   2.970  18.586  0.00  0.00    +0.000 C 
BRANCH  19  20
ATOM     20  C   UNL     1       2.106   3.587  19.982  0.00  0.00    +0.000 C 
ATOM     21  C   UNL     1       3.045   2.961  21.081  0.00  0.00    +0.000 C 
ATOM     22  C   UNL     1       1.834   2.960  22.032  0.00  0.00    +0.000 C 
ATOM     23  C   UNL     1       0.940   2.886  20.784  0.00  0.00    +0.000 C 
BRANCH  20  24
ATOM     24  C   UNL     1       2.055   5.205  19.906  0.00  0.00    +0.000 A 
ATOM     25  C   UNL     1       2.562   5.922  18.802  0.00  0.00    +0.000 A 
ATOM     26  C   UNL     1       2.473   7.314  18.715  0.00  0.00    +0.000 A 
ATOM     27  C   UNL     1       1.888   8.041  19.745  0.00  0.00    +0.000 A 
ATOM     28  C   UNL     1       1.406   7.375  20.866  0.00  0.00    +0.000 A 
ATOM     29  C   UNL     1       1.491   5.982  20.939  0.00  0.00    +0.000 A 
ENDBRANCH  20  24
ENDBRANCH  19  20
ENDBRANCH   3  19
TORSDOF 5
ENDMDL
MODEL 7
REMARK VINA RESULT:      -8.5      6.197      7.321
REMARK  Name = 
REMARK  5 active torsions:
REMARK  status: ('A' for Active; 'I' for Inactive)
REMARK    1  A    between atoms: N_3  and  C_4
REMARK    2  A    between atoms: C_4  and  C_5
REMARK    3  A    between atoms: C_5  and  C_6
REMARK    4  A    between atoms: N_15  and  C_16
REMARK    5  A    between atoms: C_18  and  C_19
REMARK                            x       y       z     vdW  Elec       q    Type
REMARK                         _______ _______ _______ _____ _____    ______ ____
ROOT
ATOM      1  O   UNL     1       4.724   6.173  16.740  0.00  0.00    +0.000 OA
ATOM      2  C   UNL     1       4.863   5.018  17.124  0.00  0.00    +0.000 C 
ATOM      3  N   UNL     1       4.657   4.660  18.436  0.00  0.00    +0.000 N 
ATOM      4  N   UNL     1       5.280   3.963  16.350  0.00  0.00    +0.000 N 
ATOM      5  H   UNL     1       4.327   3.720  18.605  0.00  0.00    +0.000 HD
ATOM      6  H   UNL     1       5.451   3.079  16.817  0.00  0.00    +0.000 HD
ENDROOT
BRANCH   4   7
ATOM      7  C   UNL     1       5.683   4.003  15.029  0.00  0.00    +0.000 A 
ATOM      8  C   UNL     1       4.992   3.533  13.979  0.00  0.00    +0.000 A 
ATOM      9  C   UNL     1       5.454   3.677  12.606  0.00  0.00    +0.000 A 
ATOM     10  C   UNL     1       6.631   4.287  12.386  0.00  0.00    +0.000 A 
ATOM     11  N   UNL     1       7.386   4.757  13.431  0.00  0.00    +0.000 N 
ATOM     12  C   UNL     1       7.013   4.665  14.753  0.00  0.00    +0.000 A 
ATOM     13  O   UNL     1       7.711   5.095  15.669  0.00  0.00    +0.000 OA
ATOM     14  H   UNL     1       8.273   5.214  13.254  0.00  0.00    +0.000 HD
BRANCH   9  15
ATOM     15  C   UNL     1       4.588   3.163  11.489  0.00  0.00    +0.000 C 
ATOM     16  F   UNL     1       5.010   1.981  10.974  0.00  0.00    +0.000 F 
ATOM     17  F   UNL     1       3.308   2.974  11.903  0.00  0.00    +0.000 F 
ATOM     18  F   UNL     1       4.535   4.042  10.455  0.00  0.00    +0.000 F 
ENDBRANCH   9  15
ENDBRANCH   4   7
BRANCH   3  19
ATOM     19  C   UNL     1       4.294   5.700  19.384  0.00  0.00    +0.000 C 
BRANCH  19  20
ATOM     20  C   UNL     1       2.782   5.699  19.630  0.00  0.00    +0.000 C 
ATOM     21  C   UNL     1       2.313   4.896  20.900  0.00  0.00    +0.000 C 
ATOM     22  C   UNL     1       1.188   4.297  20.035  0.00  0.00    +0.000 C 
ATOM     23  C   UNL     1       2.093   4.534  18.815  0.00  0.00    +0.000 C 
BRANCH  20  24
ATOM     24  C   UNL     1       2.155   7.181  19.435  0.00  0.00    +0.000 A 
ATOM     25  C   UNL     1       2.152   7.838  18.186  0.00  0.00    +0.000 A 
ATOM     26  C   UNL     1       1.567   9.095  18.009  0.00  0.00    +0.000 A 
ATOM     27  C   UNL     1       0.982   9.750  19.086  0.00  0.00    +0.000 A 
ATOM     28  C   UNL     1       0.993   9.151  20.341  0.00  0.00    +0.000 A 
ATOM     29  C   UNL     1       1.571   7.890  20.505  0.00  0.00    +0.000 A 
ENDBRANCH  20  24
ENDBRANCH  19  20
ENDBRANCH   3  19
TORSDOF 5
ENDMDL
MODEL 8
REMARK VINA RESULT:      -8.5      2.670      3.817
REMARK  Name = 
REMARK  5 active torsions:
REMARK  status: ('A' for Active; 'I' for Inactive)
REMARK    1  A    between atoms: N_3  and  C_4
REMARK    2  A    between atoms: C_4  and  C_5
REMARK    3  A    between atoms: C_5  and  C_6
REMARK    4  A    between atoms: N_15  and  C_16
REMARK    5  A    between atoms: C_18  and  C_19
REMARK                            x       y       z     vdW  Elec       q    Type
REMARK                         _______ _______ _______ _____ _____    ______ ____
ROOT
ATOM      1  O   UNL     1       7.323   9.444  17.421  0.00  0.00    +0.000 OA
ATOM      2  C   UNL     1       8.206   9.064  18.180  0.00  0.00    +0.000 C 
ATOM      3  N   UNL     1       9.139   9.930  18.701  0.00  0.00    +0.000 N 
ATOM      4  N   UNL     1       8.422   7.763  18.566  0.00  0.00    +0.000 N 
ATOM      5  H   UNL     1       9.508   9.706  19.614  0.00  0.00    +0.000 HD
ATOM      6  H   UNL     1       9.251   7.570  19.118  0.00  0.00    +0.000 HD
ENDROOT
BRANCH   4   7
ATOM      7  C   UNL     1       7.746   6.639  18.132  0.00  0.00    +0.000 A 
ATOM      8  C   UNL     1       7.321   6.408  16.881  0.00  0.00    +0.000 A 
ATOM      9  C   UNL     1       6.676   5.164  16.486  0.00  0.00    +0.000 A 
ATOM     10  C   UNL     1       6.481   4.219  17.421  0.00  0.00    +0.000 A 
ATOM     11  N   UNL     1       6.872   4.423  18.720  0.00  0.00    +0.000 N 
ATOM     12  C   UNL     1       7.493   5.568  19.167  0.00  0.00    +0.000 A 
ATOM     13  O   UNL     1       7.831   5.723  20.339  0.00  0.00    +0.000 OA
ATOM     14  H   UNL     1       6.717   3.704  19.418  0.00  0.00    +0.000 HD
BRANCH   9  15
ATOM     15  C   UNL     1       6.280   4.974  15.048  0.00  0.00    +0.000 C 
ATOM     16  F   UNL     1       7.278   5.244  14.170  0.00  0.00    +0.000 F 
ATOM     17  F   UNL     1       5.884   3.697  14.808  0.00  0.00    +0.000 F 
ATOM     18  F   UNL     1       5.236   5.774  14.710  0.00  0.00    +0.000 F 
ENDBRANCH   9  15
ENDBRANCH   4   7
BRANCH   3  19
ATOM     19  C   UNL     1       9.078  11.326  18.304  0.00  0.00    +0.000 C 
BRANCH  19  20
ATOM     20  C   UNL     1      10.350  12.063  18.736  0.00  0.00    +0.000 C 
ATOM     21  C   UNL     1      11.693  11.281  18.483  0.00  0.00    +0.000 C 
ATOM     22  C   UNL     1      12.138  11.705  19.896  0.00  0.00    +0.000 C 
ATOM     23  C   UNL     1      10.648  11.796  20.264  0.00  0.00    +0.000 C 
BRANCH  20  24
ATOM     24  C   UNL     1      10.314  13.616  18.272  0.00  0.00    +0.000 A 
ATOM     25  C   UNL     1       9.522  14.580  18.929  0.00  0.00    +0.000 A 
ATOM     26  C   UNL     1       9.531  15.928  18.559  0.00  0.00    +0.000 A 
ATOM     27  C   UNL     1      10.321  16.354  17.498  0.00  0.00    +0.000 A 
ATOM     28  C   UNL     1      11.091  15.430  16.802  0.00  0.00    +0.000 A 
ATOM     29  C   UNL     1      11.084  14.087  17.187  0.00  0.00    +0.000 A 
ENDBRANCH  20  24
ENDBRANCH  19  20
ENDBRANCH   3  19
TORSDOF 5
ENDMDL
MODEL 9
REMARK VINA RESULT:      -8.5      6.141      8.185
REMARK  Name = 
REMARK  5 active torsions:
REMARK  status: ('A' for Active; 'I' for Inactive)
REMARK    1  A    between atoms: N_3  and  C_4
REMARK    2  A    between atoms: C_4  and  C_5
REMARK    3  A    between atoms: C_5  and  C_6
REMARK    4  A    between atoms: N_15  and  C_16
REMARK    5  A    between atoms: C_18  and  C_19
REMARK                            x       y       z     vdW  Elec       q    Type
REMARK                         _______ _______ _______ _____ _____    ______ ____
ROOT
ATOM      1  O   UNL     1       3.191   3.964  16.264  0.00  0.00    +0.000 OA
ATOM      2  C   UNL     1       3.993   3.401  17.000  0.00  0.00    +0.000 C 
ATOM      3  N   UNL     1       3.609   2.839  18.195  0.00  0.00    +0.000 N 
ATOM      4  N   UNL     1       5.345   3.299  16.779  0.00  0.00    +0.000 N 
ATOM      5  H   UNL     1       4.135   2.035  18.508  0.00  0.00    +0.000 HD
ATOM      6  H   UNL     1       5.910   2.896  17.518  0.00  0.00    +0.000 HD
ENDROOT
BRANCH   4   7
ATOM      7  C   UNL     1       6.067   3.856  15.741  0.00  0.00    +0.000 A 
ATOM      8  C   UNL     1       6.008   3.488  14.452  0.00  0.00    +0.000 A 
ATOM      9  C   UNL     1       6.750   4.174  13.404  0.00  0.00    +0.000 A 
ATOM     10  C   UNL     1       7.542   5.203  13.748  0.00  0.00    +0.000 A 
ATOM     11  N   UNL     1       7.657   5.595  15.058  0.00  0.00    +0.000 N 
ATOM     12  C   UNL     1       6.983   5.002  16.101  0.00  0.00    +0.000 A 
ATOM     13  O   UNL     1       7.107   5.376  17.266  0.00  0.00    +0.000 OA
ATOM     14  H   UNL     1       8.260   6.372  15.305  0.00  0.00    +0.000 HD
BRANCH   9  15
ATOM     15  C   UNL     1       6.581   3.722  11.979  0.00  0.00    +0.000 C 
ATOM     16  F   UNL     1       5.284   3.588  11.602  0.00  0.00    +0.000 F 
ATOM     17  F   UNL     1       7.151   4.599  11.112  0.00  0.00    +0.000 F 
ATOM     18  F   UNL     1       7.176   2.521  11.764  0.00  0.00    +0.000 F 
ENDBRANCH   9  15
ENDBRANCH   4   7
BRANCH   3  19
ATOM     19  C   UNL     1       2.217   2.952  18.593  0.00  0.00    +0.000 C 
BRANCH  19  20
ATOM     20  C   UNL     1       2.106   3.578  19.987  0.00  0.00    +0.000 C 
ATOM     21  C   UNL     1       3.091   2.986  21.064  0.00  0.00    +0.000 C 
ATOM     22  C   UNL     1       1.907   2.964  22.049  0.00  0.00    +0.000 C 
ATOM     23  C   UNL     1       0.980   2.857  20.827  0.00  0.00    +0.000 C 
BRANCH  20  24
ATOM     24  C   UNL     1       2.013   5.194  19.898  0.00  0.00    +0.000 A 
ATOM     25  C   UNL     1       1.442   5.972  20.925  0.00  0.00    +0.000 A 
ATOM     26  C   UNL     1       1.407   7.369  20.870  0.00  0.00    +0.000 A 
ATOM     27  C   UNL     1       1.927   8.035  19.767  0.00  0.00    +0.000 A 
ATOM     28  C   UNL     1       2.470   7.304  18.717  0.00  0.00    +0.000 A 
ATOM     29  C   UNL     1       2.509   5.908  18.787  0.00  0.00    +0.000 A 
ENDBRANCH  20  24
ENDBRANCH  19  20
ENDBRANCH   3  19
TORSDOF 5
ENDMDL
