MODEL 1
REMARK VINA RESULT:      -7.4      0.000      0.000
REMARK  Name = 
REMARK  5 active torsions:
REMARK  status: ('A' for Active; 'I' for Inactive)
REMARK    1  A    between atoms: C_1  and  C_2
REMARK    2  A    between atoms: N_5  and  C_6
REMARK    3  A    between atoms: C_16  and  N_17
REMARK    4  A    between atoms: C_18  and  C_20
REMARK    5  A    between atoms: C_20  and  C_21
REMARK                            x       y       z     vdW  Elec       q    Type
REMARK                         _______ _______ _______ _____ _____    ______ ____
ROOT
ATOM      1  C   UNL     1       1.597   4.078  20.513  0.00  0.00    +0.000 C 
ATOM      2  C   UNL     1       3.033   3.860  20.200  0.00  0.00    +0.000 A 
ATOM      3  C   UNL     1       3.728   2.644  20.364  0.00  0.00    +0.000 A 
ATOM      4  N   UNL     1       4.970   2.687  19.874  0.00  0.00    +0.000 NA
ATOM      5  N   UNL     1       5.072   3.931  19.346  0.00  0.00    +0.000 N 
ATOM      6  C   UNL     1       3.945   4.701  19.580  0.00  0.00    +0.000 A 
ENDROOT
BRANCH   5   7
ATOM      7  C   UNL     1       6.312   4.218  18.605  0.00  0.00    +0.000 C 
ATOM      8  C   UNL     1       7.241   5.218  19.312  0.00  0.00    +0.000 C 
ATOM      9  C   UNL     1       7.111   6.651  18.811  0.00  0.00    +0.000 C 
ATOM     10  C   UNL     1       7.257   6.747  17.291  0.00  0.00    +0.000 C 
ATOM     11  C   UNL     1       6.453   5.719  16.542  0.00  0.00    +0.000 A 
ATOM     12  C   UNL     1       6.155   5.933  15.186  0.00  0.00    +0.000 A 
ATOM     13  C   UNL     1       5.463   4.982  14.441  0.00  0.00    +0.000 A 
ATOM     14  C   UNL     1       5.086   3.787  15.027  0.00  0.00    +0.000 A 
ATOM     15  C   UNL     1       5.382   3.544  16.366  0.00  0.00    +0.000 A 
ATOM     16  C   UNL     1       6.064   4.507  17.140  0.00  0.00    +0.000 A 
ENDBRANCH   5   7
BRANCH   6  17
ATOM     17  N   UNL     1       3.785   6.008  19.140  0.00  0.00    +0.000 N 
ATOM     18  C   UNL     1       2.976   6.313  18.057  0.00  0.00    +0.000 C 
ATOM     19  O   UNL     1       2.301   5.507  17.417  0.00  0.00    +0.000 OA
ATOM     20  H   UNL     1       4.068   6.768  19.749  0.00  0.00    +0.000 HD
BRANCH  18  21
ATOM     21  C   UNL     1       2.935   7.790  17.721  0.00  0.00    +0.000 C 
BRANCH  21  22
ATOM     22  C   UNL     1       1.987   8.540  18.615  0.00  0.00    +0.000 A 
ATOM     23  C   UNL     1       1.244   9.619  18.132  0.00  0.00    +0.000 A 
ATOM     24  C   UNL     1       0.407  10.314  19.006  0.00  0.00    +0.000 A 
ATOM     25  C   UNL     1       0.318   9.901  20.328  0.00  0.00    +0.000 A 
ATOM     26 CL   UNL     1      -0.680  10.741  21.441  0.00  0.00    +0.000 Cl
ATOM     27  C   UNL     1       1.061   8.801  20.723  0.00  0.00    +0.000 A 
ATOM     28  N   UNL     1       1.893   8.114  19.900  0.00  0.00    +0.000 NA
ENDBRANCH  21  22
ENDBRANCH  18  21
ENDBRANCH   6  17
TORSDOF 4
ENDMDL
MODEL 2
REMARK VINA RESULT:      -6.7      4.172      9.626
REMARK  Name = 
REMARK  5 active torsions:
REMARK  status: ('A' for Active; 'I' for Inactive)
REMARK    1  A    between atoms: C_1  and  C_2
REMARK    2  A    between atoms: N_5  and  C_6
REMARK    3  A    between atoms: C_16  and  N_17
REMARK    4  A    between atoms: C_18  and  C_20
REMARK    5  A    between atoms: C_20  and  C_21
REMARK                            x       y       z     vdW  Elec       q    Type
REMARK                         _______ _______ _______ _____ _____    ______ ____
ROOT
ATOM      1  C   UNL     1      -1.180   9.782  17.536  0.00  0.00    +0.000 C 
ATOM      2  C   UNL     1      -1.202  10.717  18.691  0.00  0.00    +0.000 A 
ATOM      3  C   UNL     1      -2.147  11.745  18.890  0.00  0.00    +0.000 A 
ATOM      4  N   UNL     1      -2.018  12.342  20.079  0.00  0.00    +0.000 NA
ATOM      5  N   UNL     1      -1.007  11.667  20.679  0.00  0.00    +0.000 N 
ATOM      6  C   UNL     1      -0.437  10.717  19.848  0.00  0.00    +0.000 A 
ENDROOT
BRANCH   5   7
ATOM      7  C   UNL     1      -0.731  12.030  22.079  0.00  0.00    +0.000 C 
ATOM      8  C   UNL     1      -1.807  11.551  23.068  0.00  0.00    +0.000 C 
ATOM      9  C   UNL     1      -2.832  12.616  23.437  0.00  0.00    +0.000 C 
ATOM     10  C   UNL     1      -2.173  13.907  23.926  0.00  0.00    +0.000 C 
ATOM     11  C   UNL     1      -1.036  14.371  23.056  0.00  0.00    +0.000 A 
ATOM     12  C   UNL     1      -0.620  15.711  23.125  0.00  0.00    +0.000 A 
ATOM     13  C   UNL     1       0.464  16.167  22.379  0.00  0.00    +0.000 A 
ATOM     14  C   UNL     1       1.172  15.288  21.580  0.00  0.00    +0.000 A 
ATOM     15  C   UNL     1       0.788  13.952  21.506  0.00  0.00    +0.000 A 
ATOM     16  C   UNL     1      -0.321  13.478  22.237  0.00  0.00    +0.000 A 
ENDBRANCH   5   7
BRANCH   6  17
ATOM     17  N   UNL     1       0.610   9.883  20.215  0.00  0.00    +0.000 N 
ATOM     18  C   UNL     1       0.414   8.810  21.069  0.00  0.00    +0.000 C 
ATOM     19  O   UNL     1      -0.666   8.459  21.543  0.00  0.00    +0.000 OA
ATOM     20  H   UNL     1       1.471   9.911  19.680  0.00  0.00    +0.000 HD
BRANCH  18  21
ATOM     21  C   UNL     1       1.676   8.022  21.363  0.00  0.00    +0.000 C 
BRANCH  21  22
ATOM     22  C   UNL     1       1.902   6.933  20.350  0.00  0.00    +0.000 A 
ATOM     23  C   UNL     1       1.649   5.597  20.664  0.00  0.00    +0.000 A 
ATOM     24  C   UNL     1       1.912   4.613  19.710  0.00  0.00    +0.000 A 
ATOM     25  C   UNL     1       2.398   4.992  18.466  0.00  0.00    +0.000 A 
ATOM     26 CL   UNL     1       2.757   3.813  17.272  0.00  0.00    +0.000 Cl
ATOM     27  C   UNL     1       2.591   6.340  18.219  0.00  0.00    +0.000 A 
ATOM     28  N   UNL     1       2.357   7.318  19.131  0.00  0.00    +0.000 NA
ENDBRANCH  21  22
ENDBRANCH  18  21
ENDBRANCH   6  17
TORSDOF 4
ENDMDL
MODEL 3
REMARK VINA RESULT:      -6.6      1.369      1.418
REMARK  Name = 
REMARK  5 active torsions:
REMARK  status: ('A' for Active; 'I' for Inactive)
REMARK    1  A    between atoms: C_1  and  C_2
REMARK    2  A    between atoms: N_5  and  C_6
REMARK    3  A    between atoms: C_16  and  N_17
REMARK    4  A    between atoms: C_18  and  C_20
REMARK    5  A    between atoms: C_20  and  C_21
REMARK                            x       y       z     vdW  Elec       q    Type
REMARK                         _______ _______ _______ _____ _____    ______ ____
ROOT
ATOM      1  C   UNL     1       1.178   4.069  19.259  0.00  0.00    +0.000 C 
ATOM      2  C   UNL     1       2.660   3.977  19.314  0.00  0.00    +0.000 A 
ATOM      3  C   UNL     1       3.391   2.931  19.915  0.00  0.00    +0.000 A 
ATOM      4  N   UNL     1       4.705   3.027  19.696  0.00  0.00    +0.000 NA
ATOM      5  N   UNL     1       4.829   4.121  18.906  0.00  0.00    +0.000 N 
ATOM      6  C   UNL     1       3.622   4.769  18.704  0.00  0.00    +0.000 A 
ENDROOT
BRANCH   5   7
ATOM      7  C   UNL     1       6.181   4.394  18.389  0.00  0.00    +0.000 C 
ATOM      8  C   UNL     1       6.903   5.542  19.113  0.00  0.00    +0.000 C 
ATOM      9  C   UNL     1       6.817   6.884  18.396  0.00  0.00    +0.000 C 
ATOM     10  C   UNL     1       7.265   6.787  16.936  0.00  0.00    +0.000 C 
ATOM     11  C   UNL     1       6.674   5.616  16.200  0.00  0.00    +0.000 A 
ATOM     12  C   UNL     1       6.650   5.627  14.796  0.00  0.00    +0.000 A 
ATOM     13  C   UNL     1       6.165   4.539  14.074  0.00  0.00    +0.000 A 
ATOM     14  C   UNL     1       5.728   3.408  14.740  0.00  0.00    +0.000 A 
ATOM     15  C   UNL     1       5.756   3.367  16.132  0.00  0.00    +0.000 A 
ATOM     16  C   UNL     1       6.224   4.469  16.878  0.00  0.00    +0.000 A 
ENDBRANCH   5   7
BRANCH   6  17
ATOM     17  N   UNL     1       3.466   5.910  17.930  0.00  0.00    +0.000 N 
ATOM     18  C   UNL     1       2.943   7.078  18.461  0.00  0.00    +0.000 C 
ATOM     19  O   UNL     1       2.615   7.248  19.635  0.00  0.00    +0.000 OA
ATOM     20  H   UNL     1       3.948   5.969  17.040  0.00  0.00    +0.000 HD
BRANCH  18  21
ATOM     21  C   UNL     1       2.839   8.213  17.460  0.00  0.00    +0.000 C 
BRANCH  21  22
ATOM     22  C   UNL     1       1.869   9.269  17.913  0.00  0.00    +0.000 A 
ATOM     23  C   UNL     1       0.495   9.020  17.939  0.00  0.00    +0.000 A 
ATOM     24  C   UNL     1      -0.374  10.041  18.325  0.00  0.00    +0.000 A 
ATOM     25  C   UNL     1       0.152  11.271  18.695  0.00  0.00    +0.000 A 
ATOM     26 CL   UNL     1      -0.881  12.561  19.154  0.00  0.00    +0.000 Cl
ATOM     27  C   UNL     1       1.527  11.430  18.676  0.00  0.00    +0.000 A 
ATOM     28  N   UNL     1       2.396  10.460  18.292  0.00  0.00    +0.000 NA
ENDBRANCH  21  22
ENDBRANCH  18  21
ENDBRANCH   6  17
TORSDOF 4
ENDMDL
MODEL 4
REMARK VINA RESULT:      -6.6      4.845      8.092
REMARK  Name = 
REMARK  5 active torsions:
REMARK  status: ('A' for Active; 'I' for Inactive)
REMARK    1  A    between atoms: C_1  and  C_2
REMARK    2  A    between atoms: N_5  and  C_6
REMARK    3  A    between atoms: C_16  and  N_17
REMARK    4  A    between atoms: C_18  and  C_20
REMARK    5  A    between atoms: C_20  and  C_21
REMARK                            x       y       z     vdW  Elec       q    Type
REMARK                         _______ _______ _______ _____ _____    ______ ____
ROOT
ATOM      1  C   UNL     1       1.564   7.112  20.786  0.00  0.00    +0.000 C 
ATOM      2  C   UNL     1       1.501   8.303  19.901  0.00  0.00    +0.000 A 
ATOM      3  C   UNL     1       2.227   8.467  18.703  0.00  0.00    +0.000 A 
ATOM      4  N   UNL     1       1.875   9.568  18.032  0.00  0.00    +0.000 NA
ATOM      5  N   UNL     1       0.879  10.105  18.778  0.00  0.00    +0.000 N 
ATOM      6  C   UNL     1       0.664   9.408  19.955  0.00  0.00    +0.000 A 
ENDROOT
BRANCH   5   7
ATOM      7  C   UNL     1       0.198  11.275  18.199  0.00  0.00    +0.000 C 
ATOM      8  C   UNL     1       0.661  12.617  18.789  0.00  0.00    +0.000 C 
ATOM      9  C   UNL     1      -0.246  13.162  19.886  0.00  0.00    +0.000 C 
ATOM     10  C   UNL     1      -1.708  13.233  19.444  0.00  0.00    +0.000 C 
ATOM     11  C   UNL     1      -2.192  11.983  18.759  0.00  0.00    +0.000 A 
ATOM     12  C   UNL     1      -3.572  11.735  18.676  0.00  0.00    +0.000 A 
ATOM     13  C   UNL     1      -4.065  10.621  18.002  0.00  0.00    +0.000 A 
ATOM     14  C   UNL     1      -3.192   9.754  17.370  0.00  0.00    +0.000 A 
ATOM     15  C   UNL     1      -1.819   9.986  17.425  0.00  0.00    +0.000 A 
ATOM     16  C   UNL     1      -1.304  11.099  18.122  0.00  0.00    +0.000 A 
ENDBRANCH   5   7
BRANCH   6  17
ATOM     17  N   UNL     1      -0.302   9.739  20.896  0.00  0.00    +0.000 N 
ATOM     18  C   UNL     1       0.035  10.020  22.210  0.00  0.00    +0.000 C 
ATOM     19  O   UNL     1       1.178  10.055  22.665  0.00  0.00    +0.000 OA
ATOM     20  H   UNL     1      -1.227  10.005  20.576  0.00  0.00    +0.000 HD
BRANCH  18  21
ATOM     21  C   UNL     1      -1.155  10.349  23.090  0.00  0.00    +0.000 C 
BRANCH  21  22
ATOM     22  C   UNL     1      -1.508  11.810  23.027  0.00  0.00    +0.000 A 
ATOM     23  C   UNL     1      -2.823  12.222  22.800  0.00  0.00    +0.000 A 
ATOM     24  C   UNL     1      -3.101  13.586  22.707  0.00  0.00    +0.000 A 
ATOM     25  C   UNL     1      -2.067  14.498  22.866  0.00  0.00    +0.000 A 
ATOM     26 CL   UNL     1      -2.360  16.184  22.736  0.00  0.00    +0.000 Cl
ATOM     27  C   UNL     1      -0.796  14.013  23.123  0.00  0.00    +0.000 A 
ATOM     28  N   UNL     1      -0.493  12.692  23.205  0.00  0.00    +0.000 NA
ENDBRANCH  21  22
ENDBRANCH  18  21
ENDBRANCH   6  17
TORSDOF 4
ENDMDL
MODEL 5
REMARK VINA RESULT:      -6.3      3.668      8.642
REMARK  Name = 
REMARK  5 active torsions:
REMARK  status: ('A' for Active; 'I' for Inactive)
REMARK    1  A    between atoms: C_1  and  C_2
REMARK    2  A    between atoms: N_5  and  C_6
REMARK    3  A    between atoms: C_16  and  N_17
REMARK    4  A    between atoms: C_18  and  C_20
REMARK    5  A    between atoms: C_20  and  C_21
REMARK                            x       y       z     vdW  Elec       q    Type
REMARK                         _______ _______ _______ _____ _____    ______ ____
ROOT
ATOM      1  C   UNL     1      -2.067   9.406  16.082  0.00  0.00    +0.000 C 
ATOM      2  C   UNL     1      -1.635  10.142  17.298  0.00  0.00    +0.000 A 
ATOM      3  C   UNL     1      -2.392  11.127  17.966  0.00  0.00    +0.000 A 
ATOM      4  N   UNL     1      -1.828  11.524  19.110  0.00  0.00    +0.000 NA
ATOM      5  N   UNL     1      -0.714  10.759  19.212  0.00  0.00    +0.000 N 
ATOM      6  C   UNL     1      -0.521   9.954  18.101  0.00  0.00    +0.000 A 
ENDROOT
BRANCH   5   7
ATOM      7  C   UNL     1       0.047  10.890  20.466  0.00  0.00    +0.000 C 
ATOM      8  C   UNL     1       0.209   9.569  21.235  0.00  0.00    +0.000 C 
ATOM      9  C   UNL     1      -0.799   9.375  22.361  0.00  0.00    +0.000 C 
ATOM     10  C   UNL     1      -0.829  10.567  23.319  0.00  0.00    +0.000 C 
ATOM     11  C   UNL     1      -0.879  11.900  22.622  0.00  0.00    +0.000 A 
ATOM     12  C   UNL     1      -1.323  13.030  23.329  0.00  0.00    +0.000 A 
ATOM     13  C   UNL     1      -1.330  14.291  22.740  0.00  0.00    +0.000 A 
ATOM     14  C   UNL     1      -0.863  14.453  21.448  0.00  0.00    +0.000 A 
ATOM     15  C   UNL     1      -0.404  13.351  20.731  0.00  0.00    +0.000 A 
ATOM     16  C   UNL     1      -0.410  12.063  21.306  0.00  0.00    +0.000 A 
ENDBRANCH   5   7
BRANCH   6  17
ATOM     17  N   UNL     1       0.538   9.069  17.951  0.00  0.00    +0.000 N 
ATOM     18  C   UNL     1       1.846   9.515  17.860  0.00  0.00    +0.000 C 
ATOM     19  O   UNL     1       2.212  10.687  17.944  0.00  0.00    +0.000 OA
ATOM     20  H   UNL     1       0.385   8.085  18.142  0.00  0.00    +0.000 HD
BRANCH  18  21
ATOM     21  C   UNL     1       2.861   8.402  17.688  0.00  0.00    +0.000 C 
BRANCH  21  22
ATOM     22  C   UNL     1       2.488   7.179  18.478  0.00  0.00    +0.000 A 
ATOM     23  C   UNL     1       2.420   5.923  17.871  0.00  0.00    +0.000 A 
ATOM     24  C   UNL     1       2.029   4.821  18.630  0.00  0.00    +0.000 A 
ATOM     25  C   UNL     1       1.737   4.996  19.976  0.00  0.00    +0.000 A 
ATOM     26 CL   UNL     1       1.229   3.672  20.941  0.00  0.00    +0.000 Cl
ATOM     27  C   UNL     1       1.859   6.267  20.514  0.00  0.00    +0.000 A 
ATOM     28  N   UNL     1       2.225   7.360  19.797  0.00  0.00    +0.000 NA
ENDBRANCH  21  22
ENDBRANCH  18  21
ENDBRANCH   6  17
TORSDOF 4
ENDMDL
MODEL 6
REMARK VINA RESULT:      -6.3      5.292      8.181
REMARK  Name = 
REMARK  5 active torsions:
REMARK  status: ('A' for Active; 'I' for Inactive)
REMARK    1  A    between atoms: C_1  and  C_2
REMARK    2  A    between atoms: N_5  and  C_6
REMARK    3  A    between atoms: C_16  and  N_17
REMARK    4  A    between atoms: C_18  and  C_20
REMARK    5  A    between atoms: C_20  and  C_21
REMARK                            x       y       z     vdW  Elec       q    Type
REMARK                         _______ _______ _______ _____ _____    ______ ____
ROOT
ATOM      1  C   UNL     1      -0.185  15.304  19.494  0.00  0.00    +0.000 C 
ATOM      2  C   UNL     1       0.193  13.905  19.820  0.00  0.00    +0.000 A 
ATOM      3  C   UNL     1       1.331  13.520  20.560  0.00  0.00    +0.000 A 
ATOM      4  N   UNL     1       1.355  12.211  20.828  0.00  0.00    +0.000 NA
ATOM      5  N   UNL     1       0.199  11.745  20.295  0.00  0.00    +0.000 N 
ATOM      6  C   UNL     1      -0.505  12.725  19.615  0.00  0.00    +0.000 A 
ENDROOT
BRANCH   5   7
ATOM      7  C   UNL     1      -0.109  10.330  20.561  0.00  0.00    +0.000 C 
ATOM      8  C   UNL     1      -0.196   9.983  22.056  0.00  0.00    +0.000 C 
ATOM      9  C   UNL     1       1.078   9.375  22.631  0.00  0.00    +0.000 C 
ATOM     10  C   UNL     1       1.562   8.174  21.816  0.00  0.00    +0.000 C 
ATOM     11  C   UNL     1       1.567   8.415  20.331  0.00  0.00    +0.000 A 
ATOM     12  C   UNL     1       2.353   7.596  19.504  0.00  0.00    +0.000 A 
ATOM     13  C   UNL     1       2.343   7.747  18.120  0.00  0.00    +0.000 A 
ATOM     14  C   UNL     1       1.522   8.694  17.535  0.00  0.00    +0.000 A 
ATOM     15  C   UNL     1       0.722   9.509  18.332  0.00  0.00    +0.000 A 
ATOM     16  C   UNL     1       0.737   9.383  19.737  0.00  0.00    +0.000 A 
ENDBRANCH   5   7
BRANCH   6  17
ATOM     17  N   UNL     1      -1.723  12.518  18.983  0.00  0.00    +0.000 N 
ATOM     18  C   UNL     1      -2.888  12.321  19.707  0.00  0.00    +0.000 C 
ATOM     19  O   UNL     1      -2.985  12.351  20.933  0.00  0.00    +0.000 OA
ATOM     20  H   UNL     1      -1.809  12.742  17.998  0.00  0.00    +0.000 HD
BRANCH  18  21
ATOM     21  C   UNL     1      -4.115  12.101  18.843  0.00  0.00    +0.000 C 
BRANCH  21  22
ATOM     22  C   UNL     1      -3.774  11.401  17.557  0.00  0.00    +0.000 A 
ATOM     23  C   UNL     1      -2.851  10.354  17.531  0.00  0.00    +0.000 A 
ATOM     24  C   UNL     1      -2.531   9.759  16.310  0.00  0.00    +0.000 A 
ATOM     25  C   UNL     1      -3.156  10.210  15.155  0.00  0.00    +0.000 A 
ATOM     26 CL   UNL     1      -2.775   9.523  13.630  0.00  0.00    +0.000 Cl
ATOM     27  C   UNL     1      -4.085  11.230  15.267  0.00  0.00    +0.000 A 
ATOM     28  N   UNL     1      -4.407  11.836  16.439  0.00  0.00    +0.000 NA
ENDBRANCH  21  22
ENDBRANCH  18  21
ENDBRANCH   6  17
TORSDOF 4
ENDMDL
MODEL 7
REMARK VINA RESULT:      -6.2      4.160      9.438
REMARK  Name = 
REMARK  5 active torsions:
REMARK  status: ('A' for Active; 'I' for Inactive)
REMARK    1  A    between atoms: C_1  and  C_2
REMARK    2  A    between atoms: N_5  and  C_6
REMARK    3  A    between atoms: C_16  and  N_17
REMARK    4  A    between atoms: C_18  and  C_20
REMARK    5  A    between atoms: C_20  and  C_21
REMARK                            x       y       z     vdW  Elec       q    Type
REMARK                         _______ _______ _______ _____ _____    ______ ____
ROOT
ATOM      1  C   UNL     1       2.257  13.073  19.648  0.00  0.00    +0.000 C 
ATOM      2  C   UNL     1       0.869  12.751  19.228  0.00  0.00    +0.000 A 
ATOM      3  C   UNL     1       0.071  13.542  18.375  0.00  0.00    +0.000 A 
ATOM      4  N   UNL     1      -1.081  12.949  18.048  0.00  0.00    +0.000 NA
ATOM      5  N   UNL     1      -1.015  11.742  18.660  0.00  0.00    +0.000 N 
ATOM      6  C   UNL     1       0.119  11.604  19.442  0.00  0.00    +0.000 A 
ENDROOT
BRANCH   5   7
ATOM      7  C   UNL     1      -2.112  10.806  18.360  0.00  0.00    +0.000 C 
ATOM      8  C   UNL     1      -1.855   9.922  17.129  0.00  0.00    +0.000 C 
ATOM      9  C   UNL     1      -2.505  10.432  15.848  0.00  0.00    +0.000 C 
ATOM     10  C   UNL     1      -4.001  10.701  16.028  0.00  0.00    +0.000 C 
ATOM     11  C   UNL     1      -4.328  11.472  17.277  0.00  0.00    +0.000 A 
ATOM     12  C   UNL     1      -5.560  12.142  17.369  0.00  0.00    +0.000 A 
ATOM     13  C   UNL     1      -5.927  12.819  18.528  0.00  0.00    +0.000 A 
ATOM     14  C   UNL     1      -5.088  12.812  19.628  0.00  0.00    +0.000 A 
ATOM     15  C   UNL     1      -3.868  12.143  19.568  0.00  0.00    +0.000 A 
ATOM     16  C   UNL     1      -3.472  11.470  18.393  0.00  0.00    +0.000 A 
ENDBRANCH   5   7
BRANCH   6  17
ATOM     17  N   UNL     1       0.436  10.465  20.169  0.00  0.00    +0.000 N 
ATOM     18  C   UNL     1       1.153   9.423  19.604  0.00  0.00    +0.000 C 
ATOM     19  O   UNL     1       1.612   9.404  18.462  0.00  0.00    +0.000 OA
ATOM     20  H   UNL     1       0.350  10.488  21.179  0.00  0.00    +0.000 HD
BRANCH  18  21
ATOM     21  C   UNL     1       1.392   8.261  20.549  0.00  0.00    +0.000 C 
BRANCH  21  22
ATOM     22  C   UNL     1       2.010   7.086  19.843  0.00  0.00    +0.000 A 
ATOM     23  C   UNL     1       2.681   7.247  18.630  0.00  0.00    +0.000 A 
ATOM     24  C   UNL     1       3.204   6.124  17.987  0.00  0.00    +0.000 A 
ATOM     25  C   UNL     1       3.061   4.878  18.582  0.00  0.00    +0.000 A 
ATOM     26 CL   UNL     1       3.667   3.469  17.815  0.00  0.00    +0.000 Cl
ATOM     27  C   UNL     1       2.411   4.804  19.803  0.00  0.00    +0.000 A 
ATOM     28  N   UNL     1       1.881   5.876  20.445  0.00  0.00    +0.000 NA
ENDBRANCH  21  22
ENDBRANCH  18  21
ENDBRANCH   6  17
TORSDOF 4
ENDMDL
MODEL 8
REMARK VINA RESULT:      -6.2      5.818      8.646
REMARK  Name = 
REMARK  5 active torsions:
REMARK  status: ('A' for Active; 'I' for Inactive)
REMARK    1  A    between atoms: C_1  and  C_2
REMARK    2  A    between atoms: N_5  and  C_6
REMARK    3  A    between atoms: C_16  and  N_17
REMARK    4  A    between atoms: C_18  and  C_20
REMARK    5  A    between atoms: C_20  and  C_21
REMARK                            x       y       z     vdW  Elec       q    Type
REMARK                         _______ _______ _______ _____ _____    ______ ____
ROOT
ATOM      1  C   UNL     1      -1.279  15.577  20.459  0.00  0.00    +0.000 C 
ATOM      2  C   UNL     1      -0.738  14.206  20.646  0.00  0.00    +0.000 A 
ATOM      3  C   UNL     1       0.430  13.882  21.367  0.00  0.00    +0.000 A 
ATOM      4  N   UNL     1       0.608  12.564  21.497  0.00  0.00    +0.000 NA
ATOM      5  N   UNL     1      -0.478  12.024  20.892  0.00  0.00    +0.000 N 
ATOM      6  C   UNL     1      -1.287  12.980  20.302  0.00  0.00    +0.000 A 
ENDROOT
BRANCH   5   7
ATOM      7  C   UNL     1      -0.617  10.561  21.001  0.00  0.00    +0.000 C 
ATOM      8  C   UNL     1      -0.556  10.038  22.445  0.00  0.00    +0.000 C 
ATOM      9  C   UNL     1       0.812   9.515  22.863  0.00  0.00    +0.000 C 
ATOM     10  C   UNL     1       1.358   8.477  21.880  0.00  0.00    +0.000 C 
ATOM     11  C   UNL     1       1.228   8.886  20.438  0.00  0.00    +0.000 A 
ATOM     12  C   UNL     1       2.033   8.260  19.471  0.00  0.00    +0.000 A 
ATOM     13  C   UNL     1       1.905   8.568  18.119  0.00  0.00    +0.000 A 
ATOM     14  C   UNL     1       0.949   9.478  17.705  0.00  0.00    +0.000 A 
ATOM     15  C   UNL     1       0.129  10.100  18.643  0.00  0.00    +0.000 A 
ATOM     16  C   UNL     1       0.261   9.817  20.018  0.00  0.00    +0.000 A 
ENDBRANCH   5   7
BRANCH   6  17
ATOM     17  N   UNL     1      -2.466  12.699  19.624  0.00  0.00    +0.000 N 
ATOM     18  C   UNL     1      -3.658  12.497  20.300  0.00  0.00    +0.000 C 
ATOM     19  O   UNL     1      -3.816  12.586  21.517  0.00  0.00    +0.000 OA
ATOM     20  H   UNL     1      -2.510  12.870  18.626  0.00  0.00    +0.000 HD
BRANCH  18  21
ATOM     21  C   UNL     1      -4.832  12.191  19.392  0.00  0.00    +0.000 C 
BRANCH  21  22
ATOM     22  C   UNL     1      -4.384  11.637  18.068  0.00  0.00    +0.000 A 
ATOM     23  C   UNL     1      -4.934  12.099  16.871  0.00  0.00    +0.000 A 
ATOM     24  C   UNL     1      -4.520  11.529  15.667  0.00  0.00    +0.000 A 
ATOM     25  C   UNL     1      -3.556  10.531  15.689  0.00  0.00    +0.000 A 
ATOM     26 CL   UNL     1      -3.035   9.785  14.234  0.00  0.00    +0.000 Cl
ATOM     27  C   UNL     1      -3.033  10.149  16.913  0.00  0.00    +0.000 A 
ATOM     28  N   UNL     1      -3.426  10.676  18.101  0.00  0.00    +0.000 NA
ENDBRANCH  21  22
ENDBRANCH  18  21
ENDBRANCH   6  17
TORSDOF 4
ENDMDL
MODEL 9
REMARK VINA RESULT:      -6.2      8.379     12.072
REMARK  Name = 
REMARK  5 active torsions:
REMARK  status: ('A' for Active; 'I' for Inactive)
REMARK    1  A    between atoms: C_1  and  C_2
REMARK    2  A    between atoms: N_5  and  C_6
REMARK    3  A    between atoms: C_16  and  N_17
REMARK    4  A    between atoms: C_18  and  C_20
REMARK    5  A    between atoms: C_20  and  C_21
REMARK                            x       y       z     vdW  Elec       q    Type
REMARK                         _______ _______ _______ _____ _____    ______ ____
ROOT
ATOM      1  C   UNL     1      -1.279  10.461  18.053  0.00  0.00    +0.000 C 
ATOM      2  C   UNL     1      -2.598  10.967  17.594  0.00  0.00    +0.000 A 
ATOM      3  C   UNL     1      -3.099  10.861  16.279  0.00  0.00    +0.000 A 
ATOM      4  N   UNL     1      -4.366  11.272  16.174  0.00  0.00    +0.000 NA
ATOM      5  N   UNL     1      -4.710  11.607  17.442  0.00  0.00    +0.000 N 
ATOM      6  C   UNL     1      -3.648  11.502  18.325  0.00  0.00    +0.000 A 
ENDROOT
BRANCH   5   7
ATOM      7  C   UNL     1      -6.121  11.974  17.652  0.00  0.00    +0.000 C 
ATOM      8  C   UNL     1      -6.376  13.490  17.641  0.00  0.00    +0.000 C 
ATOM      9  C   UNL     1      -6.445  14.121  19.026  0.00  0.00    +0.000 C 
ATOM     10  C   UNL     1      -7.442  13.403  19.938  0.00  0.00    +0.000 C 
ATOM     11  C   UNL     1      -7.313  11.905  19.911  0.00  0.00    +0.000 A 
ATOM     12  C   UNL     1      -7.846  11.149  20.969  0.00  0.00    +0.000 A 
ATOM     13  C   UNL     1      -7.799   9.758  20.956  0.00  0.00    +0.000 A 
ATOM     14  C   UNL     1      -7.252   9.095  19.872  0.00  0.00    +0.000 A 
ATOM     15  C   UNL     1      -6.730   9.821  18.804  0.00  0.00    +0.000 A 
ATOM     16  C   UNL     1      -6.750  11.231  18.812  0.00  0.00    +0.000 A 
ENDBRANCH   5   7
BRANCH   6  17
ATOM     17  N   UNL     1      -3.729  11.778  19.683  0.00  0.00    +0.000 N 
ATOM     18  C   UNL     1      -2.877  12.688  20.288  0.00  0.00    +0.000 C 
ATOM     19  O   UNL     1      -2.023  13.362  19.713  0.00  0.00    +0.000 OA
ATOM     20  H   UNL     1      -4.558  11.493  20.192  0.00  0.00    +0.000 HD
BRANCH  18  21
ATOM     21  C   UNL     1      -3.110  12.847  21.777  0.00  0.00    +0.000 C 
BRANCH  21  22
ATOM     22  C   UNL     1      -4.190  13.852  22.069  0.00  0.00    +0.000 A 
ATOM     23  C   UNL     1      -4.099  15.163  21.601  0.00  0.00    +0.000 A 
ATOM     24  C   UNL     1      -5.102  16.075  21.930  0.00  0.00    +0.000 A 
ATOM     25  C   UNL     1      -6.178  15.647  22.696  0.00  0.00    +0.000 A 
ATOM     26 CL   UNL     1      -7.422  16.741  23.144  0.00  0.00    +0.000 Cl
ATOM     27  C   UNL     1      -6.214  14.322  23.095  0.00  0.00    +0.000 A 
ATOM     28  N   UNL     1      -5.246  13.416  22.802  0.00  0.00    +0.000 NA
ENDBRANCH  21  22
ENDBRANCH  18  21
ENDBRANCH   6  17
TORSDOF 4
ENDMDL
