MODEL 1
REMARK VINA RESULT:      -9.4      0.000      0.000
REMARK  Name = 
REMARK  5 active torsions:
REMARK  status: ('A' for Active; 'I' for Inactive)
REMARK    1  A    between atoms: C_1  and  C_2
REMARK    2  A    between atoms: C_6  and  N_7
REMARK    3  A    between atoms: C_8  and  C_10
REMARK    4  A    between atoms: C_11  and  C_12
REMARK    5  A    between atoms: C_20  and  C_21
REMARK                            x       y       z     vdW  Elec       q    Type
REMARK                         _______ _______ _______ _____ _____    ______ ____
ROOT
ATOM      1  N   UNL     1       2.777   6.435  19.872  0.00  0.00    +0.000 N 
ATOM      2  C   UNL     1       2.468   5.189  19.338  0.00  0.00    +0.000 C 
ATOM      3  O   UNL     1       1.626   4.980  18.476  0.00  0.00    +0.000 OA
ATOM      4  H   UNL     1       3.594   6.503  20.465  0.00  0.00    +0.000 HD
ENDROOT
BRANCH   1  10
ATOM      5  C   UNL     1      -1.507  12.551  19.737  0.00  0.00    +0.000 C 
ATOM      6  C   UNL     1      -0.590  11.392  19.622  0.00  0.00    +0.000 A 
ATOM      7  C   UNL     1      -0.279  10.410  20.535  0.00  0.00    +0.000 A 
ATOM      8  C   UNL     1       0.648   9.525  19.923  0.00  0.00    +0.000 A 
ATOM      9  C   UNL     1       1.296   8.354  20.355  0.00  0.00    +0.000 A 
ATOM     10  C   UNL     1       2.158   7.656  19.499  0.00  0.00    +0.000 A 
ATOM     11  C   UNL     1       2.407   8.174  18.223  0.00  0.00    +0.000 A 
ATOM     12  C   UNL     1       1.779   9.349  17.766  0.00  0.00    +0.000 A 
ATOM     13  C   UNL     1       0.896   9.997  18.639  0.00  0.00    +0.000 A 
ATOM     14  N   UNL     1       0.134  11.133  18.479  0.00  0.00    +0.000 N 
ATOM     15  H   UNL     1       0.105  11.692  17.638  0.00  0.00    +0.000 HD
ENDBRANCH   1  10
BRANCH   2  16
ATOM     16  C   UNL     1       3.266   4.082  19.823  0.00  0.00    +0.000 A 
ATOM     17  C   UNL     1       4.581   3.712  19.390  0.00  0.00    +0.000 A 
ATOM     18  N   UNL     1       4.945   2.551  19.962  0.00  0.00    +0.000 NA
ATOM     19  O   UNL     1       3.903   2.173  20.777  0.00  0.00    +0.000 OA
ATOM     20  C   UNL     1       2.901   3.087  20.702  0.00  0.00    +0.000 A 
ATOM     21  C   UNL     1       1.695   2.778  21.494  0.00  0.00    +0.000 C 
BRANCH  17  22
ATOM     22  C   UNL     1       5.495   4.427  18.490  0.00  0.00    +0.000 A 
ATOM     23  C   UNL     1       6.458   5.313  18.998  0.00  0.00    +0.000 A 
ATOM     24  C   UNL     1       7.328   5.996  18.144  0.00  0.00    +0.000 A 
ATOM     25  C   UNL     1       7.259   5.788  16.770  0.00  0.00    +0.000 A 
ATOM     26  C   UNL     1       6.319   4.901  16.248  0.00  0.00    +0.000 A 
ATOM     27  C   UNL     1       5.442   4.223  17.103  0.00  0.00    +0.000 A 
ENDBRANCH  17  22
ENDBRANCH   2  16
TORSDOF 3
ENDMDL
MODEL 2
REMARK VINA RESULT:      -9.1      0.609      1.082
REMARK  Name = 
REMARK  5 active torsions:
REMARK  status: ('A' for Active; 'I' for Inactive)
REMARK    1  A    between atoms: C_1  and  C_2
REMARK    2  A    between atoms: C_6  and  N_7
REMARK    3  A    between atoms: C_8  and  C_10
REMARK    4  A    between atoms: C_11  and  C_12
REMARK    5  A    between atoms: C_20  and  C_21
REMARK                            x       y       z     vdW  Elec       q    Type
REMARK                         _______ _______ _______ _____ _____    ______ ____
ROOT
ATOM      1  N   UNL     1       2.737   6.572  19.885  0.00  0.00    +0.000 N 
ATOM      2  C   UNL     1       2.493   5.350  19.268  0.00  0.00    +0.000 C 
ATOM      3  O   UNL     1       1.661   5.153  18.394  0.00  0.00    +0.000 OA
ATOM      4  H   UNL     1       3.552   6.644  20.481  0.00  0.00    +0.000 HD
ENDROOT
BRANCH   1  10
ATOM      5  C   UNL     1      -1.744  12.535  20.246  0.00  0.00    +0.000 C 
ATOM      6  C   UNL     1      -0.801  11.413  20.030  0.00  0.00    +0.000 A 
ATOM      7  C   UNL     1      -0.390  10.418  20.888  0.00  0.00    +0.000 A 
ATOM      8  C   UNL     1       0.517   9.583  20.184  0.00  0.00    +0.000 A 
ATOM      9  C   UNL     1       1.234   8.424  20.532  0.00  0.00    +0.000 A 
ATOM     10  C   UNL     1       2.052   7.780  19.595  0.00  0.00    +0.000 A 
ATOM     11  C   UNL     1       2.187   8.340  18.319  0.00  0.00    +0.000 A 
ATOM     12  C   UNL     1       1.488   9.505  17.944  0.00  0.00    +0.000 A 
ATOM     13  C   UNL     1       0.653  10.097  18.899  0.00  0.00    +0.000 A 
ATOM     14  N   UNL     1      -0.157  11.210  18.829  0.00  0.00    +0.000 N 
ATOM     15  H   UNL     1      -0.267  11.790  18.009  0.00  0.00    +0.000 HD
ENDBRANCH   1  10
BRANCH   2  16
ATOM     16  C   UNL     1       3.352   4.258  19.678  0.00  0.00    +0.000 A 
ATOM     17  C   UNL     1       4.736   4.078  19.349  0.00  0.00    +0.000 A 
ATOM     18  N   UNL     1       5.161   2.881  19.787  0.00  0.00    +0.000 NA
ATOM     19  O   UNL     1       4.089   2.290  20.415  0.00  0.00    +0.000 OA
ATOM     20  C   UNL     1       3.008   3.110  20.358  0.00  0.00    +0.000 A 
ATOM     21  C   UNL     1       1.769   2.576  20.954  0.00  0.00    +0.000 C 
BRANCH  17  22
ATOM     22  C   UNL     1       5.654   5.002  18.671  0.00  0.00    +0.000 A 
ATOM     23  C   UNL     1       5.353   5.508  17.397  0.00  0.00    +0.000 A 
ATOM     24  C   UNL     1       6.226   6.386  16.748  0.00  0.00    +0.000 A 
ATOM     25  C   UNL     1       7.403   6.785  17.373  0.00  0.00    +0.000 A 
ATOM     26  C   UNL     1       7.711   6.303  18.645  0.00  0.00    +0.000 A 
ATOM     27  C   UNL     1       6.842   5.417  19.291  0.00  0.00    +0.000 A 
ENDBRANCH  17  22
ENDBRANCH   2  16
TORSDOF 3
ENDMDL
MODEL 3
REMARK VINA RESULT:      -8.7      1.085      1.808
REMARK  Name = 
REMARK  5 active torsions:
REMARK  status: ('A' for Active; 'I' for Inactive)
REMARK    1  A    between atoms: C_1  and  C_2
REMARK    2  A    between atoms: C_6  and  N_7
REMARK    3  A    between atoms: C_8  and  C_10
REMARK    4  A    between atoms: C_11  and  C_12
REMARK    5  A    between atoms: C_20  and  C_21
REMARK                            x       y       z     vdW  Elec       q    Type
REMARK                         _______ _______ _______ _____ _____    ______ ____
ROOT
ATOM      1  N   UNL     1       2.417   6.498  20.443  0.00  0.00    +0.000 N 
ATOM      2  C   UNL     1       2.468   5.523  19.451  0.00  0.00    +0.000 C 
ATOM      3  O   UNL     1       1.890   5.580  18.375  0.00  0.00    +0.000 OA
ATOM      4  H   UNL     1       3.057   6.410  21.222  0.00  0.00    +0.000 HD
ENDROOT
BRANCH   1  10
ATOM      5  C   UNL     1      -0.140  13.203  18.375  0.00  0.00    +0.000 C 
ATOM      6  C   UNL     1       0.247  11.871  18.899  0.00  0.00    +0.000 A 
ATOM      7  C   UNL     1       1.119  10.935  18.392  0.00  0.00    +0.000 A 
ATOM      8  C   UNL     1       1.140   9.832  19.287  0.00  0.00    +0.000 A 
ATOM      9  C   UNL     1       1.841   8.612  19.300  0.00  0.00    +0.000 A 
ATOM     10  C   UNL     1       1.680   7.707  20.357  0.00  0.00    +0.000 A 
ATOM     11  C   UNL     1       0.767   8.010  21.373  0.00  0.00    +0.000 A 
ATOM     12  C   UNL     1       0.045   9.221  21.382  0.00  0.00    +0.000 A 
ATOM     13  C   UNL     1       0.262  10.115  20.327  0.00  0.00    +0.000 A 
ATOM     14  N   UNL     1      -0.270  11.360  20.069  0.00  0.00    +0.000 N 
ATOM     15  H   UNL     1      -0.939  11.832  20.660  0.00  0.00    +0.000 HD
ENDBRANCH   1  10
BRANCH   2  16
ATOM     16  C   UNL     1       3.331   4.393  19.727  0.00  0.00    +0.000 A 
ATOM     17  C   UNL     1       4.698   4.233  19.326  0.00  0.00    +0.000 A 
ATOM     18  N   UNL     1       5.128   2.998  19.637  0.00  0.00    +0.000 NA
ATOM     19  O   UNL     1       4.076   2.362  20.255  0.00  0.00    +0.000 OA
ATOM     20  C   UNL     1       3.003   3.192  20.316  0.00  0.00    +0.000 A 
ATOM     21  C   UNL     1       1.783   2.616  20.915  0.00  0.00    +0.000 C 
BRANCH  17  22
ATOM     22  C   UNL     1       5.598   5.207  18.694  0.00  0.00    +0.000 A 
ATOM     23  C   UNL     1       5.202   5.913  17.547  0.00  0.00    +0.000 A 
ATOM     24  C   UNL     1       6.056   6.839  16.942  0.00  0.00    +0.000 A 
ATOM     25  C   UNL     1       7.312   7.085  17.488  0.00  0.00    +0.000 A 
ATOM     26  C   UNL     1       7.716   6.404  18.635  0.00  0.00    +0.000 A 
ATOM     27  C   UNL     1       6.864   5.470  19.235  0.00  0.00    +0.000 A 
ENDBRANCH  17  22
ENDBRANCH   2  16
TORSDOF 3
ENDMDL
MODEL 4
REMARK VINA RESULT:      -8.5      1.444      1.703
REMARK  Name = 
REMARK  5 active torsions:
REMARK  status: ('A' for Active; 'I' for Inactive)
REMARK    1  A    between atoms: C_1  and  C_2
REMARK    2  A    between atoms: C_6  and  N_7
REMARK    3  A    between atoms: C_8  and  C_10
REMARK    4  A    between atoms: C_11  and  C_12
REMARK    5  A    between atoms: C_20  and  C_21
REMARK                            x       y       z     vdW  Elec       q    Type
REMARK                         _______ _______ _______ _____ _____    ______ ____
ROOT
ATOM      1  N   UNL     1       2.161   6.742  20.764  0.00  0.00    +0.000 N 
ATOM      2  C   UNL     1       2.493   6.054  19.602  0.00  0.00    +0.000 C 
ATOM      3  O   UNL     1       2.275   6.443  18.464  0.00  0.00    +0.000 OA
ATOM      4  H   UNL     1       2.528   6.392  21.640  0.00  0.00    +0.000 HD
ENDROOT
BRANCH   1  10
ATOM      5  C   UNL     1      -1.871  12.665  22.872  0.00  0.00    +0.000 C 
ATOM      6  C   UNL     1      -1.035  11.574  22.316  0.00  0.00    +0.000 A 
ATOM      7  C   UNL     1      -0.563  10.425  22.908  0.00  0.00    +0.000 A 
ATOM      8  C   UNL     1       0.184   9.710  21.935  0.00  0.00    +0.000 A 
ATOM      9  C   UNL     1       0.876   8.485  21.956  0.00  0.00    +0.000 A 
ATOM     10  C   UNL     1       1.511   8.002  20.804  0.00  0.00    +0.000 A 
ATOM     11  C   UNL     1       1.492   8.785  19.645  0.00  0.00    +0.000 A 
ATOM     12  C   UNL     1       0.815  10.020  19.596  0.00  0.00    +0.000 A 
ATOM     13  C   UNL     1       0.161  10.449  20.758  0.00  0.00    +0.000 A 
ATOM     14  N   UNL     1      -0.584  11.579  21.014  0.00  0.00    +0.000 N 
ATOM     15  H   UNL     1      -0.778  12.305  20.338  0.00  0.00    +0.000 HD
ENDBRANCH   1  10
BRANCH   2  16
ATOM     16  C   UNL     1       3.206   4.807  19.794  0.00  0.00    +0.000 A 
ATOM     17  C   UNL     1       4.527   4.489  19.335  0.00  0.00    +0.000 A 
ATOM     18  N   UNL     1       4.798   3.195  19.574  0.00  0.00    +0.000 NA
ATOM     19  O   UNL     1       3.691   2.672  20.202  0.00  0.00    +0.000 OA
ATOM     20  C   UNL     1       2.740   3.632  20.341  0.00  0.00    +0.000 A 
ATOM     21  C   UNL     1       1.474   3.192  20.958  0.00  0.00    +0.000 C 
BRANCH  17  22
ATOM     22  C   UNL     1       5.528   5.367  18.714  0.00  0.00    +0.000 A 
ATOM     23  C   UNL     1       6.793   5.539  19.297  0.00  0.00    +0.000 A 
ATOM     24  C   UNL     1       7.747   6.375  18.710  0.00  0.00    +0.000 A 
ATOM     25  C   UNL     1       7.454   7.035  17.521  0.00  0.00    +0.000 A 
ATOM     26  C   UNL     1       6.208   6.864  16.920  0.00  0.00    +0.000 A 
ATOM     27  C   UNL     1       5.250   6.034  17.512  0.00  0.00    +0.000 A 
ENDBRANCH  17  22
ENDBRANCH   2  16
TORSDOF 3
ENDMDL
MODEL 5
REMARK VINA RESULT:      -8.3      1.060      1.578
REMARK  Name = 
REMARK  5 active torsions:
REMARK  status: ('A' for Active; 'I' for Inactive)
REMARK    1  A    between atoms: C_1  and  C_2
REMARK    2  A    between atoms: C_6  and  N_7
REMARK    3  A    between atoms: C_8  and  C_10
REMARK    4  A    between atoms: C_11  and  C_12
REMARK    5  A    between atoms: C_20  and  C_21
REMARK                            x       y       z     vdW  Elec       q    Type
REMARK                         _______ _______ _______ _____ _____    ______ ____
ROOT
ATOM      1  N   UNL     1       2.552   6.306  20.317  0.00  0.00    +0.000 N 
ATOM      2  C   UNL     1       2.240   5.125  19.652  0.00  0.00    +0.000 C 
ATOM      3  O   UNL     1       1.267   4.957  18.931  0.00  0.00    +0.000 OA
ATOM      4  H   UNL     1       3.460   6.372  20.759  0.00  0.00    +0.000 HD
ENDROOT
BRANCH   1  10
ATOM      5  C   UNL     1      -0.293  12.920  18.331  0.00  0.00    +0.000 C 
ATOM      6  C   UNL     1       0.159  11.605  18.847  0.00  0.00    +0.000 A 
ATOM      7  C   UNL     1       1.018  10.682  18.297  0.00  0.00    +0.000 A 
ATOM      8  C   UNL     1       1.123   9.593  19.202  0.00  0.00    +0.000 A 
ATOM      9  C   UNL     1       1.852   8.390  19.186  0.00  0.00    +0.000 A 
ATOM     10  C   UNL     1       1.782   7.497  20.263  0.00  0.00    +0.000 A 
ATOM     11  C   UNL     1       0.930   7.795  21.333  0.00  0.00    +0.000 A 
ATOM     12  C   UNL     1       0.182   8.988  21.373  0.00  0.00    +0.000 A 
ATOM     13  C   UNL     1       0.309   9.872  20.294  0.00  0.00    +0.000 A 
ATOM     14  N   UNL     1      -0.269  11.100  20.055  0.00  0.00    +0.000 N 
ATOM     15  H   UNL     1      -0.909  11.565  20.683  0.00  0.00    +0.000 HD
ENDBRANCH   1  10
BRANCH   2  16
ATOM     16  C   UNL     1       3.198   4.049  19.802  0.00  0.00    +0.000 A 
ATOM     17  C   UNL     1       4.316   3.764  18.951  0.00  0.00    +0.000 A 
ATOM     18  N   UNL     1       4.893   2.608  19.321  0.00  0.00    +0.000 NA
ATOM     19  O   UNL     1       4.188   2.149  20.409  0.00  0.00    +0.000 OA
ATOM     20  C   UNL     1       3.179   3.009  20.704  0.00  0.00    +0.000 A 
ATOM     21  C   UNL     1       2.308   2.610  21.827  0.00  0.00    +0.000 C 
BRANCH  17  22
ATOM     22  C   UNL     1       4.859   4.555  17.839  0.00  0.00    +0.000 A 
ATOM     23  C   UNL     1       5.420   5.822  18.064  0.00  0.00    +0.000 A 
ATOM     24  C   UNL     1       5.936   6.578  17.008  0.00  0.00    +0.000 A 
ATOM     25  C   UNL     1       5.913   6.069  15.713  0.00  0.00    +0.000 A 
ATOM     26  C   UNL     1       5.372   4.807  15.473  0.00  0.00    +0.000 A 
ATOM     27  C   UNL     1       4.849   4.053  16.529  0.00  0.00    +0.000 A 
ENDBRANCH  17  22
ENDBRANCH   2  16
TORSDOF 3
ENDMDL
MODEL 6
REMARK VINA RESULT:      -8.3      1.764      1.965
REMARK  Name = 
REMARK  5 active torsions:
REMARK  status: ('A' for Active; 'I' for Inactive)
REMARK    1  A    between atoms: C_1  and  C_2
REMARK    2  A    between atoms: C_6  and  N_7
REMARK    3  A    between atoms: C_8  and  C_10
REMARK    4  A    between atoms: C_11  and  C_12
REMARK    5  A    between atoms: C_20  and  C_21
REMARK                            x       y       z     vdW  Elec       q    Type
REMARK                         _______ _______ _______ _____ _____    ______ ____
ROOT
ATOM      1  N   UNL     1       2.415   6.890  18.581  0.00  0.00    +0.000 N 
ATOM      2  C   UNL     1       2.695   5.762  19.345  0.00  0.00    +0.000 C 
ATOM      3  O   UNL     1       2.499   5.658  20.548  0.00  0.00    +0.000 OA
ATOM      4  H   UNL     1       2.477   6.803  17.574  0.00  0.00    +0.000 HD
ENDROOT
BRANCH   1  10
ATOM      5  C   UNL     1      -1.014  11.974  22.843  0.00  0.00    +0.000 C 
ATOM      6  C   UNL     1      -0.301  11.089  21.892  0.00  0.00    +0.000 A 
ATOM      7  C   UNL     1       0.127   9.789  22.037  0.00  0.00    +0.000 A 
ATOM      8  C   UNL     1       0.748   9.398  20.821  0.00  0.00    +0.000 A 
ATOM      9  C   UNL     1       1.349   8.204  20.383  0.00  0.00    +0.000 A 
ATOM     10  C   UNL     1       1.863   8.096  19.084  0.00  0.00    +0.000 A 
ATOM     11  C   UNL     1       1.819   9.216  18.246  0.00  0.00    +0.000 A 
ATOM     12  C   UNL     1       1.231  10.428  18.660  0.00  0.00    +0.000 A 
ATOM     13  C   UNL     1       0.696  10.483  19.952  0.00  0.00    +0.000 A 
ATOM     14  N   UNL     1       0.054  11.499  20.625  0.00  0.00    +0.000 N 
ATOM     15  H   UNL     1      -0.134  12.414  20.240  0.00  0.00    +0.000 HD
ENDBRANCH   1  10
BRANCH   2  16
ATOM     16  C   UNL     1       3.203   4.620  18.614  0.00  0.00    +0.000 A 
ATOM     17  C   UNL     1       4.487   4.496  17.989  0.00  0.00    +0.000 A 
ATOM     18  N   UNL     1       4.549   3.353  17.286  0.00  0.00    +0.000 NA
ATOM     19  O   UNL     1       3.341   2.719  17.462  0.00  0.00    +0.000 OA
ATOM     20  C   UNL     1       2.536   3.468  18.259  0.00  0.00    +0.000 A 
ATOM     21  C   UNL     1       1.184   2.925  18.491  0.00  0.00    +0.000 C 
BRANCH  17  22
ATOM     22  C   UNL     1       5.643   5.400  18.062  0.00  0.00    +0.000 A 
ATOM     23  C   UNL     1       6.675   5.174  18.986  0.00  0.00    +0.000 A 
ATOM     24  C   UNL     1       7.775   6.033  19.059  0.00  0.00    +0.000 A 
ATOM     25  C   UNL     1       7.866   7.120  18.195  0.00  0.00    +0.000 A 
ATOM     26  C   UNL     1       6.857   7.352  17.262  0.00  0.00    +0.000 A 
ATOM     27  C   UNL     1       5.752   6.497  17.194  0.00  0.00    +0.000 A 
ENDBRANCH  17  22
ENDBRANCH   2  16
TORSDOF 3
ENDMDL
MODEL 7
REMARK VINA RESULT:      -8.3      2.085      4.008
REMARK  Name = 
REMARK  5 active torsions:
REMARK  status: ('A' for Active; 'I' for Inactive)
REMARK    1  A    between atoms: C_1  and  C_2
REMARK    2  A    between atoms: C_6  and  N_7
REMARK    3  A    between atoms: C_8  and  C_10
REMARK    4  A    between atoms: C_11  and  C_12
REMARK    5  A    between atoms: C_20  and  C_21
REMARK                            x       y       z     vdW  Elec       q    Type
REMARK                         _______ _______ _______ _____ _____    ______ ____
ROOT
ATOM      1  N   UNL     1       2.582   6.575  18.074  0.00  0.00    +0.000 N 
ATOM      2  C   UNL     1       3.912   6.433  17.690  0.00  0.00    +0.000 C 
ATOM      3  O   UNL     1       4.772   7.296  17.790  0.00  0.00    +0.000 OA
ATOM      4  H   UNL     1       2.004   5.745  18.084  0.00  0.00    +0.000 HD
ENDROOT
BRANCH   1  10
ATOM      5  C   UNL     1      -0.685  11.463  22.679  0.00  0.00    +0.000 C 
ATOM      6  C   UNL     1      -0.020  10.619  21.658  0.00  0.00    +0.000 A 
ATOM      7  C   UNL     1       0.483   9.341  21.751  0.00  0.00    +0.000 A 
ATOM      8  C   UNL     1       1.008   8.987  20.480  0.00  0.00    +0.000 A 
ATOM      9  C   UNL     1       1.624   7.826  19.978  0.00  0.00    +0.000 A 
ATOM     10  C   UNL     1       2.020   7.750  18.636  0.00  0.00    +0.000 A 
ATOM     11  C   UNL     1       1.844   8.870  17.816  0.00  0.00    +0.000 A 
ATOM     12  C   UNL     1       1.238  10.049  18.293  0.00  0.00    +0.000 A 
ATOM     13  C   UNL     1       0.822  10.071  19.630  0.00  0.00    +0.000 A 
ATOM     14  N   UNL     1       0.197  11.052  20.369  0.00  0.00    +0.000 N 
ATOM     15  H   UNL     1      -0.071  11.958  20.011  0.00  0.00    +0.000 HD
ENDBRANCH   1  10
BRANCH   2  16
ATOM     16  C   UNL     1       4.284   5.125  17.191  0.00  0.00    +0.000 A 
ATOM     17  C   UNL     1       3.916   3.854  17.742  0.00  0.00    +0.000 A 
ATOM     18  N   UNL     1       4.562   2.868  17.097  0.00  0.00    +0.000 NA
ATOM     19  O   UNL     1       5.323   3.470  16.122  0.00  0.00    +0.000 OA
ATOM     20  C   UNL     1       5.156   4.818  16.170  0.00  0.00    +0.000 A 
ATOM     21  C   UNL     1       5.958   5.595  15.206  0.00  0.00    +0.000 C 
BRANCH  17  22
ATOM     22  C   UNL     1       2.966   3.553  18.821  0.00  0.00    +0.000 A 
ATOM     23  C   UNL     1       1.642   3.188  18.532  0.00  0.00    +0.000 A 
ATOM     24  C   UNL     1       0.735   2.902  19.557  0.00  0.00    +0.000 A 
ATOM     25  C   UNL     1       1.147   2.960  20.885  0.00  0.00    +0.000 A 
ATOM     26  C   UNL     1       2.462   3.307  21.190  0.00  0.00    +0.000 A 
ATOM     27  C   UNL     1       3.367   3.601  20.164  0.00  0.00    +0.000 A 
ENDBRANCH  17  22
ENDBRANCH   2  16
TORSDOF 3
ENDMDL
MODEL 8
REMARK VINA RESULT:      -8.1      1.597      3.718
REMARK  Name = 
REMARK  5 active torsions:
REMARK  status: ('A' for Active; 'I' for Inactive)
REMARK    1  A    between atoms: C_1  and  C_2
REMARK    2  A    between atoms: C_6  and  N_7
REMARK    3  A    between atoms: C_8  and  C_10
REMARK    4  A    between atoms: C_11  and  C_12
REMARK    5  A    between atoms: C_20  and  C_21
REMARK                            x       y       z     vdW  Elec       q    Type
REMARK                         _______ _______ _______ _____ _____    ______ ____
ROOT
ATOM      1  N   UNL     1       2.983   6.996  19.209  0.00  0.00    +0.000 N 
ATOM      2  C   UNL     1       3.877   6.675  18.193  0.00  0.00    +0.000 C 
ATOM      3  O   UNL     1       3.996   7.283  17.139  0.00  0.00    +0.000 OA
ATOM      4  H   UNL     1       3.084   6.514  20.093  0.00  0.00    +0.000 HD
ENDROOT
BRANCH   1  10
ATOM      5  C   UNL     1      -2.002  12.232  21.079  0.00  0.00    +0.000 C 
ATOM      6  C   UNL     1      -1.017  11.257  20.555  0.00  0.00    +0.000 A 
ATOM      7  C   UNL     1      -0.211  10.361  21.221  0.00  0.00    +0.000 A 
ATOM      8  C   UNL     1       0.542   9.650  20.250  0.00  0.00    +0.000 A 
ATOM      9  C   UNL     1       1.499   8.622  20.333  0.00  0.00    +0.000 A 
ATOM     10  C   UNL     1       2.066   8.078  19.173  0.00  0.00    +0.000 A 
ATOM     11  C   UNL     1       1.706   8.612  17.931  0.00  0.00    +0.000 A 
ATOM     12  C   UNL     1       0.757   9.647  17.817  0.00  0.00    +0.000 A 
ATOM     13  C   UNL     1       0.186  10.138  18.998  0.00  0.00    +0.000 A 
ATOM     14  N   UNL     1      -0.762  11.115  19.208  0.00  0.00    +0.000 N 
ATOM     15  H   UNL     1      -1.212  11.647  18.476  0.00  0.00    +0.000 HD
ENDBRANCH   1  10
BRANCH   2  16
ATOM     16  C   UNL     1       4.763   5.562  18.465  0.00  0.00    +0.000 A 
ATOM     17  C   UNL     1       4.408   4.296  19.036  0.00  0.00    +0.000 A 
ATOM     18  N   UNL     1       5.514   3.569  19.269  0.00  0.00    +0.000 NA
ATOM     19  O   UNL     1       6.578   4.327  18.839  0.00  0.00    +0.000 OA
ATOM     20  C   UNL     1       6.135   5.515  18.351  0.00  0.00    +0.000 A 
ATOM     21  C   UNL     1       7.182   6.450  17.898  0.00  0.00    +0.000 C 
BRANCH  17  22
ATOM     22  C   UNL     1       3.074   3.756  19.334  0.00  0.00    +0.000 A 
ATOM     23  C   UNL     1       2.273   3.217  18.316  0.00  0.00    +0.000 A 
ATOM     24  C   UNL     1       1.003   2.705  18.596  0.00  0.00    +0.000 A 
ATOM     25  C   UNL     1       0.525   2.707  19.903  0.00  0.00    +0.000 A 
ATOM     26  C   UNL     1       1.314   3.225  20.929  0.00  0.00    +0.000 A 
ATOM     27  C   UNL     1       2.582   3.746  20.647  0.00  0.00    +0.000 A 
ENDBRANCH  17  22
ENDBRANCH   2  16
TORSDOF 3
ENDMDL
MODEL 9
REMARK VINA RESULT:      -8.1      1.355      1.663
REMARK  Name = 
REMARK  5 active torsions:
REMARK  status: ('A' for Active; 'I' for Inactive)
REMARK    1  A    between atoms: C_1  and  C_2
REMARK    2  A    between atoms: C_6  and  N_7
REMARK    3  A    between atoms: C_8  and  C_10
REMARK    4  A    between atoms: C_11  and  C_12
REMARK    5  A    between atoms: C_20  and  C_21
REMARK                            x       y       z     vdW  Elec       q    Type
REMARK                         _______ _______ _______ _____ _____    ______ ____
ROOT
ATOM      1  N   UNL     1       2.642   5.917  19.044  0.00  0.00    +0.000 N 
ATOM      2  C   UNL     1       2.066   4.943  18.235  0.00  0.00    +0.000 C 
ATOM      3  O   UNL     1       1.135   5.125  17.464  0.00  0.00    +0.000 OA
ATOM      4  H   UNL     1       3.502   5.682  19.524  0.00  0.00    +0.000 HD
ENDROOT
BRANCH   1  10
ATOM      5  C   UNL     1      -0.303  12.434  21.197  0.00  0.00    +0.000 C 
ATOM      6  C   UNL     1       0.337  11.220  20.635  0.00  0.00    +0.000 A 
ATOM      7  C   UNL     1       0.574   9.993  21.211  0.00  0.00    +0.000 A 
ATOM      8  C   UNL     1       1.206   9.172  20.239  0.00  0.00    +0.000 A 
ATOM      9  C   UNL     1       1.662   7.842  20.246  0.00  0.00    +0.000 A 
ATOM     10  C   UNL     1       2.231   7.274  19.099  0.00  0.00    +0.000 A 
ATOM     11  C   UNL     1       2.390   8.071  17.959  0.00  0.00    +0.000 A 
ATOM     12  C   UNL     1       1.950   9.409  17.925  0.00  0.00    +0.000 A 
ATOM     13  C   UNL     1       1.353   9.927  19.080  0.00  0.00    +0.000 A 
ATOM     14  N   UNL     1       0.818  11.169  19.345  0.00  0.00    +0.000 N 
ATOM     15  H   UNL     1       0.779  11.931  18.683  0.00  0.00    +0.000 HD
ENDBRANCH   1  10
BRANCH   2  16
ATOM     16  C   UNL     1       2.682   3.633  18.296  0.00  0.00    +0.000 A 
ATOM     17  C   UNL     1       3.997   3.276  17.850  0.00  0.00    +0.000 A 
ATOM     18  N   UNL     1       4.166   1.946  17.936  0.00  0.00    +0.000 NA
ATOM     19  O   UNL     1       2.998   1.434  18.450  0.00  0.00    +0.000 OA
ATOM     20  C   UNL     1       2.111   2.438  18.673  0.00  0.00    +0.000 A 
ATOM     21  C   UNL     1       0.790   2.021  19.182  0.00  0.00    +0.000 C 
BRANCH  17  22
ATOM     22  C   UNL     1       5.084   4.147  17.383  0.00  0.00    +0.000 A 
ATOM     23  C   UNL     1       5.145   4.564  16.044  0.00  0.00    +0.000 A 
ATOM     24  C   UNL     1       6.179   5.391  15.596  0.00  0.00    +0.000 A 
ATOM     25  C   UNL     1       7.156   5.826  16.486  0.00  0.00    +0.000 A 
ATOM     26  C   UNL     1       7.103   5.433  17.822  0.00  0.00    +0.000 A 
ATOM     27  C   UNL     1       6.073   4.599  18.269  0.00  0.00    +0.000 A 
ENDBRANCH  17  22
ENDBRANCH   2  16
TORSDOF 3
ENDMDL
