MODEL 1
REMARK VINA RESULT:      -9.0      0.000      0.000
REMARK  Name = 
REMARK  3 active torsions:
REMARK  status: ('A' for Active; 'I' for Inactive)
REMARK    1  A    between atoms: C_1  and  C_2
REMARK    2  A    between atoms: C_14  and  C_16
REMARK    3  A    between atoms: C_16  and  N_17
REMARK                            x       y       z     vdW  Elec       q    Type
REMARK                         _______ _______ _______ _____ _____    ______ ____
ROOT
ATOM      1  C   UNL     1       0.963   3.080  18.594  0.00  0.00    +0.000 C 
ATOM      2  C   UNL     1       2.475   3.325  18.690  0.00  0.00    +0.000 C 
ATOM      3  C   UNL     1       3.055   2.562  19.865  0.00  0.00    +0.000 C 
ATOM      4  C   UNL     1       4.551   2.403  19.833  0.00  0.00    +0.000 C 
ATOM      5  O   UNL     1       5.068   1.313  20.099  0.00  0.00    +0.000 OA
ATOM      6  N   UNL     1       5.386   3.462  19.632  0.00  0.00    +0.000 N 
ATOM      7  C   UNL     1       5.295   4.377  18.558  0.00  0.00    +0.000 A 
ATOM      8  C   UNL     1       6.502   4.642  17.895  0.00  0.00    +0.000 A 
ATOM      9  C   UNL     1       6.522   5.419  16.740  0.00  0.00    +0.000 A 
ATOM     10  C   UNL     1       5.342   5.981  16.262  0.00  0.00    +0.000 A 
ATOM     11  C   UNL     1       4.145   5.786  16.951  0.00  0.00    +0.000 A 
ATOM     12  C   UNL     1       4.117   4.995  18.108  0.00  0.00    +0.000 A 
ATOM     13  N   UNL     1       2.865   4.748  18.720  0.00  0.00    +0.000 N 
ATOM     14  C   UNL     1       2.252   5.675  19.560  0.00  0.00    +0.000 C 
ATOM     15  O   UNL     1       1.238   5.403  20.220  0.00  0.00    +0.000 OA
ATOM     16  H   UNL     1       6.334   3.161  19.834  0.00  0.00    +0.000 HD
ENDROOT
BRANCH  14  17
ATOM     17  C   UNL     1       2.848   7.087  19.737  0.00  0.00    +0.000 C 
BRANCH  17  18
ATOM     18  N   UNL     1       1.892   8.151  19.542  0.00  0.00    +0.000 N 
ATOM     19  C   UNL     1       1.738   8.870  18.375  0.00  0.00    +0.000 A 
ATOM     20  O   UNL     1       2.241   8.600  17.293  0.00  0.00    +0.000 OA
ATOM     21  O   UNL     1       0.913   9.985  18.570  0.00  0.00    +0.000 OA
ATOM     22  C   UNL     1       0.591   9.883  19.912  0.00  0.00    +0.000 A 
ATOM     23  C   UNL     1      -0.139  10.812  20.625  0.00  0.00    +0.000 A 
ATOM     24  C   UNL     1      -0.360  10.550  21.979  0.00  0.00    +0.000 A 
ATOM     25  C   UNL     1       0.119   9.365  22.569  0.00  0.00    +0.000 A 
ATOM     26  C   UNL     1       0.873   8.447  21.828  0.00  0.00    +0.000 A 
ATOM     27  C   UNL     1       1.119   8.757  20.509  0.00  0.00    +0.000 A 
ENDBRANCH  17  18
ENDBRANCH  14  17
TORSDOF 2
ENDMDL
MODEL 2
REMARK VINA RESULT:      -8.7      2.365      6.943
REMARK  Name = 
REMARK  3 active torsions:
REMARK  status: ('A' for Active; 'I' for Inactive)
REMARK    1  A    between atoms: C_1  and  C_2
REMARK    2  A    between atoms: C_14  and  C_16
REMARK    3  A    between atoms: C_16  and  N_17
REMARK                            x       y       z     vdW  Elec       q    Type
REMARK                         _______ _______ _______ _____ _____    ______ ____
ROOT
ATOM      1  C   UNL     1       2.436   8.285  17.257  0.00  0.00    +0.000 C 
ATOM      2  C   UNL     1       2.094   7.315  18.396  0.00  0.00    +0.000 C 
ATOM      3  C   UNL     1       2.130   8.039  19.727  0.00  0.00    +0.000 C 
ATOM      4  C   UNL     1       1.442   7.314  20.853  0.00  0.00    +0.000 C 
ATOM      5  O   UNL     1       0.696   7.926  21.625  0.00  0.00    +0.000 OA
ATOM      6  N   UNL     1       1.703   6.006  21.136  0.00  0.00    +0.000 N 
ATOM      7  C   UNL     1       1.651   4.946  20.203  0.00  0.00    +0.000 A 
ATOM      8  C   UNL     1       0.946   3.810  20.626  0.00  0.00    +0.000 A 
ATOM      9  C   UNL     1       0.707   2.754  19.751  0.00  0.00    +0.000 A 
ATOM     10  C   UNL     1       1.213   2.800  18.456  0.00  0.00    +0.000 A 
ATOM     11  C   UNL     1       1.978   3.891  18.042  0.00  0.00    +0.000 A 
ATOM     12  C   UNL     1       2.212   4.962  18.915  0.00  0.00    +0.000 A 
ATOM     13  N   UNL     1       2.912   6.088  18.422  0.00  0.00    +0.000 N 
ATOM     14  C   UNL     1       4.301   6.111  18.315  0.00  0.00    +0.000 C 
ATOM     15  O   UNL     1       4.927   7.144  18.034  0.00  0.00    +0.000 OA
ATOM     16  H   UNL     1       1.278   5.784  22.031  0.00  0.00    +0.000 HD
ENDROOT
BRANCH  14  17
ATOM     17  C   UNL     1       5.131   4.840  18.590  0.00  0.00    +0.000 C 
BRANCH  17  18
ATOM     18  N   UNL     1       6.130   4.568  17.584  0.00  0.00    +0.000 N 
ATOM     19  C   UNL     1       7.492   4.664  17.778  0.00  0.00    +0.000 A 
ATOM     20  O   UNL     1       8.057   4.806  18.853  0.00  0.00    +0.000 OA
ATOM     21  O   UNL     1       8.185   4.580  16.563  0.00  0.00    +0.000 OA
ATOM     22  C   UNL     1       7.159   4.428  15.647  0.00  0.00    +0.000 A 
ATOM     23  C   UNL     1       7.318   4.393  14.278  0.00  0.00    +0.000 A 
ATOM     24  C   UNL     1       6.165   4.244  13.502  0.00  0.00    +0.000 A 
ATOM     25  C   UNL     1       4.904   4.102  14.111  0.00  0.00    +0.000 A 
ATOM     26  C   UNL     1       4.767   4.160  15.503  0.00  0.00    +0.000 A 
ATOM     27  C   UNL     1       5.914   4.360  16.239  0.00  0.00    +0.000 A 
ENDBRANCH  17  18
ENDBRANCH  14  17
TORSDOF 2
ENDMDL
MODEL 3
REMARK VINA RESULT:      -7.7      1.525      2.138
REMARK  Name = 
REMARK  3 active torsions:
REMARK  status: ('A' for Active; 'I' for Inactive)
REMARK    1  A    between atoms: C_1  and  C_2
REMARK    2  A    between atoms: C_14  and  C_16
REMARK    3  A    between atoms: C_16  and  N_17
REMARK                            x       y       z     vdW  Elec       q    Type
REMARK                         _______ _______ _______ _____ _____    ______ ____
ROOT
ATOM      1  C   UNL     1       2.608   2.972  16.548  0.00  0.00    +0.000 C 
ATOM      2  C   UNL     1       3.674   3.486  17.524  0.00  0.00    +0.000 C 
ATOM      3  C   UNL     1       3.471   2.869  18.893  0.00  0.00    +0.000 C 
ATOM      4  C   UNL     1       4.656   2.980  19.814  0.00  0.00    +0.000 C 
ATOM      5  O   UNL     1       5.019   2.008  20.484  0.00  0.00    +0.000 OA
ATOM      6  N   UNL     1       5.290   4.167  20.035  0.00  0.00    +0.000 N 
ATOM      7  C   UNL     1       5.785   5.025  19.026  0.00  0.00    +0.000 A 
ATOM      8  C   UNL     1       7.094   5.486  19.222  0.00  0.00    +0.000 A 
ATOM      9  C   UNL     1       7.743   6.226  18.237  0.00  0.00    +0.000 A 
ATOM     10  C   UNL     1       7.072   6.555  17.063  0.00  0.00    +0.000 A 
ATOM     11  C   UNL     1       5.744   6.164  16.884  0.00  0.00    +0.000 A 
ATOM     12  C   UNL     1       5.091   5.410  17.867  0.00  0.00    +0.000 A 
ATOM     13  N   UNL     1       3.777   4.957  17.601  0.00  0.00    +0.000 N 
ATOM     14  C   UNL     1       2.662   5.779  17.751  0.00  0.00    +0.000 C 
ATOM     15  O   UNL     1       1.503   5.345  17.671  0.00  0.00    +0.000 OA
ATOM     16  H   UNL     1       5.926   4.046  20.817  0.00  0.00    +0.000 HD
ENDROOT
BRANCH  14  17
ATOM     17  C   UNL     1       2.830   7.279  18.069  0.00  0.00    +0.000 C 
BRANCH  17  18
ATOM     18  N   UNL     1       2.179   7.691  19.290  0.00  0.00    +0.000 N 
ATOM     19  C   UNL     1       2.071   6.918  20.427  0.00  0.00    +0.000 A 
ATOM     20  O   UNL     1       2.658   5.867  20.640  0.00  0.00    +0.000 OA
ATOM     21  O   UNL     1       1.182   7.489  21.347  0.00  0.00    +0.000 OA
ATOM     22  C   UNL     1       0.774   8.637  20.690  0.00  0.00    +0.000 A 
ATOM     23  C   UNL     1      -0.189   9.512  21.147  0.00  0.00    +0.000 A 
ATOM     24  C   UNL     1      -0.483  10.618  20.346  0.00  0.00    +0.000 A 
ATOM     25  C   UNL     1       0.211  10.835  19.140  0.00  0.00    +0.000 A 
ATOM     26  C   UNL     1       1.171   9.921  18.688  0.00  0.00    +0.000 A 
ATOM     27  C   UNL     1       1.402   8.814  19.474  0.00  0.00    +0.000 A 
ENDBRANCH  17  18
ENDBRANCH  14  17
TORSDOF 2
ENDMDL
MODEL 4
REMARK VINA RESULT:      -7.4      2.023      3.876
REMARK  Name = 
REMARK  3 active torsions:
REMARK  status: ('A' for Active; 'I' for Inactive)
REMARK    1  A    between atoms: C_1  and  C_2
REMARK    2  A    between atoms: C_14  and  C_16
REMARK    3  A    between atoms: C_16  and  N_17
REMARK                            x       y       z     vdW  Elec       q    Type
REMARK                         _______ _______ _______ _____ _____    ______ ____
ROOT
ATOM      1  C   UNL     1       6.957   6.973  17.715  0.00  0.00    +0.000 C 
ATOM      2  C   UNL     1       6.141   5.729  17.339  0.00  0.00    +0.000 C 
ATOM      3  C   UNL     1       6.141   5.538  15.836  0.00  0.00    +0.000 C 
ATOM      4  C   UNL     1       5.721   4.168  15.377  0.00  0.00    +0.000 C 
ATOM      5  O   UNL     1       6.355   3.585  14.492  0.00  0.00    +0.000 OA
ATOM      6  N   UNL     1       4.577   3.576  15.825  0.00  0.00    +0.000 N 
ATOM      7  C   UNL     1       4.224   3.410  17.184  0.00  0.00    +0.000 A 
ATOM      8  C   UNL     1       3.783   2.126  17.534  0.00  0.00    +0.000 A 
ATOM      9  C   UNL     1       3.536   1.798  18.865  0.00  0.00    +0.000 A 
ATOM     10  C   UNL     1       3.681   2.764  19.855  0.00  0.00    +0.000 A 
ATOM     11  C   UNL     1       4.049   4.066  19.513  0.00  0.00    +0.000 A 
ATOM     12  C   UNL     1       4.310   4.399  18.177  0.00  0.00    +0.000 A 
ATOM     13  N   UNL     1       4.772   5.705  17.890  0.00  0.00    +0.000 N 
ATOM     14  C   UNL     1       3.909   6.796  17.802  0.00  0.00    +0.000 C 
ATOM     15  O   UNL     1       4.285   7.906  17.398  0.00  0.00    +0.000 OA
ATOM     16  H   UNL     1       4.399   2.756  15.253  0.00  0.00    +0.000 HD
ENDROOT
BRANCH  14  17
ATOM     17  C   UNL     1       2.418   6.649  18.169  0.00  0.00    +0.000 C 
BRANCH  17  18
ATOM     18  N   UNL     1       2.011   7.464  19.288  0.00  0.00    +0.000 N 
ATOM     19  C   UNL     1       1.756   6.990  20.558  0.00  0.00    +0.000 A 
ATOM     20  O   UNL     1       2.012   5.868  20.972  0.00  0.00    +0.000 OA
ATOM     21  O   UNL     1       1.148   7.971  21.354  0.00  0.00    +0.000 OA
ATOM     22  C   UNL     1       1.060   9.044  20.484  0.00  0.00    +0.000 A 
ATOM     23  C   UNL     1       0.441  10.244  20.767  0.00  0.00    +0.000 A 
ATOM     24  C   UNL     1       0.439  11.215  19.763  0.00  0.00    +0.000 A 
ATOM     25  C   UNL     1       1.077  10.976  18.530  0.00  0.00    +0.000 A 
ATOM     26  C   UNL     1       1.682   9.743  18.262  0.00  0.00    +0.000 A 
ATOM     27  C   UNL     1       1.624   8.786  19.252  0.00  0.00    +0.000 A 
ENDBRANCH  17  18
ENDBRANCH  14  17
TORSDOF 2
ENDMDL
MODEL 5
REMARK VINA RESULT:      -7.2      5.147      7.921
REMARK  Name = 
REMARK  3 active torsions:
REMARK  status: ('A' for Active; 'I' for Inactive)
REMARK    1  A    between atoms: C_1  and  C_2
REMARK    2  A    between atoms: C_14  and  C_16
REMARK    3  A    between atoms: C_16  and  N_17
REMARK                            x       y       z     vdW  Elec       q    Type
REMARK                         _______ _______ _______ _____ _____    ______ ____
ROOT
ATOM      1  C   UNL     1       1.458   8.942  18.783  0.00  0.00    +0.000 C 
ATOM      2  C   UNL     1       0.974  10.061  19.716  0.00  0.00    +0.000 C 
ATOM      3  C   UNL     1       0.241   9.470  20.904  0.00  0.00    +0.000 C 
ATOM      4  C   UNL     1       0.067  10.412  22.065  0.00  0.00    +0.000 C 
ATOM      5  O   UNL     1       0.280  10.025  23.219  0.00  0.00    +0.000 OA
ATOM      6  N   UNL     1      -0.437  11.669  21.907  0.00  0.00    +0.000 N 
ATOM      7  C   UNL     1       0.045  12.629  20.987  0.00  0.00    +0.000 A 
ATOM      8  C   UNL     1       0.255  13.910  21.516  0.00  0.00    +0.000 A 
ATOM      9  C   UNL     1       0.853  14.907  20.750  0.00  0.00    +0.000 A 
ATOM     10  C   UNL     1       1.204  14.647  19.429  0.00  0.00    +0.000 A 
ATOM     11  C   UNL     1       0.936  13.399  18.866  0.00  0.00    +0.000 A 
ATOM     12  C   UNL     1       0.345  12.389  19.637  0.00  0.00    +0.000 A 
ATOM     13  N   UNL     1       0.178  11.111  19.052  0.00  0.00    +0.000 N 
ATOM     14  C   UNL     1      -0.878  10.820  18.191  0.00  0.00    +0.000 C 
ATOM     15  O   UNL     1      -1.117   9.666  17.803  0.00  0.00    +0.000 OA
ATOM     16  H   UNL     1      -0.637  12.048  22.827  0.00  0.00    +0.000 HD
ENDROOT
BRANCH  14  17
ATOM     17  C   UNL     1      -1.833  11.933  17.714  0.00  0.00    +0.000 C 
BRANCH  17  18
ATOM     18  N   UNL     1      -3.227  11.645  17.950  0.00  0.00    +0.000 N 
ATOM     19  C   UNL     1      -4.106  11.167  17.001  0.00  0.00    +0.000 A 
ATOM     20  O   UNL     1      -3.807  10.743  15.893  0.00  0.00    +0.000 OA
ATOM     21  O   UNL     1      -5.429  11.222  17.459  0.00  0.00    +0.000 OA
ATOM     22  C   UNL     1      -5.280  11.757  18.727  0.00  0.00    +0.000 A 
ATOM     23  C   UNL     1      -6.317  12.101  19.569  0.00  0.00    +0.000 A 
ATOM     24  C   UNL     1      -5.981  12.641  20.813  0.00  0.00    +0.000 A 
ATOM     25  C   UNL     1      -4.632  12.789  21.190  0.00  0.00    +0.000 A 
ATOM     26  C   UNL     1      -3.598  12.450  20.310  0.00  0.00    +0.000 A 
ATOM     27  C   UNL     1      -3.960  11.968  19.071  0.00  0.00    +0.000 A 
ENDBRANCH  17  18
ENDBRANCH  14  17
TORSDOF 2
ENDMDL
MODEL 6
REMARK VINA RESULT:      -7.0      5.562     10.967
REMARK  Name = 
REMARK  3 active torsions:
REMARK  status: ('A' for Active; 'I' for Inactive)
REMARK    1  A    between atoms: C_1  and  C_2
REMARK    2  A    between atoms: C_14  and  C_16
REMARK    3  A    between atoms: C_16  and  N_17
REMARK                            x       y       z     vdW  Elec       q    Type
REMARK                         _______ _______ _______ _____ _____    ______ ____
ROOT
ATOM      1  C   UNL     1      -0.933  15.817  21.677  0.00  0.00    +0.000 C 
ATOM      2  C   UNL     1      -2.154  15.333  22.471  0.00  0.00    +0.000 C 
ATOM      3  C   UNL     1      -2.113  15.887  23.881  0.00  0.00    +0.000 C 
ATOM      4  C   UNL     1      -3.421  15.814  24.622  0.00  0.00    +0.000 C 
ATOM      5  O   UNL     1      -3.821  16.782  25.276  0.00  0.00    +0.000 OA
ATOM      6  N   UNL     1      -4.144  14.661  24.698  0.00  0.00    +0.000 N 
ATOM      7  C   UNL     1      -4.537  13.872  23.593  0.00  0.00    +0.000 A 
ATOM      8  C   UNL     1      -5.885  13.484  23.584  0.00  0.00    +0.000 A 
ATOM      9  C   UNL     1      -6.426  12.822  22.485  0.00  0.00    +0.000 A 
ATOM     10  C   UNL     1      -5.615  12.496  21.403  0.00  0.00    +0.000 A 
ATOM     11  C   UNL     1      -4.256  12.811  21.429  0.00  0.00    +0.000 A 
ATOM     12  C   UNL     1      -3.708  13.488  22.526  0.00  0.00    +0.000 A 
ATOM     13  N   UNL     1      -2.347  13.870  22.467  0.00  0.00    +0.000 N 
ATOM     14  C   UNL     1      -1.312  12.976  22.734  0.00  0.00    +0.000 C 
ATOM     15  O   UNL     1      -0.131  13.342  22.837  0.00  0.00    +0.000 OA
ATOM     16  H   UNL     1      -4.877  14.791  25.388  0.00  0.00    +0.000 HD
ENDROOT
BRANCH  14  17
ATOM     17  C   UNL     1      -1.606  11.479  22.959  0.00  0.00    +0.000 C 
BRANCH  17  18
ATOM     18  N   UNL     1      -0.739  10.597  22.214  0.00  0.00    +0.000 N 
ATOM     19  C   UNL     1       0.257   9.818  22.766  0.00  0.00    +0.000 A 
ATOM     20  O   UNL     1       0.431   9.613  23.959  0.00  0.00    +0.000 OA
ATOM     21  O   UNL     1       1.078   9.266  21.774  0.00  0.00    +0.000 OA
ATOM     22  C   UNL     1       0.512   9.762  20.612  0.00  0.00    +0.000 A 
ATOM     23  C   UNL     1       1.021   9.580  19.343  0.00  0.00    +0.000 A 
ATOM     24  C   UNL     1       0.322  10.163  18.283  0.00  0.00    +0.000 A 
ATOM     25  C   UNL     1      -0.871  10.875  18.515  0.00  0.00    +0.000 A 
ATOM     26  C   UNL     1      -1.355  11.062  19.815  0.00  0.00    +0.000 A 
ATOM     27  C   UNL     1      -0.617  10.519  20.844  0.00  0.00    +0.000 A 
ENDBRANCH  17  18
ENDBRANCH  14  17
TORSDOF 2
ENDMDL
MODEL 7
REMARK VINA RESULT:      -7.0      1.413      2.155
REMARK  Name = 
REMARK  3 active torsions:
REMARK  status: ('A' for Active; 'I' for Inactive)
REMARK    1  A    between atoms: C_1  and  C_2
REMARK    2  A    between atoms: C_14  and  C_16
REMARK    3  A    between atoms: C_16  and  N_17
REMARK                            x       y       z     vdW  Elec       q    Type
REMARK                         _______ _______ _______ _____ _____    ______ ____
ROOT
ATOM      1  C   UNL     1       0.735   3.523  19.056  0.00  0.00    +0.000 C 
ATOM      2  C   UNL     1       2.246   3.793  19.042  0.00  0.00    +0.000 C 
ATOM      3  C   UNL     1       2.931   2.986  20.126  0.00  0.00    +0.000 C 
ATOM      4  C   UNL     1       4.422   2.859  19.966  0.00  0.00    +0.000 C 
ATOM      5  O   UNL     1       4.977   1.768  20.134  0.00  0.00    +0.000 OA
ATOM      6  N   UNL     1       5.220   3.944  19.752  0.00  0.00    +0.000 N 
ATOM      7  C   UNL     1       5.028   4.909  18.737  0.00  0.00    +0.000 A 
ATOM      8  C   UNL     1       6.172   5.230  17.993  0.00  0.00    +0.000 A 
ATOM      9  C   UNL     1       6.085   6.063  16.880  0.00  0.00    +0.000 A 
ATOM     10  C   UNL     1       4.862   6.623  16.527  0.00  0.00    +0.000 A 
ATOM     11  C   UNL     1       3.728   6.370  17.301  0.00  0.00    +0.000 A 
ATOM     12  C   UNL     1       3.807   5.523  18.414  0.00  0.00    +0.000 A 
ATOM     13  N   UNL     1       2.614   5.221  19.112  0.00  0.00    +0.000 N 
ATOM     14  C   UNL     1       2.056   6.093  20.044  0.00  0.00    +0.000 C 
ATOM     15  O   UNL     1       1.104   5.768  20.769  0.00  0.00    +0.000 OA
ATOM     16  H   UNL     1       6.187   3.653  19.861  0.00  0.00    +0.000 HD
ENDROOT
BRANCH  14  17
ATOM     17  C   UNL     1       2.640   7.507  20.244  0.00  0.00    +0.000 C 
BRANCH  17  18
ATOM     18  N   UNL     1       1.639   8.531  20.421  0.00  0.00    +0.000 N 
ATOM     19  C   UNL     1       1.163   8.968  21.640  0.00  0.00    +0.000 A 
ATOM     20  O   UNL     1       1.637   8.700  22.735  0.00  0.00    +0.000 OA
ATOM     21  O   UNL     1       0.034   9.783  21.482  0.00  0.00    +0.000 OA
ATOM     22  C   UNL     1      -0.127   9.801  20.107  0.00  0.00    +0.000 A 
ATOM     23  C   UNL     1      -1.174  10.402  19.440  0.00  0.00    +0.000 A 
ATOM     24  C   UNL     1      -1.182  10.312  18.046  0.00  0.00    +0.000 A 
ATOM     25  C   UNL     1      -0.136   9.661  17.363  0.00  0.00    +0.000 A 
ATOM     26  C   UNL     1       0.905   9.043  18.065  0.00  0.00    +0.000 A 
ATOM     27  C   UNL     1       0.859   9.104  19.440  0.00  0.00    +0.000 A 
ENDBRANCH  17  18
ENDBRANCH  14  17
TORSDOF 2
ENDMDL
MODEL 8
REMARK VINA RESULT:      -7.0      2.350      7.436
REMARK  Name = 
REMARK  3 active torsions:
REMARK  status: ('A' for Active; 'I' for Inactive)
REMARK    1  A    between atoms: C_1  and  C_2
REMARK    2  A    between atoms: C_14  and  C_16
REMARK    3  A    between atoms: C_16  and  N_17
REMARK                            x       y       z     vdW  Elec       q    Type
REMARK                         _______ _______ _______ _____ _____    ______ ____
ROOT
ATOM      1  C   UNL     1      -1.542   9.768  17.106  0.00  0.00    +0.000 C 
ATOM      2  C   UNL     1      -1.065  10.401  18.420  0.00  0.00    +0.000 C 
ATOM      3  C   UNL     1      -0.615  11.828  18.180  0.00  0.00    +0.000 C 
ATOM      4  C   UNL     1      -0.502  12.667  19.424  0.00  0.00    +0.000 C 
ATOM      5  O   UNL     1      -0.944  13.821  19.441  0.00  0.00    +0.000 OA
ATOM      6  N   UNL     1       0.186  12.242  20.522  0.00  0.00    +0.000 N 
ATOM      7  C   UNL     1      -0.011  11.004  21.177  0.00  0.00    +0.000 A 
ATOM      8  C   UNL     1      -0.127  11.078  22.572  0.00  0.00    +0.000 A 
ATOM      9  C   UNL     1      -0.457   9.949  23.318  0.00  0.00    +0.000 A 
ATOM     10  C   UNL     1      -0.626   8.724  22.682  0.00  0.00    +0.000 A 
ATOM     11  C   UNL     1      -0.443   8.620  21.303  0.00  0.00    +0.000 A 
ATOM     12  C   UNL     1      -0.123   9.755  20.545  0.00  0.00    +0.000 A 
ATOM     13  N   UNL     1      -0.040   9.620  19.139  0.00  0.00    +0.000 N 
ATOM     14  C   UNL     1       1.090   9.105  18.507  0.00  0.00    +0.000 C 
ATOM     15  O   UNL     1       1.229   9.131  17.275  0.00  0.00    +0.000 OA
ATOM     16  H   UNL     1       0.288  13.028  21.156  0.00  0.00    +0.000 HD
ENDROOT
BRANCH  14  17
ATOM     17  C   UNL     1       2.249   8.511  19.333  0.00  0.00    +0.000 C 
BRANCH  17  18
ATOM     18  N   UNL     1       2.659   7.196  18.899  0.00  0.00    +0.000 N 
ATOM     19  C   UNL     1       3.444   6.939  17.795  0.00  0.00    +0.000 A 
ATOM     20  O   UNL     1       4.056   7.770  17.138  0.00  0.00    +0.000 OA
ATOM     21  O   UNL     1       3.465   5.571  17.494  0.00  0.00    +0.000 OA
ATOM     22  C   UNL     1       2.652   5.039  18.480  0.00  0.00    +0.000 A 
ATOM     23  C   UNL     1       2.273   3.716  18.566  0.00  0.00    +0.000 A 
ATOM     24  C   UNL     1       1.436   3.357  19.626  0.00  0.00    +0.000 A 
ATOM     25  C   UNL     1       1.034   4.312  20.578  0.00  0.00    +0.000 A 
ATOM     26  C   UNL     1       1.417   5.653  20.457  0.00  0.00    +0.000 A 
ATOM     27  C   UNL     1       2.200   5.988  19.374  0.00  0.00    +0.000 A 
ENDBRANCH  17  18
ENDBRANCH  14  17
TORSDOF 2
ENDMDL
MODEL 9
REMARK VINA RESULT:      -7.0      5.495      8.306
REMARK  Name = 
REMARK  3 active torsions:
REMARK  status: ('A' for Active; 'I' for Inactive)
REMARK    1  A    between atoms: C_1  and  C_2
REMARK    2  A    between atoms: C_14  and  C_16
REMARK    3  A    between atoms: C_16  and  N_17
REMARK                            x       y       z     vdW  Elec       q    Type
REMARK                         _______ _______ _______ _____ _____    ______ ____
ROOT
ATOM      1  C   UNL     1       1.065  14.702  21.685  0.00  0.00    +0.000 C 
ATOM      2  C   UNL     1       1.128  13.368  20.929  0.00  0.00    +0.000 C 
ATOM      3  C   UNL     1       1.431  13.611  19.464  0.00  0.00    +0.000 C 
ATOM      4  C   UNL     1       1.901  12.395  18.711  0.00  0.00    +0.000 C 
ATOM      5  O   UNL     1       2.861  12.474  17.938  0.00  0.00    +0.000 OA
ATOM      6  N   UNL     1       1.227  11.211  18.758  0.00  0.00    +0.000 N 
ATOM      7  C   UNL     1       0.850  10.536  19.941  0.00  0.00    +0.000 A 
ATOM      8  C   UNL     1       1.149   9.166  19.969  0.00  0.00    +0.000 A 
ATOM      9  C   UNL     1       0.952   8.419  21.127  0.00  0.00    +0.000 A 
ATOM     10  C   UNL     1       0.407   9.022  22.256  0.00  0.00    +0.000 A 
ATOM     11  C   UNL     1       0.037  10.367  22.221  0.00  0.00    +0.000 A 
ATOM     12  C   UNL     1       0.244  11.127  21.062  0.00  0.00    +0.000 A 
ATOM     13  N   UNL     1      -0.058  12.508  21.104  0.00  0.00    +0.000 N 
ATOM     14  C   UNL     1      -1.359  12.988  20.966  0.00  0.00    +0.000 C 
ATOM     15  O   UNL     1      -1.609  14.197  20.845  0.00  0.00    +0.000 OA
ATOM     16  H   UNL     1       1.608  10.601  18.042  0.00  0.00    +0.000 HD
ENDROOT
BRANCH  14  17
ATOM     17  C   UNL     1      -2.554  12.015  20.915  0.00  0.00    +0.000 C 
BRANCH  17  18
ATOM     18  N   UNL     1      -3.359  12.143  19.724  0.00  0.00    +0.000 N 
ATOM     19  C   UNL     1      -4.597  12.749  19.669  0.00  0.00    +0.000 A 
ATOM     20  O   UNL     1      -5.108  13.422  20.552  0.00  0.00    +0.000 OA
ATOM     21  O   UNL     1      -5.230  12.500  18.444  0.00  0.00    +0.000 OA
ATOM     22  C   UNL     1      -4.300  11.717  17.783  0.00  0.00    +0.000 A 
ATOM     23  C   UNL     1      -4.492  11.126  16.553  0.00  0.00    +0.000 A 
ATOM     24  C   UNL     1      -3.444  10.357  16.040  0.00  0.00    +0.000 A 
ATOM     25  C   UNL     1      -2.234  10.230  16.748  0.00  0.00    +0.000 A 
ATOM     26  C   UNL     1      -2.071  10.825  18.005  0.00  0.00    +0.000 A 
ATOM     27  C   UNL     1      -3.139  11.534  18.508  0.00  0.00    +0.000 A 
ENDBRANCH  17  18
ENDBRANCH  14  17
TORSDOF 2
ENDMDL
