MODEL 1
REMARK VINA RESULT:      -8.7      0.000      0.000
REMARK  Name = 
REMARK  8 active torsions:
REMARK  status: ('A' for Active; 'I' for Inactive)
REMARK    1  A    between atoms: C_1  and  N_2
REMARK    2  A    between atoms: C_6  and  C_7
REMARK    3  A    between atoms: C_7  and  N_8
REMARK    4  A    between atoms: C_7  and  C_9
REMARK    5  A    between atoms: C_9  and  C_10
REMARK    6  A    between atoms: C_14  and  N_15
REMARK    7  A    between atoms: C_20  and  N_21
REMARK    8  A    between atoms: C_23  and  C_24
REMARK                            x       y       z     vdW  Elec       q    Type
REMARK                         _______ _______ _______ _____ _____    ______ ____
ROOT
ATOM      1  C   UNL     1       1.850   7.406  20.003  0.00  0.00    +0.000 A 
ATOM      2  C   UNL     1       2.354   8.265  19.017  0.00  0.00    +0.000 A 
ATOM      3  C   UNL     1       3.003   7.766  17.894  0.00  0.00    +0.000 A 
ATOM      4  C   UNL     1       3.304   6.415  17.820  0.00  0.00    +0.000 A 
ATOM      5  C   UNL     1       3.062   5.598  18.934  0.00  0.00    +0.000 A 
ATOM      6  C   UNL     1       2.193   6.050  19.938  0.00  0.00    +0.000 A 
ENDROOT
BRANCH   5   7
ATOM      7  N   UNL     1       4.041   4.582  19.290  0.00  0.00    +0.000 N 
ATOM      8  C   UNL     1       5.397   5.185  19.376  0.00  0.00    +0.000 C 
ATOM      9  C   UNL     1       5.919   4.988  17.985  0.00  0.00    +0.000 A 
ATOM     10  C   UNL     1       5.273   3.867  17.456  0.00  0.00    +0.000 A 
ATOM     11  C   UNL     1       5.378   3.495  16.124  0.00  0.00    +0.000 A 
ATOM     12  C   UNL     1       6.175   4.271  15.291  0.00  0.00    +0.000 A 
ATOM     13  C   UNL     1       6.789   5.434  15.809  0.00  0.00    +0.000 A 
ATOM     14  C   UNL     1       6.682   5.810  17.166  0.00  0.00    +0.000 A 
ATOM     15  C   UNL     1       4.173   3.507  18.375  0.00  0.00    +0.000 C 
ATOM     16  O   UNL     1       3.430   2.554  18.203  0.00  0.00    +0.000 OA
BRANCH  14  17
ATOM     17  C   UNL     1       7.262   7.129  17.604  0.00  0.00    +0.000 C 
ATOM     18  F   UNL     1       8.123   7.689  16.711  0.00  0.00    +0.000 F 
ATOM     19  F   UNL     1       6.301   8.069  17.820  0.00  0.00    +0.000 F 
ATOM     20  F   UNL     1       7.957   7.035  18.773  0.00  0.00    +0.000 F 
ENDBRANCH  14  17
BRANCH  12  21
ATOM     21  N   UNL     1       6.121   4.084  13.905  0.00  0.00    +0.000 N 
ATOM     22  H   UNL     1       5.246   3.692  13.568  0.00  0.00    +0.000 HD
ATOM     23  H   UNL     1       6.930   3.630  13.499  0.00  0.00    +0.000 HD
ENDBRANCH  12  21
ENDBRANCH   5   7
BRANCH   1  24
ATOM     24  C   UNL     1       1.067   7.948  21.182  0.00  0.00    +0.000 C 
BRANCH  24  25
ATOM     25  C   UNL     1       1.459   9.354  21.704  0.00  0.00    +0.000 C 
BRANCH  25  31
ATOM     26  C   UNL     1      -0.130  11.251  19.751  0.00  0.00    +0.000 C 
ATOM     27  N   UNL     1      -0.398  11.035  21.147  0.00  0.00    +0.000 N 
ATOM     28  C   UNL     1      -1.407  11.611  21.857  0.00  0.00    +0.000 A 
ATOM     29  N   UNL     1      -1.360  11.202  23.100  0.00  0.00    +0.000 NA
ATOM     30  N   UNL     1      -0.287  10.355  23.216  0.00  0.00    +0.000 NA
ATOM     31  C   UNL     1       0.284  10.233  22.029  0.00  0.00    +0.000 A 
ENDBRANCH  25  31
BRANCH  25  32
ATOM     32  N   UNL     1       2.342   9.233  22.878  0.00  0.00    +0.000 NA
ATOM     33  H   UNL     1       1.748   8.929  23.659  0.00  0.00    +0.000 HD
ATOM     34  H   UNL     1       2.621  10.175  23.158  0.00  0.00    +0.000 HD
ENDBRANCH  25  32
ENDBRANCH  24  25
ENDBRANCH   1  24
TORSDOF 7
ENDMDL
MODEL 2
REMARK VINA RESULT:      -8.5      3.681      7.824
REMARK  Name = 
REMARK  8 active torsions:
REMARK  status: ('A' for Active; 'I' for Inactive)
REMARK    1  A    between atoms: C_1  and  N_2
REMARK    2  A    between atoms: C_6  and  C_7
REMARK    3  A    between atoms: C_7  and  N_8
REMARK    4  A    between atoms: C_7  and  C_9
REMARK    5  A    between atoms: C_9  and  C_10
REMARK    6  A    between atoms: C_14  and  N_15
REMARK    7  A    between atoms: C_20  and  N_21
REMARK    8  A    between atoms: C_23  and  C_24
REMARK                            x       y       z     vdW  Elec       q    Type
REMARK                         _______ _______ _______ _____ _____    ______ ____
ROOT
ATOM      1  C   UNL     1       1.964   3.723  18.537  0.00  0.00    +0.000 A 
ATOM      2  C   UNL     1       1.599   3.316  19.826  0.00  0.00    +0.000 A 
ATOM      3  C   UNL     1       1.141   4.232  20.765  0.00  0.00    +0.000 A 
ATOM      4  C   UNL     1       1.197   5.588  20.484  0.00  0.00    +0.000 A 
ATOM      5  C   UNL     1       1.831   6.018  19.310  0.00  0.00    +0.000 A 
ATOM      6  C   UNL     1       2.053   5.096  18.277  0.00  0.00    +0.000 A 
ENDROOT
BRANCH   5   7
ATOM      7  N   UNL     1       2.674   7.202  19.356  0.00  0.00    +0.000 N 
ATOM      8  C   UNL     1       2.341   8.023  20.551  0.00  0.00    +0.000 C 
ATOM      9  C   UNL     1       1.307   8.962  20.010  0.00  0.00    +0.000 A 
ATOM     10  C   UNL     1       1.554   9.108  18.643  0.00  0.00    +0.000 A 
ATOM     11  C   UNL     1       0.685   9.765  17.784  0.00  0.00    +0.000 A 
ATOM     12  C   UNL     1      -0.474  10.311  18.324  0.00  0.00    +0.000 A 
ATOM     13  C   UNL     1      -0.754  10.122  19.696  0.00  0.00    +0.000 A 
ATOM     14  C   UNL     1       0.133   9.454  20.568  0.00  0.00    +0.000 A 
ATOM     15  C   UNL     1       2.552   8.088  18.256  0.00  0.00    +0.000 C 
ATOM     16  O   UNL     1       2.996   7.969  17.126  0.00  0.00    +0.000 OA
BRANCH  14  17
ATOM     17  C   UNL     1      -0.301   9.188  21.984  0.00  0.00    +0.000 C 
ATOM     18  F   UNL     1      -1.143  10.126  22.500  0.00  0.00    +0.000 F 
ATOM     19  F   UNL     1      -0.960   8.002  22.108  0.00  0.00    +0.000 F 
ATOM     20  F   UNL     1       0.748   9.121  22.852  0.00  0.00    +0.000 F 
ENDBRANCH  14  17
BRANCH  12  21
ATOM     21  N   UNL     1      -1.489  10.766  17.473  0.00  0.00    +0.000 N 
ATOM     22  H   UNL     1      -2.184  11.353  17.924  0.00  0.00    +0.000 HD
ATOM     23  H   UNL     1      -1.906  10.056  16.882  0.00  0.00    +0.000 HD
ENDBRANCH  12  21
ENDBRANCH   5   7
BRANCH   1  24
ATOM     24  C   UNL     1       2.380   2.711  17.489  0.00  0.00    +0.000 C 
BRANCH  24  25
ATOM     25  C   UNL     1       3.849   2.217  17.528  0.00  0.00    +0.000 C 
BRANCH  25  31
ATOM     26  C   UNL     1       5.306   4.428  15.817  0.00  0.00    +0.000 C 
ATOM     27  N   UNL     1       5.431   4.216  17.233  0.00  0.00    +0.000 N 
ATOM     28  C   UNL     1       6.198   4.959  18.079  0.00  0.00    +0.000 A 
ATOM     29  N   UNL     1       6.086   4.493  19.297  0.00  0.00    +0.000 NA
ATOM     30  N   UNL     1       5.246   3.409  19.250  0.00  0.00    +0.000 NA
ATOM     31  C   UNL     1       4.828   3.254  18.005  0.00  0.00    +0.000 A 
ENDBRANCH  25  31
BRANCH  25  32
ATOM     32  N   UNL     1       3.957   1.001  18.353  0.00  0.00    +0.000 NA
ATOM     33  H   UNL     1       4.024   0.211  17.700  0.00  0.00    +0.000 HD
ATOM     34  H   UNL     1       3.053   0.848  18.804  0.00  0.00    +0.000 HD
ENDBRANCH  25  32
ENDBRANCH  24  25
ENDBRANCH   1  24
TORSDOF 7
ENDMDL
MODEL 3
REMARK VINA RESULT:      -8.3      0.904      1.429
REMARK  Name = 
REMARK  8 active torsions:
REMARK  status: ('A' for Active; 'I' for Inactive)
REMARK    1  A    between atoms: C_1  and  N_2
REMARK    2  A    between atoms: C_6  and  C_7
REMARK    3  A    between atoms: C_7  and  N_8
REMARK    4  A    between atoms: C_7  and  C_9
REMARK    5  A    between atoms: C_9  and  C_10
REMARK    6  A    between atoms: C_14  and  N_15
REMARK    7  A    between atoms: C_20  and  N_21
REMARK    8  A    between atoms: C_23  and  C_24
REMARK                            x       y       z     vdW  Elec       q    Type
REMARK                         _______ _______ _______ _____ _____    ______ ____
ROOT
ATOM      1  C   UNL     1       1.929   7.371  19.913  0.00  0.00    +0.000 A 
ATOM      2  C   UNL     1       2.415   8.216  18.908  0.00  0.00    +0.000 A 
ATOM      3  C   UNL     1       3.054   7.703  17.785  0.00  0.00    +0.000 A 
ATOM      4  C   UNL     1       3.363   6.353  17.729  0.00  0.00    +0.000 A 
ATOM      5  C   UNL     1       3.140   5.552  18.859  0.00  0.00    +0.000 A 
ATOM      6  C   UNL     1       2.281   6.016  19.866  0.00  0.00    +0.000 A 
ENDROOT
BRANCH   5   7
ATOM      7  N   UNL     1       4.129   4.549  19.220  0.00  0.00    +0.000 N 
ATOM      8  C   UNL     1       5.476   5.172  19.328  0.00  0.00    +0.000 C 
ATOM      9  C   UNL     1       6.018   4.994  17.943  0.00  0.00    +0.000 A 
ATOM     10  C   UNL     1       5.396   3.867  17.396  0.00  0.00    +0.000 A 
ATOM     11  C   UNL     1       5.524   3.508  16.063  0.00  0.00    +0.000 A 
ATOM     12  C   UNL     1       6.320   4.303  15.246  0.00  0.00    +0.000 A 
ATOM     13  C   UNL     1       6.909   5.471  15.781  0.00  0.00    +0.000 A 
ATOM     14  C   UNL     1       6.778   5.835  17.140  0.00  0.00    +0.000 A 
ATOM     15  C   UNL     1       4.290   3.483  18.298  0.00  0.00    +0.000 C 
ATOM     16  O   UNL     1       3.564   2.521  18.109  0.00  0.00    +0.000 OA
BRANCH  14  17
ATOM     17  C   UNL     1       7.333   7.158  17.596  0.00  0.00    +0.000 C 
ATOM     18  F   UNL     1       6.391   8.113  17.826  0.00  0.00    +0.000 F 
ATOM     19  F   UNL     1       8.033   7.050  18.759  0.00  0.00    +0.000 F 
ATOM     20  F   UNL     1       8.196   7.705  16.693  0.00  0.00    +0.000 F 
ENDBRANCH  14  17
BRANCH  12  21
ATOM     21  N   UNL     1       6.286   4.127  13.858  0.00  0.00    +0.000 N 
ATOM     22  H   UNL     1       7.176   3.864  13.446  0.00  0.00    +0.000 HD
ATOM     23  H   UNL     1       5.823   4.864  13.341  0.00  0.00    +0.000 HD
ENDBRANCH  12  21
ENDBRANCH   5   7
BRANCH   1  24
ATOM     24  C   UNL     1       1.157   7.927  21.093  0.00  0.00    +0.000 C 
BRANCH  24  25
ATOM     25  C   UNL     1       1.263   9.451  21.351  0.00  0.00    +0.000 C 
BRANCH  25  31
ATOM     26  C   UNL     1       1.629  12.468  20.510  0.00  0.00    +0.000 C 
ATOM     27  N   UNL     1       0.561  11.590  20.118  0.00  0.00    +0.000 N 
ATOM     28  C   UNL     1      -0.471  11.920  19.293  0.00  0.00    +0.000 A 
ATOM     29  N   UNL     1      -1.267  10.890  19.149  0.00  0.00    +0.000 NA
ATOM     30  N   UNL     1      -0.760   9.867  19.910  0.00  0.00    +0.000 NA
ATOM     31  C   UNL     1       0.361  10.281  20.479  0.00  0.00    +0.000 A 
ENDBRANCH  25  31
BRANCH  25  32
ATOM     32  N   UNL     1       1.007   9.747  22.771  0.00  0.00    +0.000 NA
ATOM     33  H   UNL     1       0.048   9.437  22.966  0.00  0.00    +0.000 HD
ATOM     34  H   UNL     1       0.944  10.761  22.873  0.00  0.00    +0.000 HD
ENDBRANCH  25  32
ENDBRANCH  24  25
ENDBRANCH   1  24
TORSDOF 7
ENDMDL
MODEL 4
REMARK VINA RESULT:      -8.1      0.600      1.322
REMARK  Name = 
REMARK  8 active torsions:
REMARK  status: ('A' for Active; 'I' for Inactive)
REMARK    1  A    between atoms: C_1  and  N_2
REMARK    2  A    between atoms: C_6  and  C_7
REMARK    3  A    between atoms: C_7  and  N_8
REMARK    4  A    between atoms: C_7  and  C_9
REMARK    5  A    between atoms: C_9  and  C_10
REMARK    6  A    between atoms: C_14  and  N_15
REMARK    7  A    between atoms: C_20  and  N_21
REMARK    8  A    between atoms: C_23  and  C_24
REMARK                            x       y       z     vdW  Elec       q    Type
REMARK                         _______ _______ _______ _____ _____    ______ ____
ROOT
ATOM      1  C   UNL     1       1.972   7.329  19.838  0.00  0.00    +0.000 A 
ATOM      2  C   UNL     1       2.437   8.150  18.803  0.00  0.00    +0.000 A 
ATOM      3  C   UNL     1       3.049   7.609  17.678  0.00  0.00    +0.000 A 
ATOM      4  C   UNL     1       3.352   6.257  17.645  0.00  0.00    +0.000 A 
ATOM      5  C   UNL     1       3.153   5.483  18.797  0.00  0.00    +0.000 A 
ATOM      6  C   UNL     1       2.317   5.972  19.812  0.00  0.00    +0.000 A 
ENDROOT
BRANCH   5   7
ATOM      7  N   UNL     1       4.147   4.484  19.157  0.00  0.00    +0.000 N 
ATOM      8  C   UNL     1       5.486   5.118  19.288  0.00  0.00    +0.000 C 
ATOM      9  C   UNL     1       6.045   4.960  17.908  0.00  0.00    +0.000 A 
ATOM     10  C   UNL     1       5.440   3.835  17.341  0.00  0.00    +0.000 A 
ATOM     11  C   UNL     1       5.586   3.492  16.005  0.00  0.00    +0.000 A 
ATOM     12  C   UNL     1       6.384   4.304  15.207  0.00  0.00    +0.000 A 
ATOM     13  C   UNL     1       6.956   5.471  15.762  0.00  0.00    +0.000 A 
ATOM     14  C   UNL     1       6.808   5.817  17.124  0.00  0.00    +0.000 A 
ATOM     15  C   UNL     1       4.327   3.431  18.226  0.00  0.00    +0.000 C 
ATOM     16  O   UNL     1       3.612   2.464  18.017  0.00  0.00    +0.000 OA
BRANCH  14  17
ATOM     17  C   UNL     1       7.345   7.140  17.601  0.00  0.00    +0.000 C 
ATOM     18  F   UNL     1       8.054   7.074  18.760  0.00  0.00    +0.000 F 
ATOM     19  F   UNL     1       8.184   7.713  16.694  0.00  0.00    +0.000 F 
ATOM     20  F   UNL     1       6.361   8.057  17.825  0.00  0.00    +0.000 F 
ENDBRANCH  14  17
BRANCH  12  21
ATOM     21  N   UNL     1       6.368   4.143  13.817  0.00  0.00    +0.000 N 
ATOM     22  H   UNL     1       6.255   3.182  13.506  0.00  0.00    +0.000 HD
ATOM     23  H   UNL     1       7.104   4.627  13.318  0.00  0.00    +0.000 HD
ENDBRANCH  12  21
ENDBRANCH   5   7
BRANCH   1  24
ATOM     24  C   UNL     1       1.229   7.914  21.022  0.00  0.00    +0.000 C 
BRANCH  24  25
ATOM     25  C   UNL     1       1.629   9.342  21.471  0.00  0.00    +0.000 C 
BRANCH  25  31
ATOM     26  C   UNL     1      -0.885  10.209  23.165  0.00  0.00    +0.000 C 
ATOM     27  N   UNL     1      -0.465  10.760  21.906  0.00  0.00    +0.000 N 
ATOM     28  C   UNL     1      -1.086  11.774  21.241  0.00  0.00    +0.000 A 
ATOM     29  N   UNL     1      -0.447  12.025  20.126  0.00  0.00    +0.000 NA
ATOM     30  N   UNL     1       0.604  11.146  20.046  0.00  0.00    +0.000 NA
ATOM     31  C   UNL     1       0.610  10.395  21.134  0.00  0.00    +0.000 A 
ENDBRANCH  25  31
BRANCH  25  32
ATOM     32  N   UNL     1       1.917   9.360  22.915  0.00  0.00    +0.000 NA
ATOM     33  H   UNL     1       2.415  10.238  23.103  0.00  0.00    +0.000 HD
ATOM     34  H   UNL     1       2.629   8.651  23.102  0.00  0.00    +0.000 HD
ENDBRANCH  25  32
ENDBRANCH  24  25
ENDBRANCH   1  24
TORSDOF 7
ENDMDL
MODEL 5
REMARK VINA RESULT:      -8.1      3.536      8.348
REMARK  Name = 
REMARK  8 active torsions:
REMARK  status: ('A' for Active; 'I' for Inactive)
REMARK    1  A    between atoms: C_1  and  N_2
REMARK    2  A    between atoms: C_6  and  C_7
REMARK    3  A    between atoms: C_7  and  N_8
REMARK    4  A    between atoms: C_7  and  C_9
REMARK    5  A    between atoms: C_9  and  C_10
REMARK    6  A    between atoms: C_14  and  N_15
REMARK    7  A    between atoms: C_20  and  N_21
REMARK    8  A    between atoms: C_23  and  C_24
REMARK                            x       y       z     vdW  Elec       q    Type
REMARK                         _______ _______ _______ _____ _____    ______ ____
ROOT
ATOM      1  C   UNL     1       2.651   5.874  19.144  0.00  0.00    +0.000 A 
ATOM      2  C   UNL     1       2.446   6.497  17.906  0.00  0.00    +0.000 A 
ATOM      3  C   UNL     1       2.165   7.855  17.824  0.00  0.00    +0.000 A 
ATOM      4  C   UNL     1       1.922   8.577  18.982  0.00  0.00    +0.000 A 
ATOM      5  C   UNL     1       1.838   7.898  20.206  0.00  0.00    +0.000 A 
ATOM      6  C   UNL     1       2.365   6.602  20.306  0.00  0.00    +0.000 A 
ENDROOT
BRANCH   5   7
ATOM      7  N   UNL     1       0.815   8.291  21.163  0.00  0.00    +0.000 N 
ATOM      8  C   UNL     1      -0.461   8.586  20.457  0.00  0.00    +0.000 C 
ATOM      9  C   UNL     1      -0.346  10.057  20.200  0.00  0.00    +0.000 A 
ATOM     10  C   UNL     1       0.478  10.589  21.196  0.00  0.00    +0.000 A 
ATOM     11  C   UNL     1       0.948  11.894  21.169  0.00  0.00    +0.000 A 
ATOM     12  C   UNL     1       0.564  12.703  20.107  0.00  0.00    +0.000 A 
ATOM     13  C   UNL     1      -0.227  12.156  19.071  0.00  0.00    +0.000 A 
ATOM     14  C   UNL     1      -0.706  10.827  19.101  0.00  0.00    +0.000 A 
ATOM     15  C   UNL     1       1.095   9.457  21.919  0.00  0.00    +0.000 C 
ATOM     16  O   UNL     1       1.854   9.590  22.865  0.00  0.00    +0.000 OA
BRANCH  14  17
ATOM     17  C   UNL     1      -1.435  10.290  17.899  0.00  0.00    +0.000 C 
ATOM     18  F   UNL     1      -0.711   9.416  17.147  0.00  0.00    +0.000 F 
ATOM     19  F   UNL     1      -2.570   9.620  18.242  0.00  0.00    +0.000 F 
ATOM     20  F   UNL     1      -1.829  11.273  17.041  0.00  0.00    +0.000 F 
ENDBRANCH  14  17
BRANCH  12  21
ATOM     21  N   UNL     1       1.199  13.935  19.907  0.00  0.00    +0.000 N 
ATOM     22  H   UNL     1       1.013  14.626  20.629  0.00  0.00    +0.000 HD
ATOM     23  H   UNL     1       1.113  14.318  18.973  0.00  0.00    +0.000 HD
ENDBRANCH  12  21
ENDBRANCH   5   7
BRANCH   1  24
ATOM     24  C   UNL     1       3.042   4.413  19.226  0.00  0.00    +0.000 C 
BRANCH  24  25
ATOM     25  C   UNL     1       4.122   3.914  18.233  0.00  0.00    +0.000 C 
BRANCH  25  31
ATOM     26  C   UNL     1       6.468   4.332  16.168  0.00  0.00    +0.000 C 
ATOM     27  N   UNL     1       6.490   4.649  17.570  0.00  0.00    +0.000 N 
ATOM     28  C   UNL     1       7.538   5.205  18.239  0.00  0.00    +0.000 A 
ATOM     29  N   UNL     1       7.225   5.354  19.501  0.00  0.00    +0.000 NA
ATOM     30  N   UNL     1       5.953   4.869  19.672  0.00  0.00    +0.000 NA
ATOM     31  C   UNL     1       5.496   4.462  18.499  0.00  0.00    +0.000 A 
ENDBRANCH  25  31
BRANCH  25  32
ATOM     32  N   UNL     1       4.158   2.441  18.216  0.00  0.00    +0.000 NA
ATOM     33  H   UNL     1       4.059   2.158  17.234  0.00  0.00    +0.000 HD
ATOM     34  H   UNL     1       3.293   2.102  18.640  0.00  0.00    +0.000 HD
ENDBRANCH  25  32
ENDBRANCH  24  25
ENDBRANCH   1  24
TORSDOF 7
ENDMDL
MODEL 6
REMARK VINA RESULT:      -8.1      4.292      6.913
REMARK  Name = 
REMARK  8 active torsions:
REMARK  status: ('A' for Active; 'I' for Inactive)
REMARK    1  A    between atoms: C_1  and  N_2
REMARK    2  A    between atoms: C_6  and  C_7
REMARK    3  A    between atoms: C_7  and  N_8
REMARK    4  A    between atoms: C_7  and  C_9
REMARK    5  A    between atoms: C_9  and  C_10
REMARK    6  A    between atoms: C_14  and  N_15
REMARK    7  A    between atoms: C_20  and  N_21
REMARK    8  A    between atoms: C_23  and  C_24
REMARK                            x       y       z     vdW  Elec       q    Type
REMARK                         _______ _______ _______ _____ _____    ______ ____
ROOT
ATOM      1  C   UNL     1       7.751   7.824  17.812  0.00  0.00    +0.000 A 
ATOM      2  C   UNL     1       7.835   6.991  18.935  0.00  0.00    +0.000 A 
ATOM      3  C   UNL     1       7.814   5.608  18.806  0.00  0.00    +0.000 A 
ATOM      4  C   UNL     1       7.544   5.038  17.572  0.00  0.00    +0.000 A 
ATOM      5  C   UNL     1       7.171   5.866  16.503  0.00  0.00    +0.000 A 
ATOM      6  C   UNL     1       7.440   7.241  16.577  0.00  0.00    +0.000 A 
ENDROOT
BRANCH   5   7
ATOM      7  N   UNL     1       6.111   5.429  15.608  0.00  0.00    +0.000 N 
ATOM      8  C   UNL     1       4.901   6.273  15.796  0.00  0.00    +0.000 C 
ATOM      9  C   UNL     1       4.139   5.504  16.832  0.00  0.00    +0.000 A 
ATOM     10  C   UNL     1       4.502   4.161  16.702  0.00  0.00    +0.000 A 
ATOM     11  C   UNL     1       4.127   3.186  17.615  0.00  0.00    +0.000 A 
ATOM     12  C   UNL     1       3.343   3.573  18.695  0.00  0.00    +0.000 A 
ATOM     13  C   UNL     1       3.016   4.938  18.859  0.00  0.00    +0.000 A 
ATOM     14  C   UNL     1       3.398   5.928  17.927  0.00  0.00    +0.000 A 
ATOM     15  C   UNL     1       5.663   4.096  15.788  0.00  0.00    +0.000 C 
ATOM     16  O   UNL     1       6.205   3.056  15.454  0.00  0.00    +0.000 OA
BRANCH  14  17
ATOM     17  C   UNL     1       3.115   7.372  18.244  0.00  0.00    +0.000 C 
ATOM     18  F   UNL     1       2.697   7.597  19.520  0.00  0.00    +0.000 F 
ATOM     19  F   UNL     1       4.213   8.161  18.078  0.00  0.00    +0.000 F 
ATOM     20  F   UNL     1       2.150   7.907  17.443  0.00  0.00    +0.000 F 
ENDBRANCH  14  17
BRANCH  12  21
ATOM     21  N   UNL     1       3.144   2.687  19.761  0.00  0.00    +0.000 N 
ATOM     22  H   UNL     1       3.131   1.706  19.496  0.00  0.00    +0.000 HD
ATOM     23  H   UNL     1       2.386   2.929  20.387  0.00  0.00    +0.000 HD
ENDBRANCH  12  21
ENDBRANCH   5   7
BRANCH   1  24
ATOM     24  C   UNL     1       7.862   9.329  17.948  0.00  0.00    +0.000 C 
BRANCH  24  25
ATOM     25  C   UNL     1       9.162   9.888  18.579  0.00  0.00    +0.000 C 
BRANCH  25  31
ATOM     26  C   UNL     1      11.926  11.389  18.800  0.00  0.00    +0.000 C 
ATOM     27  N   UNL     1      10.699  11.920  18.271  0.00  0.00    +0.000 N 
ATOM     28  C   UNL     1      10.535  13.170  17.756  0.00  0.00    +0.000 A 
ATOM     29  N   UNL     1       9.294  13.328  17.370  0.00  0.00    +0.000 NA
ATOM     30  N   UNL     1       8.622  12.166  17.654  0.00  0.00    +0.000 NA
ATOM     31  C   UNL     1       9.476  11.303  18.178  0.00  0.00    +0.000 A 
ENDBRANCH  25  31
BRANCH  25  32
ATOM     32  N   UNL     1       9.103   9.779  20.047  0.00  0.00    +0.000 NA
ATOM     33  H   UNL     1       9.905  10.308  20.411  0.00  0.00    +0.000 HD
ATOM     34  H   UNL     1       9.333   8.816  20.299  0.00  0.00    +0.000 HD
ENDBRANCH  25  32
ENDBRANCH  24  25
ENDBRANCH   1  24
TORSDOF 7
ENDMDL
MODEL 7
REMARK VINA RESULT:      -8.1      3.804      8.563
REMARK  Name = 
REMARK  8 active torsions:
REMARK  status: ('A' for Active; 'I' for Inactive)
REMARK    1  A    between atoms: C_1  and  N_2
REMARK    2  A    between atoms: C_6  and  C_7
REMARK    3  A    between atoms: C_7  and  N_8
REMARK    4  A    between atoms: C_7  and  C_9
REMARK    5  A    between atoms: C_9  and  C_10
REMARK    6  A    between atoms: C_14  and  N_15
REMARK    7  A    between atoms: C_20  and  N_21
REMARK    8  A    between atoms: C_23  and  C_24
REMARK                            x       y       z     vdW  Elec       q    Type
REMARK                         _______ _______ _______ _____ _____    ______ ____
ROOT
ATOM      1  C   UNL     1       2.473   6.961  19.347  0.00  0.00    +0.000 A 
ATOM      2  C   UNL     1       2.416   7.484  18.048  0.00  0.00    +0.000 A 
ATOM      3  C   UNL     1       1.999   8.789  17.818  0.00  0.00    +0.000 A 
ATOM      4  C   UNL     1       1.476   9.537  18.862  0.00  0.00    +0.000 A 
ATOM      5  C   UNL     1       1.259   8.921  20.103  0.00  0.00    +0.000 A 
ATOM      6  C   UNL     1       1.907   7.709  20.386  0.00  0.00    +0.000 A 
ENDROOT
BRANCH   5   7
ATOM      7  N   UNL     1       0.047   9.233  20.843  0.00  0.00    +0.000 N 
ATOM      8  C   UNL     1      -1.140   9.126  19.953  0.00  0.00    +0.000 C 
ATOM      9  C   UNL     1      -1.273  10.526  19.437  0.00  0.00    +0.000 A 
ATOM     10  C   UNL     1      -0.727  11.378  20.401  0.00  0.00    +0.000 A 
ATOM     11  C   UNL     1      -0.518  12.731  20.182  0.00  0.00    +0.000 A 
ATOM     12  C   UNL     1      -0.885  13.255  18.948  0.00  0.00    +0.000 A 
ATOM     13  C   UNL     1      -1.390  12.390  17.951  0.00  0.00    +0.000 A 
ATOM     14  C   UNL     1      -1.603  11.012  18.178  0.00  0.00    +0.000 A 
ATOM     15  C   UNL     1      -0.020  10.538  21.392  0.00  0.00    +0.000 C 
ATOM     16  O   UNL     1       0.547  10.984  22.376  0.00  0.00    +0.000 OA
BRANCH  14  17
ATOM     17  C   UNL     1      -2.025  10.142  17.024  0.00  0.00    +0.000 C 
ATOM     18  F   UNL     1      -2.292  10.821  15.876  0.00  0.00    +0.000 F 
ATOM     19  F   UNL     1      -1.071   9.228  16.692  0.00  0.00    +0.000 F 
ATOM     20  F   UNL     1      -3.150   9.421  17.294  0.00  0.00    +0.000 F 
ENDBRANCH  14  17
BRANCH  12  21
ATOM     21  N   UNL     1      -0.476  14.546  18.592  0.00  0.00    +0.000 N 
ATOM     22  H   UNL     1       0.188  14.580  17.823  0.00  0.00    +0.000 HD
ATOM     23  H   UNL     1      -0.203  15.140  19.366  0.00  0.00    +0.000 HD
ENDBRANCH  12  21
ENDBRANCH   5   7
BRANCH   1  24
ATOM     24  C   UNL     1       3.010   5.567  19.603  0.00  0.00    +0.000 C 
BRANCH  24  25
ATOM     25  C   UNL     1       3.981   4.980  18.547  0.00  0.00    +0.000 C 
BRANCH  25  31
ATOM     26  C   UNL     1       5.930   6.740  16.802  0.00  0.00    +0.000 C 
ATOM     27  N   UNL     1       6.244   6.077  18.038  0.00  0.00    +0.000 N 
ATOM     28  C   UNL     1       7.449   6.117  18.672  0.00  0.00    +0.000 A 
ATOM     29  N   UNL     1       7.394   5.401  19.767  0.00  0.00    +0.000 NA
ATOM     30  N   UNL     1       6.134   4.862  19.845  0.00  0.00    +0.000 NA
ATOM     31  C   UNL     1       5.428   5.289  18.812  0.00  0.00    +0.000 A 
ENDBRANCH  25  31
BRANCH  25  32
ATOM     32  N   UNL     1       3.787   3.525  18.430  0.00  0.00    +0.000 NA
ATOM     33  H   UNL     1       3.445   3.202  19.343  0.00  0.00    +0.000 HD
ATOM     34  H   UNL     1       4.708   3.089  18.365  0.00  0.00    +0.000 HD
ENDBRANCH  25  32
ENDBRANCH  24  25
ENDBRANCH   1  24
TORSDOF 7
ENDMDL
MODEL 8
REMARK VINA RESULT:      -8.0      0.776      1.186
REMARK  Name = 
REMARK  8 active torsions:
REMARK  status: ('A' for Active; 'I' for Inactive)
REMARK    1  A    between atoms: C_1  and  N_2
REMARK    2  A    between atoms: C_6  and  C_7
REMARK    3  A    between atoms: C_7  and  N_8
REMARK    4  A    between atoms: C_7  and  C_9
REMARK    5  A    between atoms: C_9  and  C_10
REMARK    6  A    between atoms: C_14  and  N_15
REMARK    7  A    between atoms: C_20  and  N_21
REMARK    8  A    between atoms: C_23  and  C_24
REMARK                            x       y       z     vdW  Elec       q    Type
REMARK                         _______ _______ _______ _____ _____    ______ ____
ROOT
ATOM      1  C   UNL     1       2.047   7.822  19.568  0.00  0.00    +0.000 A 
ATOM      2  C   UNL     1       2.504   8.405  18.379  0.00  0.00    +0.000 A 
ATOM      3  C   UNL     1       2.999   7.624  17.341  0.00  0.00    +0.000 A 
ATOM      4  C   UNL     1       3.198   6.266  17.539  0.00  0.00    +0.000 A 
ATOM      5  C   UNL     1       3.017   5.728  18.821  0.00  0.00    +0.000 A 
ATOM      6  C   UNL     1       2.289   6.458  19.772  0.00  0.00    +0.000 A 
ENDROOT
BRANCH   5   7
ATOM      7  N   UNL     1       3.956   4.728  19.306  0.00  0.00    +0.000 N 
ATOM      8  C   UNL     1       5.320   5.312  19.408  0.00  0.00    +0.000 C 
ATOM      9  C   UNL     1       5.901   4.991  18.065  0.00  0.00    +0.000 A 
ATOM     10  C   UNL     1       5.257   3.842  17.599  0.00  0.00    +0.000 A 
ATOM     11  C   UNL     1       5.416   3.359  16.308  0.00  0.00    +0.000 A 
ATOM     12  C   UNL     1       6.268   4.050  15.454  0.00  0.00    +0.000 A 
ATOM     13  C   UNL     1       6.882   5.241  15.904  0.00  0.00    +0.000 A 
ATOM     14  C   UNL     1       6.720   5.730  17.220  0.00  0.00    +0.000 A 
ATOM     15  C   UNL     1       4.107   3.579  18.490  0.00  0.00    +0.000 C 
ATOM     16  O   UNL     1       3.353   2.629  18.361  0.00  0.00    +0.000 OA
BRANCH  14  17
ATOM     17  C   UNL     1       7.307   7.069  17.576  0.00  0.00    +0.000 C 
ATOM     18  F   UNL     1       8.052   7.072  18.715  0.00  0.00    +0.000 F 
ATOM     19  F   UNL     1       8.131   7.546  16.602  0.00  0.00    +0.000 F 
ATOM     20  F   UNL     1       6.356   8.028  17.757  0.00  0.00    +0.000 F 
ENDBRANCH  14  17
BRANCH  12  21
ATOM     21  N   UNL     1       6.274   3.750  14.087  0.00  0.00    +0.000 N 
ATOM     22  H   UNL     1       7.114   4.043  13.596  0.00  0.00    +0.000 HD
ATOM     23  H   UNL     1       5.428   3.996  13.588  0.00  0.00    +0.000 HD
ENDBRANCH  12  21
ENDBRANCH   5   7
BRANCH   1  24
ATOM     24  C   UNL     1       1.428   8.668  20.662  0.00  0.00    +0.000 C 
BRANCH  24  25
ATOM     25  C   UNL     1       0.545   9.862  20.218  0.00  0.00    +0.000 C 
BRANCH  25  31
ATOM     26  C   UNL     1      -1.824  11.935  20.050  0.00  0.00    +0.000 C 
ATOM     27  N   UNL     1      -1.188  11.452  21.245  0.00  0.00    +0.000 N 
ATOM     28  C   UNL     1      -1.523  11.805  22.517  0.00  0.00    +0.000 A 
ATOM     29  N   UNL     1      -0.741  11.186  23.365  0.00  0.00    +0.000 NA
ATOM     30  N   UNL     1       0.140  10.426  22.637  0.00  0.00    +0.000 NA
ATOM     31  C   UNL     1      -0.144  10.567  21.353  0.00  0.00    +0.000 A 
ENDBRANCH  25  31
BRANCH  25  32
ATOM     32  N   UNL     1       1.343  10.822  19.435  0.00  0.00    +0.000 NA
ATOM     33  H   UNL     1       1.483  11.643  20.036  0.00  0.00    +0.000 HD
ATOM     34  H   UNL     1       0.750  11.186  18.687  0.00  0.00    +0.000 HD
ENDBRANCH  25  32
ENDBRANCH  24  25
ENDBRANCH   1  24
TORSDOF 7
ENDMDL
MODEL 9
REMARK VINA RESULT:      -7.9      6.677      9.326
REMARK  Name = 
REMARK  8 active torsions:
REMARK  status: ('A' for Active; 'I' for Inactive)
REMARK    1  A    between atoms: C_1  and  N_2
REMARK    2  A    between atoms: C_6  and  C_7
REMARK    3  A    between atoms: C_7  and  N_8
REMARK    4  A    between atoms: C_7  and  C_9
REMARK    5  A    between atoms: C_9  and  C_10
REMARK    6  A    between atoms: C_14  and  N_15
REMARK    7  A    between atoms: C_20  and  N_21
REMARK    8  A    between atoms: C_23  and  C_24
REMARK                            x       y       z     vdW  Elec       q    Type
REMARK                         _______ _______ _______ _____ _____    ______ ____
ROOT
ATOM      1  C   UNL     1      -3.699  11.322  17.786  0.00  0.00    +0.000 A 
ATOM      2  C   UNL     1      -3.589  10.612  16.584  0.00  0.00    +0.000 A 
ATOM      3  C   UNL     1      -2.489   9.803  16.326  0.00  0.00    +0.000 A 
ATOM      4  C   UNL     1      -1.407   9.820  17.193  0.00  0.00    +0.000 A 
ATOM      5  C   UNL     1      -1.388  10.748  18.244  0.00  0.00    +0.000 A 
ATOM      6  C   UNL     1      -2.586  11.363  18.635  0.00  0.00    +0.000 A 
ENDROOT
BRANCH   5   7
ATOM      7  N   UNL     1      -0.141  11.423  18.567  0.00  0.00    +0.000 N 
ATOM      8  C   UNL     1       0.597  10.665  19.613  0.00  0.00    +0.000 C 
ATOM      9  C   UNL     1       0.099  11.303  20.874  0.00  0.00    +0.000 A 
ATOM     10  C   UNL     1      -0.273  12.612  20.557  0.00  0.00    +0.000 A 
ATOM     11  C   UNL     1      -0.945  13.441  21.444  0.00  0.00    +0.000 A 
ATOM     12  C   UNL     1      -1.245  12.939  22.705  0.00  0.00    +0.000 A 
ATOM     13  C   UNL     1      -0.916  11.599  23.012  0.00  0.00    +0.000 A 
ATOM     14  C   UNL     1      -0.230  10.758  22.109  0.00  0.00    +0.000 A 
ATOM     15  C   UNL     1      -0.268  12.737  19.084  0.00  0.00    +0.000 C 
ATOM     16  O   UNL     1      -0.529  13.770  18.490  0.00  0.00    +0.000 OA
BRANCH  14  17
ATOM     17  C   UNL     1      -0.033   9.310  22.469  0.00  0.00    +0.000 C 
ATOM     18  F   UNL     1      -0.771   8.440  21.727  0.00  0.00    +0.000 F 
ATOM     19  F   UNL     1       1.261   8.912  22.316  0.00  0.00    +0.000 F 
ATOM     20  F   UNL     1      -0.350   9.044  23.768  0.00  0.00    +0.000 F 
ENDBRANCH  14  17
BRANCH  12  21
ATOM     21  N   UNL     1      -2.125  13.638  23.540  0.00  0.00    +0.000 N 
ATOM     22  H   UNL     1      -2.275  13.207  24.448  0.00  0.00    +0.000 HD
ATOM     23  H   UNL     1      -2.990  13.933  23.103  0.00  0.00    +0.000 HD
ENDBRANCH  12  21
ENDBRANCH   5   7
BRANCH   1  24
ATOM     24  C   UNL     1      -4.939  12.135  18.101  0.00  0.00    +0.000 C 
BRANCH  24  25
ATOM     25  C   UNL     1      -6.309  11.439  17.898  0.00  0.00    +0.000 C 
BRANCH  25  31
ATOM     26  C   UNL     1      -7.574  12.955  20.357  0.00  0.00    +0.000 C 
ATOM     27  N   UNL     1      -7.442  11.532  20.199  0.00  0.00    +0.000 N 
ATOM     28  C   UNL     1      -7.864  10.595  21.093  0.00  0.00    +0.000 A 
ATOM     29  N   UNL     1      -7.584   9.399  20.641  0.00  0.00    +0.000 NA
ATOM     30  N   UNL     1      -6.947   9.551  19.436  0.00  0.00    +0.000 NA
ATOM     31  C   UNL     1      -6.881  10.841  19.154  0.00  0.00    +0.000 A 
ENDBRANCH  25  31
BRANCH  25  32
ATOM     32  N   UNL     1      -7.274  12.378  17.299  0.00  0.00    +0.000 NA
ATOM     33  H   UNL     1      -7.044  12.434  16.300  0.00  0.00    +0.000 HD
ATOM     34  H   UNL     1      -7.050  13.315  17.637  0.00  0.00    +0.000 HD
ENDBRANCH  25  32
ENDBRANCH  24  25
ENDBRANCH   1  24
TORSDOF 7
ENDMDL
