MODEL 1
REMARK VINA RESULT:      -7.4      0.000      0.000
REMARK  Name = 
REMARK  7 active torsions:
REMARK  status: ('A' for Active; 'I' for Inactive)
REMARK    1  A    between atoms: C_2  and  C_3
REMARK    2  A    between atoms: C_12  and  C_13
REMARK    3  A    between atoms: C_12  and  C_25
REMARK    4  A    between atoms: C_13  and  C_14
REMARK    5  A    between atoms: N_16  and  C_17
REMARK    6  A    between atoms: C_17  and  C_18
REMARK    7  A    between atoms: C_25  and  O_27
REMARK                            x       y       z     vdW  Elec       q    Type
REMARK                         _______ _______ _______ _____ _____    ______ ____
ROOT
ATOM      1  O   UNL     1       5.252   5.693  19.069  0.00  0.00    +0.000 OA
ATOM      2  C   UNL     1       5.225   4.742  18.284  0.00  0.00    +0.000 C 
ATOM      3  N   UNL     1       4.386   3.650  18.579  0.00  0.00    +0.000 N 
ATOM      4  C   UNL     1       4.264   2.412  17.812  0.00  0.00    +0.000 C 
ATOM      5  C   UNL     1       2.824   1.912  17.735  0.00  0.00    +0.000 C 
ATOM      6  C   UNL     1       2.080   1.959  19.068  0.00  0.00    +0.000 C 
ATOM      7  C   UNL     1       2.244   3.303  19.837  0.00  0.00    +0.000 C 
ATOM      8  C   UNL     1       3.745   3.628  19.894  0.00  0.00    +0.000 C 
ENDROOT
BRANCH   2   9
ATOM      9  C   UNL     1       6.005   4.775  17.058  0.00  0.00    +0.000 A 
ATOM     10  C   UNL     1       7.340   4.544  16.782  0.00  0.00    +0.000 A 
ATOM     11  N   UNL     1       7.714   4.659  15.452  0.00  0.00    +0.000 NA
ATOM     12  C   UNL     1       6.675   5.037  14.742  0.00  0.00    +0.000 A 
ATOM     13  S   UNL     1       5.221   5.282  15.605  0.00  0.00    +0.000 S 
ENDBRANCH   2   9
BRANCH   7  14
ATOM     14  C   UNL     1       1.803   3.106  21.291  0.00  0.00    +0.000 C 
ATOM     15  O   UNL     1       2.529   3.292  22.257  0.00  0.00    +0.000 OA
BRANCH  14  16
ATOM     16  O   UNL     1       0.526   2.695  21.464  0.00  0.00    +0.000 OA
ATOM     17  H   UNL     1      -0.025   2.565  20.670  0.00  0.00    +0.000 HD
ENDBRANCH  14  16
ENDBRANCH   7  14
BRANCH   7  18
ATOM     18  C   UNL     1       1.411   4.448  19.191  0.00  0.00    +0.000 C 
BRANCH  18  19
ATOM     19  C   UNL     1       1.761   5.805  19.709  0.00  0.00    +0.000 A 
ATOM     20  C   UNL     1       1.524   6.377  20.941  0.00  0.00    +0.000 A 
ATOM     21  N   UNL     1       1.737   7.711  20.725  0.00  0.00    +0.000 N 
ATOM     22  N   UNL     1       2.282   7.917  19.509  0.00  0.00    +0.000 NA
ATOM     23  N   UNL     1       2.292   6.753  18.874  0.00  0.00    +0.000 NA
BRANCH  21  24
ATOM     24  C   UNL     1       1.158   8.817  21.470  0.00  0.00    +0.000 C 
BRANCH  24  25
ATOM     25  C   UNL     1       0.530   9.821  20.562  0.00  0.00    +0.000 A 
ATOM     26  C   UNL     1      -0.520   9.636  19.685  0.00  0.00    +0.000 A 
ATOM     27  C   UNL     1      -0.846  10.825  18.974  0.00  0.00    +0.000 A 
ATOM     28  C   UNL     1      -0.050  11.885  19.350  0.00  0.00    +0.000 A 
ATOM     29  S   UNL     1       1.079  11.445  20.555  0.00  0.00    +0.000 S 
ENDBRANCH  24  25
ENDBRANCH  21  24
ENDBRANCH  18  19
ENDBRANCH   7  18
TORSDOF 7
ENDMDL
MODEL 2
REMARK VINA RESULT:      -6.9      3.893      8.195
REMARK  Name = 
REMARK  7 active torsions:
REMARK  status: ('A' for Active; 'I' for Inactive)
REMARK    1  A    between atoms: C_2  and  C_3
REMARK    2  A    between atoms: C_12  and  C_13
REMARK    3  A    between atoms: C_12  and  C_25
REMARK    4  A    between atoms: C_13  and  C_14
REMARK    5  A    between atoms: N_16  and  C_17
REMARK    6  A    between atoms: C_17  and  C_18
REMARK    7  A    between atoms: C_25  and  O_27
REMARK                            x       y       z     vdW  Elec       q    Type
REMARK                         _______ _______ _______ _____ _____    ______ ____
ROOT
ATOM      1  O   UNL     1       4.760   2.776  20.211  0.00  0.00    +0.000 OA
ATOM      2  C   UNL     1       3.946   3.488  19.619  0.00  0.00    +0.000 C 
ATOM      3  N   UNL     1       4.388   4.711  19.077  0.00  0.00    +0.000 N 
ATOM      4  C   UNL     1       3.567   5.714  18.402  0.00  0.00    +0.000 C 
ATOM      5  C   UNL     1       4.279   6.344  17.208  0.00  0.00    +0.000 C 
ATOM      6  C   UNL     1       5.730   6.731  17.486  0.00  0.00    +0.000 C 
ATOM      7  C   UNL     1       6.555   5.622  18.202  0.00  0.00    +0.000 C 
ATOM      8  C   UNL     1       5.742   5.148  19.417  0.00  0.00    +0.000 C 
ENDROOT
BRANCH   2   9
ATOM      9  C   UNL     1       2.571   3.048  19.443  0.00  0.00    +0.000 A 
ATOM     10  C   UNL     1       1.449   3.111  20.248  0.00  0.00    +0.000 A 
ATOM     11  N   UNL     1       0.285   2.583  19.711  0.00  0.00    +0.000 NA
ATOM     12  C   UNL     1       0.548   2.069  18.530  0.00  0.00    +0.000 A 
ATOM     13  S   UNL     1       2.171   2.175  18.007  0.00  0.00    +0.000 S 
ENDBRANCH   2   9
BRANCH   7  14
ATOM     14  C   UNL     1       7.837   6.238  18.771  0.00  0.00    +0.000 C 
ATOM     15  O   UNL     1       8.278   7.329  18.440  0.00  0.00    +0.000 OA
BRANCH  14  16
ATOM     16  O   UNL     1       8.489   5.487  19.688  0.00  0.00    +0.000 OA
ATOM     17  H   UNL     1       9.350   5.104  19.438  0.00  0.00    +0.000 HD
ENDBRANCH  14  16
ENDBRANCH   7  14
BRANCH   7  18
ATOM     18  C   UNL     1       6.922   4.456  17.240  0.00  0.00    +0.000 C 
BRANCH  18  19
ATOM     19  C   UNL     1       7.061   4.880  15.814  0.00  0.00    +0.000 A 
ATOM     20  C   UNL     1       6.542   4.322  14.664  0.00  0.00    +0.000 A 
ATOM     21  N   UNL     1       7.274   4.902  13.664  0.00  0.00    +0.000 N 
ATOM     22  N   UNL     1       8.031   5.907  14.148  0.00  0.00    +0.000 NA
ATOM     23  N   UNL     1       7.914   5.895  15.469  0.00  0.00    +0.000 NA
BRANCH  21  24
ATOM     24  C   UNL     1       7.537   4.351  12.345  0.00  0.00    +0.000 C 
BRANCH  24  25
ATOM     25  C   UNL     1       6.453   3.423  11.911  0.00  0.00    +0.000 A 
ATOM     26  C   UNL     1       5.096   3.672  11.846  0.00  0.00    +0.000 A 
ATOM     27  C   UNL     1       4.362   2.541  11.391  0.00  0.00    +0.000 A 
ATOM     28  C   UNL     1       5.183   1.475  11.100  0.00  0.00    +0.000 A 
ATOM     29  S   UNL     1       6.830   1.840  11.373  0.00  0.00    +0.000 S 
ENDBRANCH  24  25
ENDBRANCH  21  24
ENDBRANCH  18  19
ENDBRANCH   7  18
TORSDOF 7
ENDMDL
MODEL 3
REMARK VINA RESULT:      -6.9      3.763      8.194
REMARK  Name = 
REMARK  7 active torsions:
REMARK  status: ('A' for Active; 'I' for Inactive)
REMARK    1  A    between atoms: C_2  and  C_3
REMARK    2  A    between atoms: C_12  and  C_13
REMARK    3  A    between atoms: C_12  and  C_25
REMARK    4  A    between atoms: C_13  and  C_14
REMARK    5  A    between atoms: N_16  and  C_17
REMARK    6  A    between atoms: C_17  and  C_18
REMARK    7  A    between atoms: C_25  and  O_27
REMARK                            x       y       z     vdW  Elec       q    Type
REMARK                         _______ _______ _______ _____ _____    ______ ____
ROOT
ATOM      1  O   UNL     1       4.743   2.725  20.167  0.00  0.00    +0.000 OA
ATOM      2  C   UNL     1       3.953   3.438  19.543  0.00  0.00    +0.000 C 
ATOM      3  N   UNL     1       4.416   4.666  19.031  0.00  0.00    +0.000 N 
ATOM      4  C   UNL     1       3.622   5.672  18.326  0.00  0.00    +0.000 C 
ATOM      5  C   UNL     1       4.385   6.312  17.170  0.00  0.00    +0.000 C 
ATOM      6  C   UNL     1       5.821   6.702  17.515  0.00  0.00    +0.000 C 
ATOM      7  C   UNL     1       6.616   5.591  18.260  0.00  0.00    +0.000 C 
ATOM      8  C   UNL     1       5.751   5.105  19.434  0.00  0.00    +0.000 C 
ENDROOT
BRANCH   2   9
ATOM      9  C   UNL     1       2.590   2.995  19.302  0.00  0.00    +0.000 A 
ATOM     10  C   UNL     1       1.977   2.361  18.237  0.00  0.00    +0.000 A 
ATOM     11  N   UNL     1       0.628   2.081  18.390  0.00  0.00    +0.000 NA
ATOM     12  C   UNL     1       0.215   2.560  19.543  0.00  0.00    +0.000 A 
ATOM     13  S   UNL     1       1.389   3.365  20.488  0.00  0.00    +0.000 S 
ENDBRANCH   2   9
BRANCH   7  14
ATOM     14  C   UNL     1       7.869   6.207  18.892  0.00  0.00    +0.000 C 
ATOM     15  O   UNL     1       8.330   7.294  18.576  0.00  0.00    +0.000 OA
BRANCH  14  16
ATOM     16  O   UNL     1       8.470   5.460  19.846  0.00  0.00    +0.000 OA
ATOM     17  H   UNL     1       9.438   5.530  19.941  0.00  0.00    +0.000 HD
ENDBRANCH  14  16
ENDBRANCH   7  14
BRANCH   7  18
ATOM     18  C   UNL     1       7.030   4.432  17.308  0.00  0.00    +0.000 C 
BRANCH  18  19
ATOM     19  C   UNL     1       7.060   4.827  15.867  0.00  0.00    +0.000 A 
ATOM     20  C   UNL     1       6.645   4.138  14.746  0.00  0.00    +0.000 A 
ATOM     21  N   UNL     1       7.232   4.818  13.714  0.00  0.00    +0.000 N 
ATOM     22  N   UNL     1       7.781   5.968  14.149  0.00  0.00    +0.000 NA
ATOM     23  N   UNL     1       7.689   5.978  15.473  0.00  0.00    +0.000 NA
BRANCH  21  24
ATOM     24  C   UNL     1       7.579   4.284  12.406  0.00  0.00    +0.000 C 
BRANCH  24  25
ATOM     25  C   UNL     1       6.553   3.318  11.917  0.00  0.00    +0.000 A 
ATOM     26  C   UNL     1       6.739   2.010  11.517  0.00  0.00    +0.000 A 
ATOM     27  C   UNL     1       5.524   1.395  11.103  0.00  0.00    +0.000 A 
ATOM     28  C   UNL     1       4.447   2.246  11.225  0.00  0.00    +0.000 A 
ATOM     29  S   UNL     1       4.903   3.775  11.837  0.00  0.00    +0.000 S 
ENDBRANCH  24  25
ENDBRANCH  21  24
ENDBRANCH  18  19
ENDBRANCH   7  18
TORSDOF 7
ENDMDL
MODEL 4
REMARK VINA RESULT:      -6.8      2.177      6.886
REMARK  Name = 
REMARK  7 active torsions:
REMARK  status: ('A' for Active; 'I' for Inactive)
REMARK    1  A    between atoms: C_2  and  C_3
REMARK    2  A    between atoms: C_12  and  C_13
REMARK    3  A    between atoms: C_12  and  C_25
REMARK    4  A    between atoms: C_13  and  C_14
REMARK    5  A    between atoms: N_16  and  C_17
REMARK    6  A    between atoms: C_17  and  C_18
REMARK    7  A    between atoms: C_25  and  O_27
REMARK                            x       y       z     vdW  Elec       q    Type
REMARK                         _______ _______ _______ _____ _____    ______ ____
ROOT
ATOM      1  O   UNL     1       2.828   6.691  17.853  0.00  0.00    +0.000 OA
ATOM      2  C   UNL     1       2.248   6.551  18.932  0.00  0.00    +0.000 C 
ATOM      3  N   UNL     1       2.066   5.248  19.435  0.00  0.00    +0.000 N 
ATOM      4  C   UNL     1       1.352   4.875  20.655  0.00  0.00    +0.000 C 
ATOM      5  C   UNL     1       2.041   3.743  21.412  0.00  0.00    +0.000 C 
ATOM      6  C   UNL     1       2.503   2.592  20.519  0.00  0.00    +0.000 C 
ATOM      7  C   UNL     1       3.260   3.051  19.238  0.00  0.00    +0.000 C 
ATOM      8  C   UNL     1       2.408   4.131  18.554  0.00  0.00    +0.000 C 
ENDROOT
BRANCH   2   9
ATOM      9  C   UNL     1       1.807   7.711  19.689  0.00  0.00    +0.000 A 
ATOM     10  C   UNL     1       1.560   7.925  21.032  0.00  0.00    +0.000 A 
ATOM     11  N   UNL     1       1.158   9.205  21.381  0.00  0.00    +0.000 NA
ATOM     12  C   UNL     1       1.043   9.933  20.293  0.00  0.00    +0.000 A 
ATOM     13  S   UNL     1       1.392   9.144  18.818  0.00  0.00    +0.000 S 
ENDBRANCH   2   9
BRANCH   7  14
ATOM     14  C   UNL     1       3.327   1.882  18.249  0.00  0.00    +0.000 C 
ATOM     15  O   UNL     1       2.648   1.804  17.236  0.00  0.00    +0.000 OA
BRANCH  14  16
ATOM     16  O   UNL     1       4.201   0.899  18.565  0.00  0.00    +0.000 OA
ATOM     17  H   UNL     1       3.842   0.060  18.908  0.00  0.00    +0.000 HD
ENDBRANCH  14  16
ENDBRANCH   7  14
BRANCH   7  18
ATOM     18  C   UNL     1       4.701   3.543  19.559  0.00  0.00    +0.000 C 
BRANCH  18  19
ATOM     19  C   UNL     1       5.271   4.442  18.510  0.00  0.00    +0.000 A 
ATOM     20  C   UNL     1       5.624   4.176  17.204  0.00  0.00    +0.000 A 
ATOM     21  N   UNL     1       6.399   5.248  16.853  0.00  0.00    +0.000 N 
ATOM     22  N   UNL     1       6.341   6.208  17.796  0.00  0.00    +0.000 NA
ATOM     23  N   UNL     1       5.658   5.719  18.823  0.00  0.00    +0.000 NA
BRANCH  21  24
ATOM     24  C   UNL     1       7.437   5.276  15.835  0.00  0.00    +0.000 C 
BRANCH  24  25
ATOM     25  C   UNL     1       6.959   4.693  14.548  0.00  0.00    +0.000 A 
ATOM     26  C   UNL     1       5.846   3.906  14.331  0.00  0.00    +0.000 A 
ATOM     27  C   UNL     1       5.711   3.527  12.966  0.00  0.00    +0.000 A 
ATOM     28  C   UNL     1       6.711   4.057  12.181  0.00  0.00    +0.000 A 
ATOM     29  S   UNL     1       7.803   5.008  13.089  0.00  0.00    +0.000 S 
ENDBRANCH  24  25
ENDBRANCH  21  24
ENDBRANCH  18  19
ENDBRANCH   7  18
TORSDOF 7
ENDMDL
MODEL 5
REMARK VINA RESULT:      -6.7      1.531      1.930
REMARK  Name = 
REMARK  7 active torsions:
REMARK  status: ('A' for Active; 'I' for Inactive)
REMARK    1  A    between atoms: C_2  and  C_3
REMARK    2  A    between atoms: C_12  and  C_13
REMARK    3  A    between atoms: C_12  and  C_25
REMARK    4  A    between atoms: C_13  and  C_14
REMARK    5  A    between atoms: N_16  and  C_17
REMARK    6  A    between atoms: C_17  and  C_18
REMARK    7  A    between atoms: C_25  and  O_27
REMARK                            x       y       z     vdW  Elec       q    Type
REMARK                         _______ _______ _______ _____ _____    ______ ____
ROOT
ATOM      1  O   UNL     1       6.176   3.980  19.280  0.00  0.00    +0.000 OA
ATOM      2  C   UNL     1       5.537   4.241  18.259  0.00  0.00    +0.000 C 
ATOM      3  N   UNL     1       4.131   4.169  18.308  0.00  0.00    +0.000 N 
ATOM      4  C   UNL     1       3.207   4.377  17.193  0.00  0.00    +0.000 C 
ATOM      5  C   UNL     1       1.951   5.137  17.611  0.00  0.00    +0.000 C 
ATOM      6  C   UNL     1       1.335   4.644  18.919  0.00  0.00    +0.000 C 
ATOM      7  C   UNL     1       2.366   4.445  20.068  0.00  0.00    +0.000 C 
ATOM      8  C   UNL     1       3.526   3.603  19.514  0.00  0.00    +0.000 C 
ENDROOT
BRANCH   2   9
ATOM      9  C   UNL     1       6.221   4.662  17.047  0.00  0.00    +0.000 A 
ATOM     10  C   UNL     1       6.995   5.764  16.734  0.00  0.00    +0.000 A 
ATOM     11  N   UNL     1       7.499   5.806  15.443  0.00  0.00    +0.000 NA
ATOM     12  C   UNL     1       7.053   4.768  14.771  0.00  0.00    +0.000 A 
ATOM     13  S   UNL     1       6.017   3.708  15.622  0.00  0.00    +0.000 S 
ENDBRANCH   2   9
BRANCH   7  14
ATOM     14  C   UNL     1       1.727   3.598  21.175  0.00  0.00    +0.000 C 
ATOM     15  O   UNL     1       2.217   3.438  22.283  0.00  0.00    +0.000 OA
BRANCH  14  16
ATOM     16  O   UNL     1       0.554   3.007  20.854  0.00  0.00    +0.000 OA
ATOM     17  H   UNL     1       0.584   2.192  20.319  0.00  0.00    +0.000 HD
ENDBRANCH  14  16
ENDBRANCH   7  14
BRANCH   7  18
ATOM     18  C   UNL     1       2.845   5.801  20.662  0.00  0.00    +0.000 C 
BRANCH  18  19
ATOM     19  C   UNL     1       1.926   6.940  20.365  0.00  0.00    +0.000 A 
ATOM     20  C   UNL     1       1.984   7.896  19.373  0.00  0.00    +0.000 A 
ATOM     21  N   UNL     1       1.111   8.860  19.801  0.00  0.00    +0.000 N 
ATOM     22  N   UNL     1       0.402   8.425  20.861  0.00  0.00    +0.000 NA
ATOM     23  N   UNL     1       0.902   7.251  21.221  0.00  0.00    +0.000 NA
BRANCH  21  24
ATOM     24  C   UNL     1       1.142  10.274  19.464  0.00  0.00    +0.000 C 
BRANCH  24  25
ATOM     25  C   UNL     1      -0.233  10.839  19.340  0.00  0.00    +0.000 A 
ATOM     26  C   UNL     1      -0.839  11.787  20.140  0.00  0.00    +0.000 A 
ATOM     27  C   UNL     1      -2.168  12.077  19.721  0.00  0.00    +0.000 A 
ATOM     28  C   UNL     1      -2.524  11.359  18.601  0.00  0.00    +0.000 A 
ATOM     29  S   UNL     1      -1.259  10.345  18.059  0.00  0.00    +0.000 S 
ENDBRANCH  24  25
ENDBRANCH  21  24
ENDBRANCH  18  19
ENDBRANCH   7  18
TORSDOF 7
ENDMDL
MODEL 6
REMARK VINA RESULT:      -6.6      1.435      1.907
REMARK  Name = 
REMARK  7 active torsions:
REMARK  status: ('A' for Active; 'I' for Inactive)
REMARK    1  A    between atoms: C_2  and  C_3
REMARK    2  A    between atoms: C_12  and  C_13
REMARK    3  A    between atoms: C_12  and  C_25
REMARK    4  A    between atoms: C_13  and  C_14
REMARK    5  A    between atoms: N_16  and  C_17
REMARK    6  A    between atoms: C_17  and  C_18
REMARK    7  A    between atoms: C_25  and  O_27
REMARK                            x       y       z     vdW  Elec       q    Type
REMARK                         _______ _______ _______ _____ _____    ______ ____
ROOT
ATOM      1  O   UNL     1       6.235   3.982  19.214  0.00  0.00    +0.000 OA
ATOM      2  C   UNL     1       5.572   4.224  18.203  0.00  0.00    +0.000 C 
ATOM      3  N   UNL     1       4.169   4.132  18.279  0.00  0.00    +0.000 N 
ATOM      4  C   UNL     1       3.222   4.317  17.180  0.00  0.00    +0.000 C 
ATOM      5  C   UNL     1       1.963   5.062  17.614  0.00  0.00    +0.000 C 
ATOM      6  C   UNL     1       1.378   4.572  18.938  0.00  0.00    +0.000 C 
ATOM      7  C   UNL     1       2.433   4.398  20.069  0.00  0.00    +0.000 C 
ATOM      8  C   UNL     1       3.595   3.569  19.500  0.00  0.00    +0.000 C 
ENDROOT
BRANCH   2   9
ATOM      9  C   UNL     1       6.228   4.644  16.975  0.00  0.00    +0.000 A 
ATOM     10  C   UNL     1       7.011   5.736  16.648  0.00  0.00    +0.000 A 
ATOM     11  N   UNL     1       7.478   5.780  15.343  0.00  0.00    +0.000 NA
ATOM     12  C   UNL     1       6.994   4.756  14.676  0.00  0.00    +0.000 A 
ATOM     13  S   UNL     1       5.966   3.706  15.548  0.00  0.00    +0.000 S 
ENDBRANCH   2   9
BRANCH   7  14
ATOM     14  C   UNL     1       1.828   3.552  21.195  0.00  0.00    +0.000 C 
ATOM     15  O   UNL     1       0.781   2.929  21.096  0.00  0.00    +0.000 OA
BRANCH  14  16
ATOM     16  O   UNL     1       2.529   3.532  22.352  0.00  0.00    +0.000 OA
ATOM     17  H   UNL     1       2.270   4.156  23.055  0.00  0.00    +0.000 HD
ENDBRANCH  14  16
ENDBRANCH   7  14
BRANCH   7  18
ATOM     18  C   UNL     1       2.903   5.766  20.643  0.00  0.00    +0.000 C 
BRANCH  18  19
ATOM     19  C   UNL     1       1.913   6.867  20.446  0.00  0.00    +0.000 A 
ATOM     20  C   UNL     1       1.911   7.914  19.549  0.00  0.00    +0.000 A 
ATOM     21  N   UNL     1       0.976   8.775  20.058  0.00  0.00    +0.000 N 
ATOM     22  N   UNL     1       0.295   8.198  21.067  0.00  0.00    +0.000 NA
ATOM     23  N   UNL     1       0.869   7.029  21.319  0.00  0.00    +0.000 NA
BRANCH  21  24
ATOM     24  C   UNL     1       0.916  10.214  19.856  0.00  0.00    +0.000 C 
BRANCH  24  25
ATOM     25  C   UNL     1      -0.368  10.625  19.219  0.00  0.00    +0.000 A 
ATOM     26  C   UNL     1      -0.930  10.148  18.052  0.00  0.00    +0.000 A 
ATOM     27  C   UNL     1      -2.167  10.784  17.748  0.00  0.00    +0.000 A 
ATOM     28  C   UNL     1      -2.520  11.709  18.707  0.00  0.00    +0.000 A 
ATOM     29  S   UNL     1      -1.367  11.802  19.965  0.00  0.00    +0.000 S 
ENDBRANCH  24  25
ENDBRANCH  21  24
ENDBRANCH  18  19
ENDBRANCH   7  18
TORSDOF 7
ENDMDL
MODEL 7
REMARK VINA RESULT:      -6.6      5.227      7.756
REMARK  Name = 
REMARK  7 active torsions:
REMARK  status: ('A' for Active; 'I' for Inactive)
REMARK    1  A    between atoms: C_2  and  C_3
REMARK    2  A    between atoms: C_12  and  C_13
REMARK    3  A    between atoms: C_12  and  C_25
REMARK    4  A    between atoms: C_13  and  C_14
REMARK    5  A    between atoms: N_16  and  C_17
REMARK    6  A    between atoms: C_17  and  C_18
REMARK    7  A    between atoms: C_25  and  O_27
REMARK                            x       y       z     vdW  Elec       q    Type
REMARK                         _______ _______ _______ _____ _____    ______ ____
ROOT
ATOM      1  O   UNL     1       2.079   9.098  17.124  0.00  0.00    +0.000 OA
ATOM      2  C   UNL     1       1.942   8.723  18.291  0.00  0.00    +0.000 C 
ATOM      3  N   UNL     1       1.184   9.520  19.171  0.00  0.00    +0.000 N 
ATOM      4  C   UNL     1       0.964   9.279  20.596  0.00  0.00    +0.000 C 
ATOM      5  C   UNL     1      -0.460   9.616  21.032  0.00  0.00    +0.000 C 
ATOM      6  C   UNL     1      -0.979  10.942  20.480  0.00  0.00    +0.000 C 
ATOM      7  C   UNL     1      -0.719  11.140  18.958  0.00  0.00    +0.000 C 
ATOM      8  C   UNL     1       0.765  10.838  18.695  0.00  0.00    +0.000 C 
ENDROOT
BRANCH   2   9
ATOM      9  C   UNL     1       2.513   7.460  18.732  0.00  0.00    +0.000 A 
ATOM     10  C   UNL     1       2.292   6.658  19.836  0.00  0.00    +0.000 A 
ATOM     11  N   UNL     1       3.038   5.491  19.899  0.00  0.00    +0.000 NA
ATOM     12  C   UNL     1       3.863   5.450  18.877  0.00  0.00    +0.000 A 
ATOM     13  S   UNL     1       3.803   6.781  17.806  0.00  0.00    +0.000 S 
ENDBRANCH   2   9
BRANCH   7  14
ATOM     14  C   UNL     1      -0.914  12.617  18.603  0.00  0.00    +0.000 C 
ATOM     15  O   UNL     1      -1.079  13.503  19.428  0.00  0.00    +0.000 OA
BRANCH  14  16
ATOM     16  O   UNL     1      -0.903  12.906  17.281  0.00  0.00    +0.000 OA
ATOM     17  H   UNL     1      -0.710  12.183  16.656  0.00  0.00    +0.000 HD
ENDBRANCH  14  16
ENDBRANCH   7  14
BRANCH   7  18
ATOM     18  C   UNL     1      -1.668  10.266  18.087  0.00  0.00    +0.000 C 
BRANCH  18  19
ATOM     19  C   UNL     1      -3.000  10.895  17.841  0.00  0.00    +0.000 A 
ATOM     20  C   UNL     1      -4.071  11.074  18.692  0.00  0.00    +0.000 A 
ATOM     21  N   UNL     1      -5.108  11.366  17.848  0.00  0.00    +0.000 N 
ATOM     22  N   UNL     1      -4.661  11.572  16.594  0.00  0.00    +0.000 NA
ATOM     23  N   UNL     1      -3.368  11.276  16.578  0.00  0.00    +0.000 NA
BRANCH  21  24
ATOM     24  C   UNL     1      -6.523  11.142  18.098  0.00  0.00    +0.000 C 
BRANCH  24  25
ATOM     25  C   UNL     1      -6.952  11.740  19.396  0.00  0.00    +0.000 A 
ATOM     26  C   UNL     1      -7.409  11.087  20.524  0.00  0.00    +0.000 A 
ATOM     27  C   UNL     1      -7.734  11.989  21.575  0.00  0.00    +0.000 A 
ATOM     28  C   UNL     1      -7.493  13.299  21.224  0.00  0.00    +0.000 A 
ATOM     29  S   UNL     1      -6.874  13.435  19.637  0.00  0.00    +0.000 S 
ENDBRANCH  24  25
ENDBRANCH  21  24
ENDBRANCH  18  19
ENDBRANCH   7  18
TORSDOF 7
ENDMDL
MODEL 8
REMARK VINA RESULT:      -6.6      2.183      7.219
REMARK  Name = 
REMARK  7 active torsions:
REMARK  status: ('A' for Active; 'I' for Inactive)
REMARK    1  A    between atoms: C_2  and  C_3
REMARK    2  A    between atoms: C_12  and  C_13
REMARK    3  A    between atoms: C_12  and  C_25
REMARK    4  A    between atoms: C_13  and  C_14
REMARK    5  A    between atoms: N_16  and  C_17
REMARK    6  A    between atoms: C_17  and  C_18
REMARK    7  A    between atoms: C_25  and  O_27
REMARK                            x       y       z     vdW  Elec       q    Type
REMARK                         _______ _______ _______ _____ _____    ______ ____
ROOT
ATOM      1  O   UNL     1       2.848   8.055  18.395  0.00  0.00    +0.000 OA
ATOM      2  C   UNL     1       2.207   7.635  19.361  0.00  0.00    +0.000 C 
ATOM      3  N   UNL     1       2.153   6.245  19.581  0.00  0.00    +0.000 N 
ATOM      4  C   UNL     1       1.397   5.556  20.626  0.00  0.00    +0.000 C 
ATOM      5  C   UNL     1       2.162   4.374  21.215  0.00  0.00    +0.000 C 
ATOM      6  C   UNL     1       2.834   3.487  20.168  0.00  0.00    +0.000 C 
ATOM      7  C   UNL     1       3.625   4.277  19.085  0.00  0.00    +0.000 C 
ATOM      8  C   UNL     1       2.700   5.376  18.540  0.00  0.00    +0.000 C 
ENDROOT
BRANCH   2   9
ATOM      9  C   UNL     1       1.566   8.562  20.279  0.00  0.00    +0.000 A 
ATOM     10  C   UNL     1       1.460   8.605  21.657  0.00  0.00    +0.000 A 
ATOM     11  N   UNL     1       0.764   9.684  22.180  0.00  0.00    +0.000 NA
ATOM     12  C   UNL     1       0.295  10.415  21.194  0.00  0.00    +0.000 A 
ATOM     13  S   UNL     1       0.643   9.862  19.615  0.00  0.00    +0.000 S 
ENDBRANCH   2   9
BRANCH   7  14
ATOM     14  C   UNL     1       3.916   3.349  17.900  0.00  0.00    +0.000 C 
ATOM     15  O   UNL     1       3.691   3.638  16.734  0.00  0.00    +0.000 OA
BRANCH  14  16
ATOM     16  O   UNL     1       4.447   2.146  18.217  0.00  0.00    +0.000 OA
ATOM     17  H   UNL     1       4.501   1.903  19.159  0.00  0.00    +0.000 HD
ENDBRANCH  14  16
ENDBRANCH   7  14
BRANCH   7  18
ATOM     18  C   UNL     1       4.963   4.846  19.640  0.00  0.00    +0.000 C 
BRANCH  18  19
ATOM     19  C   UNL     1       5.976   5.130  18.579  0.00  0.00    +0.000 A 
ATOM     20  C   UNL     1       6.096   6.208  17.728  0.00  0.00    +0.000 A 
ATOM     21  N   UNL     1       6.963   5.766  16.766  0.00  0.00    +0.000 N 
ATOM     22  N   UNL     1       7.510   4.587  17.122  0.00  0.00    +0.000 NA
ATOM     23  N   UNL     1       6.903   4.183  18.230  0.00  0.00    +0.000 NA
BRANCH  21  24
ATOM     24  C   UNL     1       7.056   6.238  15.394  0.00  0.00    +0.000 C 
BRANCH  24  25
ATOM     25  C   UNL     1       6.654   5.181  14.422  0.00  0.00    +0.000 A 
ATOM     26  C   UNL     1       5.531   4.377  14.455  0.00  0.00    +0.000 A 
ATOM     27  C   UNL     1       5.483   3.473  13.357  0.00  0.00    +0.000 A 
ATOM     28  C   UNL     1       6.557   3.631  12.510  0.00  0.00    +0.000 A 
ATOM     29  S   UNL     1       7.613   4.868  13.036  0.00  0.00    +0.000 S 
ENDBRANCH  24  25
ENDBRANCH  21  24
ENDBRANCH  18  19
ENDBRANCH   7  18
TORSDOF 7
ENDMDL
MODEL 9
REMARK VINA RESULT:      -6.5      3.432      5.271
REMARK  Name = 
REMARK  7 active torsions:
REMARK  status: ('A' for Active; 'I' for Inactive)
REMARK    1  A    between atoms: C_2  and  C_3
REMARK    2  A    between atoms: C_12  and  C_13
REMARK    3  A    between atoms: C_12  and  C_25
REMARK    4  A    between atoms: C_13  and  C_14
REMARK    5  A    between atoms: N_16  and  C_17
REMARK    6  A    between atoms: C_17  and  C_18
REMARK    7  A    between atoms: C_25  and  O_27
REMARK                            x       y       z     vdW  Elec       q    Type
REMARK                         _______ _______ _______ _____ _____    ______ ____
ROOT
ATOM      1  O   UNL     1       7.415   5.419  13.888  0.00  0.00    +0.000 OA
ATOM      2  C   UNL     1       6.641   4.485  14.111  0.00  0.00    +0.000 C 
ATOM      3  N   UNL     1       6.336   4.168  15.449  0.00  0.00    +0.000 N 
ATOM      4  C   UNL     1       5.497   3.064  15.914  0.00  0.00    +0.000 C 
ATOM      5  C   UNL     1       4.623   3.457  17.102  0.00  0.00    +0.000 C 
ATOM      6  C   UNL     1       5.361   4.248  18.180  0.00  0.00    +0.000 C 
ATOM      7  C   UNL     1       6.233   5.412  17.624  0.00  0.00    +0.000 C 
ATOM      8  C   UNL     1       7.105   4.842  16.494  0.00  0.00    +0.000 C 
ENDROOT
BRANCH   2   9
ATOM      9  C   UNL     1       6.020   3.763  13.012  0.00  0.00    +0.000 A 
ATOM     10  C   UNL     1       4.715   3.660  12.567  0.00  0.00    +0.000 A 
ATOM     11  N   UNL     1       4.515   2.868  11.448  0.00  0.00    +0.000 NA
ATOM     12  C   UNL     1       5.659   2.328  11.091  0.00  0.00    +0.000 A 
ATOM     13  S   UNL     1       7.012   2.719  12.058  0.00  0.00    +0.000 S 
ENDBRANCH   2   9
BRANCH   7  14
ATOM     14  C   UNL     1       7.209   5.872  18.713  0.00  0.00    +0.000 C 
ATOM     15  O   UNL     1       7.335   5.321  19.796  0.00  0.00    +0.000 OA
BRANCH  14  16
ATOM     16  O   UNL     1       7.948   6.964  18.411  0.00  0.00    +0.000 OA
ATOM     17  H   UNL     1       8.774   6.833  17.910  0.00  0.00    +0.000 HD
ENDBRANCH  14  16
ENDBRANCH   7  14
BRANCH   7  18
ATOM     18  C   UNL     1       5.368   6.618  17.158  0.00  0.00    +0.000 C 
BRANCH  18  19
ATOM     19  C   UNL     1       4.225   6.920  18.072  0.00  0.00    +0.000 A 
ATOM     20  C   UNL     1       3.928   6.420  19.322  0.00  0.00    +0.000 A 
ATOM     21  N   UNL     1       2.619   6.773  19.509  0.00  0.00    +0.000 N 
ATOM     22  N   UNL     1       2.210   7.619  18.544  0.00  0.00    +0.000 NA
ATOM     23  N   UNL     1       3.186   7.709  17.651  0.00  0.00    +0.000 NA
BRANCH  21  24
ATOM     24  C   UNL     1       1.649   6.102  20.361  0.00  0.00    +0.000 C 
BRANCH  24  25
ATOM     25  C   UNL     1       1.619   4.633  20.107  0.00  0.00    +0.000 A 
ATOM     26  C   UNL     1       1.342   3.979  18.922  0.00  0.00    +0.000 A 
ATOM     27  C   UNL     1       1.399   2.564  19.061  0.00  0.00    +0.000 A 
ATOM     28  C   UNL     1       1.740   2.184  20.340  0.00  0.00    +0.000 A 
ATOM     29  S   UNL     1       1.994   3.529  21.363  0.00  0.00    +0.000 S 
ENDBRANCH  24  25
ENDBRANCH  21  24
ENDBRANCH  18  19
ENDBRANCH   7  18
TORSDOF 7
ENDMDL
