MODEL 1
REMARK VINA RESULT:      -8.8      0.000      0.000
REMARK  Name = 
REMARK  7 active torsions:
REMARK  status: ('A' for Active; 'I' for Inactive)
REMARK    1  A    between atoms: C_1  and  C_2
REMARK    2  A    between atoms: N_4  and  C_5
REMARK    3  A    between atoms: C_5  and  C_6
REMARK    4  A    between atoms: C_5  and  C_25
REMARK    5  A    between atoms: C_6  and  C_7
REMARK    6  A    between atoms: N_9  and  C_10
REMARK    7  A    between atoms: C_14  and  C_15
REMARK                            x       y       z     vdW  Elec       q    Type
REMARK                         _______ _______ _______ _____ _____    ______ ____
ROOT
ATOM      1  C   UNL     1       2.026   8.381  18.467  0.00  0.00    +0.000 C 
ATOM      2  O   UNL     1       1.939   8.313  19.692  0.00  0.00    +0.000 OA
ATOM      3  N   UNL     1       1.594   9.468  17.720  0.00  0.00    +0.000 N 
ATOM      4  H   UNL     1       1.421   9.284  16.735  0.00  0.00    +0.000 HD
ENDROOT
BRANCH   3   5
ATOM      5  C   UNL     1       0.899  10.554  18.300  0.00  0.00    +0.000 A 
ATOM      6  C   UNL     1       1.636  11.659  18.716  0.00  0.00    +0.000 A 
ATOM      7  C   UNL     1       0.977  12.805  19.161  0.00  0.00    +0.000 A 
ATOM      8  C   UNL     1      -0.422  12.843  19.218  0.00  0.00    +0.000 A 
ATOM      9  C   UNL     1      -1.183  11.733  18.833  0.00  0.00    +0.000 A 
ATOM     10  C   UNL     1      -0.499  10.581  18.405  0.00  0.00    +0.000 A 
BRANCH   9  11
ATOM     11  C   UNL     1      -2.653  11.787  18.838  0.00  0.00    +0.000 A 
ATOM     12  N   UNL     1      -3.493  11.056  18.121  0.00  0.00    +0.000 NA
ATOM     13  C   UNL     1      -4.764  11.481  18.462  0.00  0.00    +0.000 A 
ATOM     14  C   UNL     1      -6.020  11.070  17.998  0.00  0.00    +0.000 A 
ATOM     15  C   UNL     1      -7.168  11.697  18.516  0.00  0.00    +0.000 A 
ATOM     16  C   UNL     1      -7.076  12.705  19.479  0.00  0.00    +0.000 A 
ATOM     17  C   UNL     1      -5.829  13.108  19.965  0.00  0.00    +0.000 A 
ATOM     18  C   UNL     1      -4.705  12.475  19.428  0.00  0.00    +0.000 A 
ATOM     19  N   UNL     1      -3.367  12.621  19.674  0.00  0.00    +0.000 N 
ATOM     20  H   UNL     1      -2.957  13.235  20.360  0.00  0.00    +0.000 HD
ENDBRANCH   9  11
ENDBRANCH   3   5
BRANCH   1  21
ATOM     21  C   UNL     1       2.649   7.268  17.642  0.00  0.00    +0.000 C 
BRANCH  21  22
ATOM     22  C   UNL     1       3.478   6.254  18.458  0.00  0.00    +0.000 C 
BRANCH  22  23
ATOM     23  C   UNL     1       2.628   5.075  18.934  0.00  0.00    +0.000 A 
ATOM     24  C   UNL     1       2.265   4.959  20.285  0.00  0.00    +0.000 A 
ATOM     25  C   UNL     1       1.371   3.965  20.698  0.00  0.00    +0.000 A 
ATOM     26  C   UNL     1       0.834   3.073  19.772  0.00  0.00    +0.000 A 
ATOM     27  C   UNL     1       1.201   3.159  18.433  0.00  0.00    +0.000 A 
ATOM     28  C   UNL     1       2.096   4.146  18.020  0.00  0.00    +0.000 A 
ENDBRANCH  22  23
BRANCH  22  32
ATOM     29  C   UNL     1       6.951   4.918  17.582  0.00  0.00    +0.000 C 
ATOM     30  C   UNL     1       5.854   5.376  18.507  0.00  0.00    +0.000 C 
ATOM     31  O   UNL     1       5.997   5.406  19.724  0.00  0.00    +0.000 OA
ATOM     32  N   UNL     1       4.717   5.768  17.845  0.00  0.00    +0.000 N 
ATOM     33  H   UNL     1       4.633   5.482  16.876  0.00  0.00    +0.000 HD
ENDBRANCH  22  32
ENDBRANCH  21  22
ENDBRANCH   1  21
TORSDOF 6
ENDMDL
MODEL 2
REMARK VINA RESULT:      -8.7      0.307      1.081
REMARK  Name = 
REMARK  7 active torsions:
REMARK  status: ('A' for Active; 'I' for Inactive)
REMARK    1  A    between atoms: C_1  and  C_2
REMARK    2  A    between atoms: N_4  and  C_5
REMARK    3  A    between atoms: C_5  and  C_6
REMARK    4  A    between atoms: C_5  and  C_25
REMARK    5  A    between atoms: C_6  and  C_7
REMARK    6  A    between atoms: N_9  and  C_10
REMARK    7  A    between atoms: C_14  and  C_15
REMARK                            x       y       z     vdW  Elec       q    Type
REMARK                         _______ _______ _______ _____ _____    ______ ____
ROOT
ATOM      1  C   UNL     1       2.101   8.226  18.508  0.00  0.00    +0.000 C 
ATOM      2  O   UNL     1       2.011   8.191  19.734  0.00  0.00    +0.000 OA
ATOM      3  N   UNL     1       1.738   9.320  17.736  0.00  0.00    +0.000 N 
ATOM      4  H   UNL     1       1.554   9.125  16.755  0.00  0.00    +0.000 HD
ENDROOT
BRANCH   3   5
ATOM      5  C   UNL     1       1.114  10.461  18.290  0.00  0.00    +0.000 A 
ATOM      6  C   UNL     1       1.907  11.565  18.591  0.00  0.00    +0.000 A 
ATOM      7  C   UNL     1       1.311  12.756  19.004  0.00  0.00    +0.000 A 
ATOM      8  C   UNL     1      -0.080  12.842  19.147  0.00  0.00    +0.000 A 
ATOM      9  C   UNL     1      -0.895  11.736  18.881  0.00  0.00    +0.000 A 
ATOM     10  C   UNL     1      -0.273  10.539  18.482  0.00  0.00    +0.000 A 
BRANCH   9  11
ATOM     11  C   UNL     1      -2.360  11.838  18.976  0.00  0.00    +0.000 A 
ATOM     12  N   UNL     1      -3.071  12.413  19.934  0.00  0.00    +0.000 NA
ATOM     13  C   UNL     1      -4.399  12.238  19.588  0.00  0.00    +0.000 A 
ATOM     14  C   UNL     1      -5.573  12.625  20.245  0.00  0.00    +0.000 A 
ATOM     15  C   UNL     1      -6.811  12.296  19.664  0.00  0.00    +0.000 A 
ATOM     16  C   UNL     1      -6.886  11.606  18.451  0.00  0.00    +0.000 A 
ATOM     17  C   UNL     1      -5.720  11.234  17.775  0.00  0.00    +0.000 A 
ATOM     18  C   UNL     1      -4.505  11.566  18.379  0.00  0.00    +0.000 A 
ATOM     19  N   UNL     1      -3.206  11.360  17.998  0.00  0.00    +0.000 N 
ATOM     20  H   UNL     1      -2.905  10.932  17.136  0.00  0.00    +0.000 HD
ENDBRANCH   9  11
ENDBRANCH   3   5
BRANCH   1  21
ATOM     21  C   UNL     1       2.652   7.057  17.709  0.00  0.00    +0.000 C 
BRANCH  21  22
ATOM     22  C   UNL     1       3.470   6.044  18.537  0.00  0.00    +0.000 C 
BRANCH  22  23
ATOM     23  C   UNL     1       2.605   4.885  19.035  0.00  0.00    +0.000 A 
ATOM     24  C   UNL     1       2.286   4.769  20.397  0.00  0.00    +0.000 A 
ATOM     25  C   UNL     1       1.380   3.796  20.834  0.00  0.00    +0.000 A 
ATOM     26  C   UNL     1       0.788   2.926  19.921  0.00  0.00    +0.000 A 
ATOM     27  C   UNL     1       1.111   3.012  18.571  0.00  0.00    +0.000 A 
ATOM     28  C   UNL     1       2.017   3.978  18.134  0.00  0.00    +0.000 A 
ENDBRANCH  22  23
BRANCH  22  32
ATOM     29  C   UNL     1       6.952   4.731  17.661  0.00  0.00    +0.000 C 
ATOM     30  C   UNL     1       5.878   5.258  18.577  0.00  0.00    +0.000 C 
ATOM     31  O   UNL     1       6.073   5.437  19.774  0.00  0.00    +0.000 OA
ATOM     32  N   UNL     1       4.700   5.531  17.928  0.00  0.00    +0.000 N 
ATOM     33  H   UNL     1       4.585   5.129  17.004  0.00  0.00    +0.000 HD
ENDBRANCH  22  32
ENDBRANCH  21  22
ENDBRANCH   1  21
TORSDOF 6
ENDMDL
MODEL 3
REMARK VINA RESULT:      -8.5      3.781      6.778
REMARK  Name = 
REMARK  7 active torsions:
REMARK  status: ('A' for Active; 'I' for Inactive)
REMARK    1  A    between atoms: C_1  and  C_2
REMARK    2  A    between atoms: N_4  and  C_5
REMARK    3  A    between atoms: C_5  and  C_6
REMARK    4  A    between atoms: C_5  and  C_25
REMARK    5  A    between atoms: C_6  and  C_7
REMARK    6  A    between atoms: N_9  and  C_10
REMARK    7  A    between atoms: C_14  and  C_15
REMARK                            x       y       z     vdW  Elec       q    Type
REMARK                         _______ _______ _______ _____ _____    ______ ____
ROOT
ATOM      1  C   UNL     1       5.235   4.404  17.410  0.00  0.00    +0.000 C 
ATOM      2  O   UNL     1       4.454   4.988  16.660  0.00  0.00    +0.000 OA
ATOM      3  N   UNL     1       4.936   4.058  18.720  0.00  0.00    +0.000 N 
ATOM      4  H   UNL     1       5.737   3.882  19.322  0.00  0.00    +0.000 HD
ENDROOT
BRANCH   3   5
ATOM      5  C   UNL     1       3.737   4.458  19.352  0.00  0.00    +0.000 A 
ATOM      6  C   UNL     1       3.040   3.514  20.100  0.00  0.00    +0.000 A 
ATOM      7  C   UNL     1       1.933   3.904  20.853  0.00  0.00    +0.000 A 
ATOM      8  C   UNL     1       1.498   5.236  20.839  0.00  0.00    +0.000 A 
ATOM      9  C   UNL     1       2.164   6.197  20.070  0.00  0.00    +0.000 A 
ATOM     10  C   UNL     1       3.267   5.779  19.305  0.00  0.00    +0.000 A 
BRANCH   9  11
ATOM     11  C   UNL     1       1.745   7.607  20.096  0.00  0.00    +0.000 A 
ATOM     12  N   UNL     1       1.243   8.283  21.118  0.00  0.00    +0.000 NA
ATOM     13  C   UNL     1       0.994   9.561  20.650  0.00  0.00    +0.000 A 
ATOM     14  C   UNL     1       0.448  10.679  21.293  0.00  0.00    +0.000 A 
ATOM     15  C   UNL     1       0.290  11.868  20.559  0.00  0.00    +0.000 A 
ATOM     16  C   UNL     1       0.671  11.953  19.217  0.00  0.00    +0.000 A 
ATOM     17  C   UNL     1       1.237  10.850  18.572  0.00  0.00    +0.000 A 
ATOM     18  C   UNL     1       1.376   9.679  19.322  0.00  0.00    +0.000 A 
ATOM     19  N   UNL     1       1.880   8.446  19.010  0.00  0.00    +0.000 N 
ATOM     20  H   UNL     1       2.293   8.183  18.128  0.00  0.00    +0.000 HD
ENDBRANCH   9  11
ENDBRANCH   3   5
BRANCH   1  21
ATOM     21  C   UNL     1       6.619   3.977  16.954  0.00  0.00    +0.000 C 
BRANCH  21  22
ATOM     22  C   UNL     1       7.350   5.010  16.072  0.00  0.00    +0.000 C 
BRANCH  22  23
ATOM     23  C   UNL     1       7.088   4.776  14.584  0.00  0.00    +0.000 A 
ATOM     24  C   UNL     1       7.836   5.460  13.613  0.00  0.00    +0.000 A 
ATOM     25  C   UNL     1       7.700   5.144  12.257  0.00  0.00    +0.000 A 
ATOM     26  C   UNL     1       6.814   4.147  11.853  0.00  0.00    +0.000 A 
ATOM     27  C   UNL     1       6.049   3.475  12.799  0.00  0.00    +0.000 A 
ATOM     28  C   UNL     1       6.179   3.792  14.151  0.00  0.00    +0.000 A 
ENDBRANCH  22  23
BRANCH  22  32
ATOM     29  C   UNL     1       7.180   8.516  17.588  0.00  0.00    +0.000 C 
ATOM     30  C   UNL     1       7.527   7.050  17.564  0.00  0.00    +0.000 C 
ATOM     31  O   UNL     1       8.074   6.494  18.510  0.00  0.00    +0.000 OA
ATOM     32  N   UNL     1       7.147   6.423  16.403  0.00  0.00    +0.000 N 
ATOM     33  H   UNL     1       6.922   7.021  15.616  0.00  0.00    +0.000 HD
ENDBRANCH  22  32
ENDBRANCH  21  22
ENDBRANCH   1  21
TORSDOF 6
ENDMDL
MODEL 4
REMARK VINA RESULT:      -8.4      0.828      1.562
REMARK  Name = 
REMARK  7 active torsions:
REMARK  status: ('A' for Active; 'I' for Inactive)
REMARK    1  A    between atoms: C_1  and  C_2
REMARK    2  A    between atoms: N_4  and  C_5
REMARK    3  A    between atoms: C_5  and  C_6
REMARK    4  A    between atoms: C_5  and  C_25
REMARK    5  A    between atoms: C_6  and  C_7
REMARK    6  A    between atoms: N_9  and  C_10
REMARK    7  A    between atoms: C_14  and  C_15
REMARK                            x       y       z     vdW  Elec       q    Type
REMARK                         _______ _______ _______ _____ _____    ______ ____
ROOT
ATOM      1  C   UNL     1       1.947   8.501  18.832  0.00  0.00    +0.000 C 
ATOM      2  O   UNL     1       1.614   8.478  20.015  0.00  0.00    +0.000 OA
ATOM      3  N   UNL     1       1.779   9.601  18.003  0.00  0.00    +0.000 N 
ATOM      4  H   UNL     1       1.788   9.406  17.005  0.00  0.00    +0.000 HD
ENDROOT
BRANCH   3   5
ATOM      5  C   UNL     1       1.093  10.764  18.422  0.00  0.00    +0.000 A 
ATOM      6  C   UNL     1       1.827  11.932  18.606  0.00  0.00    +0.000 A 
ATOM      7  C   UNL     1       1.169  13.130  18.879  0.00  0.00    +0.000 A 
ATOM      8  C   UNL     1      -0.227  13.163  18.998  0.00  0.00    +0.000 A 
ATOM      9  C   UNL     1      -0.984  11.996  18.848  0.00  0.00    +0.000 A 
ATOM     10  C   UNL     1      -0.299  10.795  18.590  0.00  0.00    +0.000 A 
BRANCH   9  11
ATOM     11  C   UNL     1      -2.453  12.035  18.916  0.00  0.00    +0.000 A 
ATOM     12  N   UNL     1      -3.206  12.404  19.942  0.00  0.00    +0.000 NA
ATOM     13  C   UNL     1      -4.518  12.257  19.531  0.00  0.00    +0.000 A 
ATOM     14  C   UNL     1      -5.721  12.482  20.212  0.00  0.00    +0.000 A 
ATOM     15  C   UNL     1      -6.932  12.228  19.545  0.00  0.00    +0.000 A 
ATOM     16  C   UNL     1      -6.955  11.769  18.225  0.00  0.00    +0.000 A 
ATOM     17  C   UNL     1      -5.762  11.561  17.528  0.00  0.00    +0.000 A 
ATOM     18  C   UNL     1      -4.573  11.814  18.217  0.00  0.00    +0.000 A 
ATOM     19  N   UNL     1      -3.259  11.719  17.843  0.00  0.00    +0.000 N 
ATOM     20  H   UNL     1      -2.924  11.465  16.927  0.00  0.00    +0.000 HD
ENDBRANCH   9  11
ENDBRANCH   3   5
BRANCH   1  21
ATOM     21  C   UNL     1       2.610   7.311  18.159  0.00  0.00    +0.000 C 
BRANCH  21  22
ATOM     22  C   UNL     1       3.190   6.266  19.135  0.00  0.00    +0.000 C 
BRANCH  22  23
ATOM     23  C   UNL     1       2.265   5.058  19.291  0.00  0.00    +0.000 A 
ATOM     24  C   UNL     1       1.917   4.280  18.176  0.00  0.00    +0.000 A 
ATOM     25  C   UNL     1       1.190   3.095  18.335  0.00  0.00    +0.000 A 
ATOM     26  C   UNL     1       0.798   2.676  19.605  0.00  0.00    +0.000 A 
ATOM     27  C   UNL     1       1.114   3.447  20.718  0.00  0.00    +0.000 A 
ATOM     28  C   UNL     1       1.834   4.631  20.561  0.00  0.00    +0.000 A 
ENDBRANCH  22  23
BRANCH  22  32
ATOM     29  C   UNL     1       6.594   5.209  17.751  0.00  0.00    +0.000 C 
ATOM     30  C   UNL     1       5.165   5.679  17.660  0.00  0.00    +0.000 C 
ATOM     31  O   UNL     1       4.613   5.886  16.585  0.00  0.00    +0.000 OA
ATOM     32  N   UNL     1       4.564   5.820  18.886  0.00  0.00    +0.000 N 
ATOM     33  H   UNL     1       5.176   5.848  19.693  0.00  0.00    +0.000 HD
ENDBRANCH  22  32
ENDBRANCH  21  22
ENDBRANCH   1  21
TORSDOF 6
ENDMDL
MODEL 5
REMARK VINA RESULT:      -8.4      0.686      1.105
REMARK  Name = 
REMARK  7 active torsions:
REMARK  status: ('A' for Active; 'I' for Inactive)
REMARK    1  A    between atoms: C_1  and  C_2
REMARK    2  A    between atoms: N_4  and  C_5
REMARK    3  A    between atoms: C_5  and  C_6
REMARK    4  A    between atoms: C_5  and  C_25
REMARK    5  A    between atoms: C_6  and  C_7
REMARK    6  A    between atoms: N_9  and  C_10
REMARK    7  A    between atoms: C_14  and  C_15
REMARK                            x       y       z     vdW  Elec       q    Type
REMARK                         _______ _______ _______ _____ _____    ______ ____
ROOT
ATOM      1  C   UNL     1       2.091   8.071  18.507  0.00  0.00    +0.000 C 
ATOM      2  O   UNL     1       2.048   8.093  19.736  0.00  0.00    +0.000 OA
ATOM      3  N   UNL     1       1.656   9.112  17.700  0.00  0.00    +0.000 N 
ATOM      4  H   UNL     1       1.444   8.863  16.737  0.00  0.00    +0.000 HD
ENDROOT
BRANCH   3   5
ATOM      5  C   UNL     1       1.008  10.253  18.223  0.00  0.00    +0.000 A 
ATOM      6  C   UNL     1       1.787  11.356  18.563  0.00  0.00    +0.000 A 
ATOM      7  C   UNL     1       1.174  12.547  18.947  0.00  0.00    +0.000 A 
ATOM      8  C   UNL     1      -0.222  12.636  19.022  0.00  0.00    +0.000 A 
ATOM      9  C   UNL     1      -1.026  11.532  18.715  0.00  0.00    +0.000 A 
ATOM     10  C   UNL     1      -0.387  10.335  18.347  0.00  0.00    +0.000 A 
BRANCH   9  11
ATOM     11  C   UNL     1      -2.493  11.637  18.738  0.00  0.00    +0.000 A 
ATOM     12  N   UNL     1      -3.365  10.942  18.023  0.00  0.00    +0.000 NA
ATOM     13  C   UNL     1      -4.617  11.406  18.383  0.00  0.00    +0.000 A 
ATOM     14  C   UNL     1      -5.892  11.043  17.931  0.00  0.00    +0.000 A 
ATOM     15  C   UNL     1      -7.011  11.704  18.468  0.00  0.00    +0.000 A 
ATOM     16  C   UNL     1      -6.874  12.698  19.440  0.00  0.00    +0.000 A 
ATOM     17  C   UNL     1      -5.608  13.054  19.914  0.00  0.00    +0.000 A 
ATOM     18  C   UNL     1      -4.513  12.387  19.359  0.00  0.00    +0.000 A 
ATOM     19  N   UNL     1      -3.168  12.485  19.590  0.00  0.00    +0.000 N 
ATOM     20  H   UNL     1      -2.729  13.078  20.277  0.00  0.00    +0.000 HD
ENDBRANCH   9  11
ENDBRANCH   3   5
BRANCH   1  21
ATOM     21  C   UNL     1       2.659   6.886  17.744  0.00  0.00    +0.000 C 
BRANCH  21  22
ATOM     22  C   UNL     1       3.457   5.890  18.610  0.00  0.00    +0.000 C 
BRANCH  22  23
ATOM     23  C   UNL     1       2.544   4.868  19.289  0.00  0.00    +0.000 A 
ATOM     24  C   UNL     1       1.761   3.992  18.522  0.00  0.00    +0.000 A 
ATOM     25  C   UNL     1       1.036   2.964  19.134  0.00  0.00    +0.000 A 
ATOM     26  C   UNL     1       1.079   2.801  20.518  0.00  0.00    +0.000 A 
ATOM     27  C   UNL     1       1.831   3.675  21.295  0.00  0.00    +0.000 A 
ATOM     28  C   UNL     1       2.550   4.703  20.687  0.00  0.00    +0.000 A 
ENDBRANCH  22  23
BRANCH  22  32
ATOM     29  C   UNL     1       6.694   4.819  16.881  0.00  0.00    +0.000 C 
ATOM     30  C   UNL     1       5.720   5.803  17.475  0.00  0.00    +0.000 C 
ATOM     31  O   UNL     1       5.936   7.010  17.484  0.00  0.00    +0.000 OA
ATOM     32  N   UNL     1       4.584   5.210  17.966  0.00  0.00    +0.000 N 
ATOM     33  H   UNL     1       4.621   4.207  18.113  0.00  0.00    +0.000 HD
ENDBRANCH  22  32
ENDBRANCH  21  22
ENDBRANCH   1  21
TORSDOF 6
ENDMDL
MODEL 6
REMARK VINA RESULT:      -8.4      3.716      5.965
REMARK  Name = 
REMARK  7 active torsions:
REMARK  status: ('A' for Active; 'I' for Inactive)
REMARK    1  A    between atoms: C_1  and  C_2
REMARK    2  A    between atoms: N_4  and  C_5
REMARK    3  A    between atoms: C_5  and  C_6
REMARK    4  A    between atoms: C_5  and  C_25
REMARK    5  A    between atoms: C_6  and  C_7
REMARK    6  A    between atoms: N_9  and  C_10
REMARK    7  A    between atoms: C_14  and  C_15
REMARK                            x       y       z     vdW  Elec       q    Type
REMARK                         _______ _______ _______ _____ _____    ______ ____
ROOT
ATOM      1  C   UNL     1       4.453   4.903  17.753  0.00  0.00    +0.000 C 
ATOM      2  O   UNL     1       4.998   4.828  18.853  0.00  0.00    +0.000 OA
ATOM      3  N   UNL     1       3.298   5.632  17.511  0.00  0.00    +0.000 N 
ATOM      4  H   UNL     1       2.777   5.367  16.678  0.00  0.00    +0.000 HD
ENDROOT
BRANCH   3   5
ATOM      5  C   UNL     1       2.571   6.262  18.547  0.00  0.00    +0.000 A 
ATOM      6  C   UNL     1       2.251   5.514  19.675  0.00  0.00    +0.000 A 
ATOM      7  C   UNL     1       1.662   6.135  20.776  0.00  0.00    +0.000 A 
ATOM      8  C   UNL     1       1.364   7.503  20.745  0.00  0.00    +0.000 A 
ATOM      9  C   UNL     1       1.648   8.270  19.609  0.00  0.00    +0.000 A 
ATOM     10  C   UNL     1       2.226   7.621  18.503  0.00  0.00    +0.000 A 
BRANCH   9  11
ATOM     11  C   UNL     1       1.389   9.718  19.591  0.00  0.00    +0.000 A 
ATOM     12  N   UNL     1       1.605  10.567  18.598  0.00  0.00    +0.000 NA
ATOM     13  C   UNL     1       1.218  11.812  19.062  0.00  0.00    +0.000 A 
ATOM     14  C   UNL     1       1.247  13.067  18.444  0.00  0.00    +0.000 A 
ATOM     15  C   UNL     1       0.800  14.187  19.168  0.00  0.00    +0.000 A 
ATOM     16  C   UNL     1       0.325  14.065  20.477  0.00  0.00    +0.000 A 
ATOM     17  C   UNL     1       0.271  12.814  21.097  0.00  0.00    +0.000 A 
ATOM     18  C   UNL     1       0.729  11.720  20.357  0.00  0.00    +0.000 A 
ATOM     19  N   UNL     1       0.813  10.386  20.651  0.00  0.00    +0.000 N 
ATOM     20  H   UNL     1       0.499   9.949  21.504  0.00  0.00    +0.000 HD
ENDBRANCH   9  11
ENDBRANCH   3   5
BRANCH   1  21
ATOM     21  C   UNL     1       5.020   4.210  16.526  0.00  0.00    +0.000 C 
BRANCH  21  22
ATOM     22  C   UNL     1       6.355   4.795  16.020  0.00  0.00    +0.000 C 
BRANCH  22  23
ATOM     23  C   UNL     1       6.520   4.613  14.510  0.00  0.00    +0.000 A 
ATOM     24  C   UNL     1       7.530   5.299  13.817  0.00  0.00    +0.000 A 
ATOM     25  C   UNL     1       7.775   5.028  12.467  0.00  0.00    +0.000 A 
ATOM     26  C   UNL     1       7.015   4.075  11.791  0.00  0.00    +0.000 A 
ATOM     27  C   UNL     1       5.995   3.403  12.457  0.00  0.00    +0.000 A 
ATOM     28  C   UNL     1       5.745   3.676  13.802  0.00  0.00    +0.000 A 
ENDBRANCH  22  23
BRANCH  22  32
ATOM     29  C   UNL     1       7.585   8.082  17.537  0.00  0.00    +0.000 C 
ATOM     30  C   UNL     1       7.481   6.584  17.417  0.00  0.00    +0.000 C 
ATOM     31  O   UNL     1       8.068   5.826  18.181  0.00  0.00    +0.000 OA
ATOM     32  N   UNL     1       6.656   6.179  16.397  0.00  0.00    +0.000 N 
ATOM     33  H   UNL     1       6.418   6.875  15.700  0.00  0.00    +0.000 HD
ENDBRANCH  22  32
ENDBRANCH  21  22
ENDBRANCH   1  21
TORSDOF 6
ENDMDL
MODEL 7
REMARK VINA RESULT:      -8.3      0.976      1.581
REMARK  Name = 
REMARK  7 active torsions:
REMARK  status: ('A' for Active; 'I' for Inactive)
REMARK    1  A    between atoms: C_1  and  C_2
REMARK    2  A    between atoms: N_4  and  C_5
REMARK    3  A    between atoms: C_5  and  C_6
REMARK    4  A    between atoms: C_5  and  C_25
REMARK    5  A    between atoms: C_6  and  C_7
REMARK    6  A    between atoms: N_9  and  C_10
REMARK    7  A    between atoms: C_14  and  C_15
REMARK                            x       y       z     vdW  Elec       q    Type
REMARK                         _______ _______ _______ _____ _____    ______ ____
ROOT
ATOM      1  C   UNL     1       2.007   8.649  18.547  0.00  0.00    +0.000 C 
ATOM      2  O   UNL     1       1.747   8.557  19.746  0.00  0.00    +0.000 OA
ATOM      3  N   UNL     1       1.951   9.837  17.833  0.00  0.00    +0.000 N 
ATOM      4  H   UNL     1       1.870   9.740  16.824  0.00  0.00    +0.000 HD
ENDROOT
BRANCH   3   5
ATOM      5  C   UNL     1       1.468  11.037  18.402  0.00  0.00    +0.000 A 
ATOM      6  C   UNL     1       2.270  12.172  18.323  0.00  0.00    +0.000 A 
ATOM      7  C   UNL     1       1.772  13.405  18.744  0.00  0.00    +0.000 A 
ATOM      8  C   UNL     1       0.479  13.506  19.272  0.00  0.00    +0.000 A 
ATOM      9  C   UNL     1      -0.335  12.373  19.390  0.00  0.00    +0.000 A 
ATOM     10  C   UNL     1       0.193  11.137  18.976  0.00  0.00    +0.000 A 
BRANCH   9  11
ATOM     11  C   UNL     1      -1.713  12.483  19.892  0.00  0.00    +0.000 A 
ATOM     12  N   UNL     1      -2.106  12.700  21.138  0.00  0.00    +0.000 NA
ATOM     13  C   UNL     1      -3.489  12.705  21.112  0.00  0.00    +0.000 A 
ATOM     14  C   UNL     1      -4.422  12.869  22.144  0.00  0.00    +0.000 A 
ATOM     15  C   UNL     1      -5.791  12.813  21.830  0.00  0.00    +0.000 A 
ATOM     16  C   UNL     1      -6.231  12.606  20.519  0.00  0.00    +0.000 A 
ATOM     17  C   UNL     1      -5.309  12.463  19.478  0.00  0.00    +0.000 A 
ATOM     18  C   UNL     1      -3.955  12.516  19.819  0.00  0.00    +0.000 A 
ATOM     19  N   UNL     1      -2.816  12.416  19.067  0.00  0.00    +0.000 N 
ATOM     20  H   UNL     1      -2.779  12.316  18.064  0.00  0.00    +0.000 HD
ENDBRANCH   9  11
ENDBRANCH   3   5
BRANCH   1  21
ATOM     21  C   UNL     1       2.447   7.449  17.726  0.00  0.00    +0.000 C 
BRANCH  21  22
ATOM     22  C   UNL     1       3.330   6.440  18.488  0.00  0.00    +0.000 C 
BRANCH  22  23
ATOM     23  C   UNL     1       2.536   5.213  18.936  0.00  0.00    +0.000 A 
ATOM     24  C   UNL     1       2.108   5.089  20.267  0.00  0.00    +0.000 A 
ATOM     25  C   UNL     1       1.262   4.041  20.647  0.00  0.00    +0.000 A 
ATOM     26  C   UNL     1       0.837   3.104  19.707  0.00  0.00    +0.000 A 
ATOM     27  C   UNL     1       1.271   3.198  18.389  0.00  0.00    +0.000 A 
ATOM     28  C   UNL     1       2.119   4.238  18.010  0.00  0.00    +0.000 A 
ENDBRANCH  22  23
BRANCH  22  32
ATOM     29  C   UNL     1       6.801   5.182  17.494  0.00  0.00    +0.000 C 
ATOM     30  C   UNL     1       5.691   5.521  18.455  0.00  0.00    +0.000 C 
ATOM     31  O   UNL     1       5.809   5.373  19.666  0.00  0.00    +0.000 OA
ATOM     32  N   UNL     1       4.575   6.025  17.835  0.00  0.00    +0.000 N 
ATOM     33  H   UNL     1       4.508   5.884  16.833  0.00  0.00    +0.000 HD
ENDBRANCH  22  32
ENDBRANCH  21  22
ENDBRANCH   1  21
TORSDOF 6
ENDMDL
MODEL 8
REMARK VINA RESULT:      -8.2      1.649      2.305
REMARK  Name = 
REMARK  7 active torsions:
REMARK  status: ('A' for Active; 'I' for Inactive)
REMARK    1  A    between atoms: C_1  and  C_2
REMARK    2  A    between atoms: N_4  and  C_5
REMARK    3  A    between atoms: C_5  and  C_6
REMARK    4  A    between atoms: C_5  and  C_25
REMARK    5  A    between atoms: C_6  and  C_7
REMARK    6  A    between atoms: N_9  and  C_10
REMARK    7  A    between atoms: C_14  and  C_15
REMARK                            x       y       z     vdW  Elec       q    Type
REMARK                         _______ _______ _______ _____ _____    ______ ____
ROOT
ATOM      1  C   UNL     1       1.960   8.641  18.598  0.00  0.00    +0.000 C 
ATOM      2  O   UNL     1       1.841   8.567  19.820  0.00  0.00    +0.000 OA
ATOM      3  N   UNL     1       1.849   9.824  17.880  0.00  0.00    +0.000 N 
ATOM      4  H   UNL     1       1.647   9.720  16.889  0.00  0.00    +0.000 HD
ENDROOT
BRANCH   3   5
ATOM      5  C   UNL     1       1.466  11.041  18.487  0.00  0.00    +0.000 A 
ATOM      6  C   UNL     1       2.210  12.182  18.202  0.00  0.00    +0.000 A 
ATOM      7  C   UNL     1       1.781  13.425  18.665  0.00  0.00    +0.000 A 
ATOM      8  C   UNL     1       0.621  13.532  19.442  0.00  0.00    +0.000 A 
ATOM      9  C   UNL     1      -0.127  12.395  19.768  0.00  0.00    +0.000 A 
ATOM     10  C   UNL     1       0.332  11.149  19.305  0.00  0.00    +0.000 A 
BRANCH   9  11
ATOM     11  C   UNL     1      -1.377  12.508  20.536  0.00  0.00    +0.000 A 
ATOM     12  N   UNL     1      -2.587  12.790  20.076  0.00  0.00    +0.000 NA
ATOM     13  C   UNL     1      -3.426  12.798  21.175  0.00  0.00    +0.000 A 
ATOM     14  C   UNL     1      -4.799  13.055  21.276  0.00  0.00    +0.000 A 
ATOM     15  C   UNL     1      -5.403  13.011  22.545  0.00  0.00    +0.000 A 
ATOM     16  C   UNL     1      -4.665  12.709  23.693  0.00  0.00    +0.000 A 
ATOM     17  C   UNL     1      -3.298  12.430  23.602  0.00  0.00    +0.000 A 
ATOM     18  C   UNL     1      -2.723  12.488  22.330  0.00  0.00    +0.000 A 
ATOM     19  N   UNL     1      -1.443  12.274  21.893  0.00  0.00    +0.000 N 
ATOM     20  H   UNL     1      -0.666  11.984  22.465  0.00  0.00    +0.000 HD
ENDBRANCH   9  11
ENDBRANCH   3   5
BRANCH   1  21
ATOM     21  C   UNL     1       2.271   7.423  17.745  0.00  0.00    +0.000 C 
BRANCH  21  22
ATOM     22  C   UNL     1       3.089   6.330  18.464  0.00  0.00    +0.000 C 
BRANCH  22  23
ATOM     23  C   UNL     1       2.210   5.158  18.903  0.00  0.00    +0.000 A 
ATOM     24  C   UNL     1       1.874   4.141  17.996  0.00  0.00    +0.000 A 
ATOM     25  C   UNL     1       1.192   2.999  18.429  0.00  0.00    +0.000 A 
ATOM     26  C   UNL     1       0.834   2.859  19.768  0.00  0.00    +0.000 A 
ATOM     27  C   UNL     1       1.138   3.868  20.676  0.00  0.00    +0.000 A 
ATOM     28  C   UNL     1       1.813   5.010  20.245  0.00  0.00    +0.000 A 
ENDBRANCH  22  23
BRANCH  22  32
ATOM     29  C   UNL     1       6.481   4.949  17.367  0.00  0.00    +0.000 C 
ATOM     30  C   UNL     1       5.446   5.407  18.361  0.00  0.00    +0.000 C 
ATOM     31  O   UNL     1       5.658   5.408  19.569  0.00  0.00    +0.000 OA
ATOM     32  N   UNL     1       4.282   5.834  17.772  0.00  0.00    +0.000 N 
ATOM     33  H   UNL     1       4.138   5.571  16.804  0.00  0.00    +0.000 HD
ENDBRANCH  22  32
ENDBRANCH  21  22
ENDBRANCH   1  21
TORSDOF 6
ENDMDL
MODEL 9
REMARK VINA RESULT:      -8.2      3.194      5.733
REMARK  Name = 
REMARK  7 active torsions:
REMARK  status: ('A' for Active; 'I' for Inactive)
REMARK    1  A    between atoms: C_1  and  C_2
REMARK    2  A    between atoms: N_4  and  C_5
REMARK    3  A    between atoms: C_5  and  C_6
REMARK    4  A    between atoms: C_5  and  C_25
REMARK    5  A    between atoms: C_6  and  C_7
REMARK    6  A    between atoms: N_9  and  C_10
REMARK    7  A    between atoms: C_14  and  C_15
REMARK                            x       y       z     vdW  Elec       q    Type
REMARK                         _______ _______ _______ _____ _____    ______ ____
ROOT
ATOM      1  C   UNL     1       4.250   5.268  17.704  0.00  0.00    +0.000 C 
ATOM      2  O   UNL     1       4.724   5.007  18.808  0.00  0.00    +0.000 OA
ATOM      3  N   UNL     1       3.199   6.151  17.502  0.00  0.00    +0.000 N 
ATOM      4  H   UNL     1       2.696   6.043  16.624  0.00  0.00    +0.000 HD
ENDROOT
BRANCH   3   5
ATOM      5  C   UNL     1       2.494   6.744  18.574  0.00  0.00    +0.000 A 
ATOM      6  C   UNL     1       2.363   6.020  19.755  0.00  0.00    +0.000 A 
ATOM      7  C   UNL     1       1.801   6.623  20.880  0.00  0.00    +0.000 A 
ATOM      8  C   UNL     1       1.341   7.944  20.823  0.00  0.00    +0.000 A 
ATOM      9  C   UNL     1       1.435   8.682  19.637  0.00  0.00    +0.000 A 
ATOM     10  C   UNL     1       1.988   8.050  18.509  0.00  0.00    +0.000 A 
BRANCH   9  11
ATOM     11  C   UNL     1       1.005  10.088  19.587  0.00  0.00    +0.000 A 
ATOM     12  N   UNL     1       0.022  10.659  20.267  0.00  0.00    +0.000 NA
ATOM     13  C   UNL     1      -0.005  11.984  19.871  0.00  0.00    +0.000 A 
ATOM     14  C   UNL     1      -0.848  13.035  20.250  0.00  0.00    +0.000 A 
ATOM     15  C   UNL     1      -0.656  14.299  19.665  0.00  0.00    +0.000 A 
ATOM     16  C   UNL     1       0.357  14.522  18.728  0.00  0.00    +0.000 A 
ATOM     17  C   UNL     1       1.219  13.485  18.357  0.00  0.00    +0.000 A 
ATOM     18  C   UNL     1       1.000  12.238  18.948  0.00  0.00    +0.000 A 
ATOM     19  N   UNL     1       1.643  11.037  18.817  0.00  0.00    +0.000 N 
ATOM     20  H   UNL     1       2.461  10.865  18.253  0.00  0.00    +0.000 HD
ENDBRANCH   9  11
ENDBRANCH   3   5
BRANCH   1  21
ATOM     21  C   UNL     1       4.799   4.652  16.428  0.00  0.00    +0.000 C 
BRANCH  21  22
ATOM     22  C   UNL     1       6.266   5.020  16.119  0.00  0.00    +0.000 C 
BRANCH  22  23
ATOM     23  C   UNL     1       6.643   4.693  14.674  0.00  0.00    +0.000 A 
ATOM     24  C   UNL     1       5.911   3.742  13.946  0.00  0.00    +0.000 A 
ATOM     25  C   UNL     1       6.161   3.544  12.583  0.00  0.00    +0.000 A 
ATOM     26  C   UNL     1       7.145   4.286  11.934  0.00  0.00    +0.000 A 
ATOM     27  C   UNL     1       7.895   5.216  12.646  0.00  0.00    +0.000 A 
ATOM     28  C   UNL     1       7.651   5.411  14.005  0.00  0.00    +0.000 A 
ENDBRANCH  22  23
BRANCH  22  32
ATOM     29  C   UNL     1       7.719   8.236  17.590  0.00  0.00    +0.000 C 
ATOM     30  C   UNL     1       7.448   6.755  17.538  0.00  0.00    +0.000 C 
ATOM     31  O   UNL     1       7.857   5.987  18.400  0.00  0.00    +0.000 OA
ATOM     32  N   UNL     1       6.690   6.382  16.456  0.00  0.00    +0.000 N 
ATOM     33  H   UNL     1       6.612   7.055  15.701  0.00  0.00    +0.000 HD
ENDBRANCH  22  32
ENDBRANCH  21  22
ENDBRANCH   1  21
TORSDOF 6
ENDMDL
