MODEL 1
REMARK VINA RESULT:      -9.7      0.000      0.000
REMARK  Name = 
REMARK  6 active torsions:
REMARK  status: ('A' for Active; 'I' for Inactive)
REMARK    1  A    between atoms: C_1  and  C_2
REMARK    2  A    between atoms: C_4  and  C_5
REMARK    3  A    between atoms: C_9  and  N_10
REMARK    4  A    between atoms: N_13  and  C_14
REMARK    5  A    between atoms: N_17  and  C_18
REMARK    6  A    between atoms: C_28  and  C_29
REMARK                            x       y       z     vdW  Elec       q    Type
REMARK                         _______ _______ _______ _____ _____    ______ ____
ROOT
ATOM      1  N   UNL     1       8.085   9.582  17.577  0.00  0.00    +0.000 N 
ATOM      2  C   UNL     1       7.951   8.238  17.879  0.00  0.00    +0.000 C 
ATOM      3  O   UNL     1       8.510   7.633  18.788  0.00  0.00    +0.000 OA
ATOM      4  N   UNL     1       7.082   7.564  17.043  0.00  0.00    +0.000 N 
ATOM      5  H   UNL     1       7.682   9.900  16.709  0.00  0.00    +0.000 HD
ATOM      6  H   UNL     1       6.582   8.053  16.319  0.00  0.00    +0.000 HD
ENDROOT
BRANCH   1  11
ATOM      7  C   UNL     1       9.561  12.859  18.670  0.00  0.00    +0.000 A 
ATOM      8  C   UNL     1      10.150  12.469  19.883  0.00  0.00    +0.000 A 
ATOM      9  C   UNL     1      10.085  11.157  20.325  0.00  0.00    +0.000 A 
ATOM     10  C   UNL     1       9.419  10.208  19.558  0.00  0.00    +0.000 A 
ATOM     11  C   UNL     1       8.805  10.544  18.345  0.00  0.00    +0.000 A 
ATOM     12  C   UNL     1       8.888  11.883  17.899  0.00  0.00    +0.000 A 
BRANCH   7  16
ATOM     13  C   UNL     1      11.453  17.166  17.238  0.00  0.00    +0.000 C 
ATOM     14  C   UNL     1      10.466  16.185  17.738  0.00  0.00    +0.000 A 
ATOM     15  N   UNL     1      10.777  14.855  17.810  0.00  0.00    +0.000 NA
ATOM     16  C   UNL     1       9.706  14.277  18.324  0.00  0.00    +0.000 A 
ATOM     17  O   UNL     1       8.680  15.153  18.591  0.00  0.00    +0.000 OA
ATOM     18  C   UNL     1       9.186  16.375  18.211  0.00  0.00    +0.000 A 
ATOM     19  C   UNL     1       8.346  17.571  18.395  0.00  0.00    +0.000 C 
ENDBRANCH   7  16
ENDBRANCH   1  11
BRANCH   4  20
ATOM     20  C   UNL     1       6.914   6.116  17.211  0.00  0.00    +0.000 C 
ATOM     21  C   UNL     1       6.780   5.351  15.892  0.00  0.00    +0.000 C 
ATOM     22  C   UNL     1       5.297   5.009  15.776  0.00  0.00    +0.000 C 
ATOM     23  N   UNL     1       4.900   4.828  17.157  0.00  0.00    +0.000 N 
ATOM     24  C   UNL     1       5.667   5.698  18.043  0.00  0.00    +0.000 C 
BRANCH  23  25
ATOM     25  C   UNL     1       3.792   4.101  17.514  0.00  0.00    +0.000 A 
ATOM     26  N   UNL     1       3.935   2.754  17.626  0.00  0.00    +0.000 NA
ATOM     27  C   UNL     1       2.877   2.015  18.044  0.00  0.00    +0.000 A 
ATOM     28  C   UNL     1       1.642   2.542  18.370  0.00  0.00    +0.000 A 
ATOM     29  C   UNL     1       1.479   3.911  18.250  0.00  0.00    +0.000 A 
ATOM     30  C   UNL     1       2.553   4.688  17.818  0.00  0.00    +0.000 A 
ATOM     31  F   UNL     1       2.356   6.013  17.726  0.00  0.00    +0.000 F 
ENDBRANCH  23  25
ENDBRANCH   4  20
TORSDOF 4
ENDMDL
MODEL 2
REMARK VINA RESULT:      -9.5      0.605      1.124
REMARK  Name = 
REMARK  6 active torsions:
REMARK  status: ('A' for Active; 'I' for Inactive)
REMARK    1  A    between atoms: C_1  and  C_2
REMARK    2  A    between atoms: C_4  and  C_5
REMARK    3  A    between atoms: C_9  and  N_10
REMARK    4  A    between atoms: N_13  and  C_14
REMARK    5  A    between atoms: N_17  and  C_18
REMARK    6  A    between atoms: C_28  and  C_29
REMARK                            x       y       z     vdW  Elec       q    Type
REMARK                         _______ _______ _______ _____ _____    ______ ____
ROOT
ATOM      1  N   UNL     1       8.127   9.630  17.594  0.00  0.00    +0.000 N 
ATOM      2  C   UNL     1       7.975   8.283  17.875  0.00  0.00    +0.000 C 
ATOM      3  O   UNL     1       8.498   7.663  18.795  0.00  0.00    +0.000 OA
ATOM      4  N   UNL     1       7.131   7.625  17.001  0.00  0.00    +0.000 N 
ATOM      5  H   UNL     1       7.757   9.961  16.717  0.00  0.00    +0.000 HD
ATOM      6  H   UNL     1       6.659   8.126  16.266  0.00  0.00    +0.000 HD
ENDROOT
BRANCH   1  11
ATOM      7  C   UNL     1       9.508  12.899  18.828  0.00  0.00    +0.000 A 
ATOM      8  C   UNL     1      10.129  12.470  20.012  0.00  0.00    +0.000 A 
ATOM      9  C   UNL     1      10.116  11.136  20.389  0.00  0.00    +0.000 A 
ATOM     10  C   UNL     1       9.470  10.204  19.585  0.00  0.00    +0.000 A 
ATOM     11  C   UNL     1       8.826  10.578  18.398  0.00  0.00    +0.000 A 
ATOM     12  C   UNL     1       8.857  11.938  18.018  0.00  0.00    +0.000 A 
BRANCH   7  16
ATOM     13  C   UNL     1       8.383  17.660  18.328  0.00  0.00    +0.000 C 
ATOM     14  C   UNL     1       9.176  16.412  18.284  0.00  0.00    +0.000 A 
ATOM     15  N   UNL     1       8.665  15.242  18.774  0.00  0.00    +0.000 NA
ATOM     16  C   UNL     1       9.600  14.336  18.550  0.00  0.00    +0.000 A 
ATOM     17  O   UNL     1      10.725  14.841  17.942  0.00  0.00    +0.000 OA
ATOM     18  C   UNL     1      10.435  16.176  17.776  0.00  0.00    +0.000 A 
ATOM     19  C   UNL     1      11.430  17.034  17.110  0.00  0.00    +0.000 C 
ENDBRANCH   7  16
ENDBRANCH   1  11
BRANCH   4  20
ATOM     20  C   UNL     1       6.949   6.177  17.144  0.00  0.00    +0.000 C 
ATOM     21  C   UNL     1       6.773   5.440  15.814  0.00  0.00    +0.000 C 
ATOM     22  C   UNL     1       5.284   5.118  15.727  0.00  0.00    +0.000 C 
ATOM     23  N   UNL     1       4.918   4.915  17.113  0.00  0.00    +0.000 N 
ATOM     24  C   UNL     1       5.716   5.758  17.997  0.00  0.00    +0.000 C 
BRANCH  23  25
ATOM     25  C   UNL     1       3.809   4.194  17.482  0.00  0.00    +0.000 A 
ATOM     26  N   UNL     1       3.930   2.843  17.542  0.00  0.00    +0.000 NA
ATOM     27  C   UNL     1       2.874   2.108  17.971  0.00  0.00    +0.000 A 
ATOM     28  C   UNL     1       1.660   2.643  18.356  0.00  0.00    +0.000 A 
ATOM     29  C   UNL     1       1.518   4.018  18.289  0.00  0.00    +0.000 A 
ATOM     30  C   UNL     1       2.591   4.792  17.848  0.00  0.00    +0.000 A 
ATOM     31  F   UNL     1       2.416   6.122  17.807  0.00  0.00    +0.000 F 
ENDBRANCH  23  25
ENDBRANCH   4  20
TORSDOF 4
ENDMDL
MODEL 3
REMARK VINA RESULT:      -9.4      2.601      3.540
REMARK  Name = 
REMARK  6 active torsions:
REMARK  status: ('A' for Active; 'I' for Inactive)
REMARK    1  A    between atoms: C_1  and  C_2
REMARK    2  A    between atoms: C_4  and  C_5
REMARK    3  A    between atoms: C_9  and  N_10
REMARK    4  A    between atoms: N_13  and  C_14
REMARK    5  A    between atoms: N_17  and  C_18
REMARK    6  A    between atoms: C_28  and  C_29
REMARK                            x       y       z     vdW  Elec       q    Type
REMARK                         _______ _______ _______ _____ _____    ______ ____
ROOT
ATOM      1  N   UNL     1       8.410   9.483  17.820  0.00  0.00    +0.000 N 
ATOM      2  C   UNL     1       8.183   8.136  18.047  0.00  0.00    +0.000 C 
ATOM      3  O   UNL     1       8.658   7.456  18.950  0.00  0.00    +0.000 OA
ATOM      4  N   UNL     1       7.321   7.557  17.136  0.00  0.00    +0.000 N 
ATOM      5  H   UNL     1       8.073   9.866  16.951  0.00  0.00    +0.000 HD
ATOM      6  H   UNL     1       6.888   8.109  16.414  0.00  0.00    +0.000 HD
ENDROOT
BRANCH   1  11
ATOM      7  C   UNL     1       9.348  11.570  20.800  0.00  0.00    +0.000 A 
ATOM      8  C   UNL     1      10.612  12.026  20.391  0.00  0.00    +0.000 A 
ATOM      9  C   UNL     1      11.138  11.675  19.157  0.00  0.00    +0.000 A 
ATOM     10  C   UNL     1      10.406  10.852  18.309  0.00  0.00    +0.000 A 
ATOM     11  C   UNL     1       9.144  10.362  18.671  0.00  0.00    +0.000 A 
ATOM     12  C   UNL     1       8.613  10.735  19.926  0.00  0.00    +0.000 A 
BRANCH   7  16
ATOM     13  C   UNL     1       7.214  11.738  25.227  0.00  0.00    +0.000 C 
ATOM     14  C   UNL     1       7.995  12.173  24.048  0.00  0.00    +0.000 A 
ATOM     15  N   UNL     1       8.232  11.314  23.011  0.00  0.00    +0.000 NA
ATOM     16  C   UNL     1       8.913  12.019  22.127  0.00  0.00    +0.000 A 
ATOM     17  O   UNL     1       9.160  13.313  22.523  0.00  0.00    +0.000 OA
ATOM     18  C   UNL     1       8.561  13.395  23.759  0.00  0.00    +0.000 A 
ATOM     19  C   UNL     1       8.603  14.682  24.476  0.00  0.00    +0.000 C 
ENDBRANCH   7  16
ENDBRANCH   1  11
BRANCH   4  20
ATOM     20  C   UNL     1       7.061   6.116  17.221  0.00  0.00    +0.000 C 
ATOM     21  C   UNL     1       6.847   5.443  15.863  0.00  0.00    +0.000 C 
ATOM     22  C   UNL     1       5.342   5.206  15.766  0.00  0.00    +0.000 C 
ATOM     23  N   UNL     1       4.965   4.967  17.143  0.00  0.00    +0.000 N 
ATOM     24  C   UNL     1       5.807   5.729  18.059  0.00  0.00    +0.000 C 
BRANCH  23  25
ATOM     25  C   UNL     1       3.819   4.293  17.485  0.00  0.00    +0.000 A 
ATOM     26  N   UNL     1       3.879   2.936  17.528  0.00  0.00    +0.000 NA
ATOM     27  C   UNL     1       2.783   2.244  17.930  0.00  0.00    +0.000 A 
ATOM     28  C   UNL     1       1.589   2.830  18.304  0.00  0.00    +0.000 A 
ATOM     29  C   UNL     1       1.510   4.210  18.254  0.00  0.00    +0.000 A 
ATOM     30  C   UNL     1       2.624   4.940  17.840  0.00  0.00    +0.000 A 
ATOM     31  F   UNL     1       2.510   6.277  17.816  0.00  0.00    +0.000 F 
ENDBRANCH  23  25
ENDBRANCH   4  20
TORSDOF 4
ENDMDL
MODEL 4
REMARK VINA RESULT:      -9.2      3.108     11.224
REMARK  Name = 
REMARK  6 active torsions:
REMARK  status: ('A' for Active; 'I' for Inactive)
REMARK    1  A    between atoms: C_1  and  C_2
REMARK    2  A    between atoms: C_4  and  C_5
REMARK    3  A    between atoms: C_9  and  N_10
REMARK    4  A    between atoms: N_13  and  C_14
REMARK    5  A    between atoms: N_17  and  C_18
REMARK    6  A    between atoms: C_28  and  C_29
REMARK                            x       y       z     vdW  Elec       q    Type
REMARK                         _______ _______ _______ _____ _____    ______ ____
ROOT
ATOM      1  N   UNL     1       6.836   7.933  17.184  0.00  0.00    +0.000 N 
ATOM      2  C   UNL     1       7.930   8.331  17.933  0.00  0.00    +0.000 C 
ATOM      3  O   UNL     1       8.584   7.632  18.700  0.00  0.00    +0.000 OA
ATOM      4  N   UNL     1       8.277   9.655  17.750  0.00  0.00    +0.000 N 
ATOM      5  H   UNL     1       6.310   8.656  16.718  0.00  0.00    +0.000 HD
ATOM      6  H   UNL     1       7.778  10.232  17.092  0.00  0.00    +0.000 HD
ENDROOT
BRANCH   1  11
ATOM      7  C   UNL     1       4.768   4.857  17.795  0.00  0.00    +0.000 A 
ATOM      8  C   UNL     1       5.295   4.008  16.808  0.00  0.00    +0.000 A 
ATOM      9  C   UNL     1       6.320   4.425  15.973  0.00  0.00    +0.000 A 
ATOM     10  C   UNL     1       6.834   5.710  16.109  0.00  0.00    +0.000 A 
ATOM     11  C   UNL     1       6.340   6.601  17.071  0.00  0.00    +0.000 A 
ATOM     12  C   UNL     1       5.303   6.160  17.924  0.00  0.00    +0.000 A 
BRANCH   7  16
ATOM     13  C   UNL     1       2.090   3.325  21.624  0.00  0.00    +0.000 C 
ATOM     14  C   UNL     1       2.483   3.574  20.220  0.00  0.00    +0.000 A 
ATOM     15  N   UNL     1       3.617   4.280  19.927  0.00  0.00    +0.000 NA
ATOM     16  C   UNL     1       3.689   4.287  18.608  0.00  0.00    +0.000 A 
ATOM     17  O   UNL     1       2.648   3.629  17.995  0.00  0.00    +0.000 OA
ATOM     18  C   UNL     1       1.884   3.176  19.045  0.00  0.00    +0.000 A 
ATOM     19  C   UNL     1       0.679   2.382  18.746  0.00  0.00    +0.000 C 
ENDBRANCH   7  16
ENDBRANCH   1  11
BRANCH   4  20
ATOM     20  C   UNL     1       9.371  10.219  18.548  0.00  0.00    +0.000 C 
ATOM     21  C   UNL     1       8.909  10.909  19.833  0.00  0.00    +0.000 C 
ATOM     22  C   UNL     1       9.011  12.405  19.545  0.00  0.00    +0.000 C 
ATOM     23  N   UNL     1      10.141  12.482  18.643  0.00  0.00    +0.000 N 
ATOM     24  C   UNL     1      10.231  11.287  17.809  0.00  0.00    +0.000 C 
BRANCH  23  25
ATOM     25  C   UNL     1      10.862  13.636  18.464  0.00  0.00    +0.000 A 
ATOM     26  N   UNL     1      10.932  14.143  17.206  0.00  0.00    +0.000 NA
ATOM     27  C   UNL     1      11.579  15.319  17.008  0.00  0.00    +0.000 A 
ATOM     28  C   UNL     1      12.183  16.052  18.011  0.00  0.00    +0.000 A 
ATOM     29  C   UNL     1      12.129  15.541  19.296  0.00  0.00    +0.000 A 
ATOM     30  C   UNL     1      11.473  14.332  19.521  0.00  0.00    +0.000 A 
ATOM     31  F   UNL     1      11.434  13.877  20.783  0.00  0.00    +0.000 F 
ENDBRANCH  23  25
ENDBRANCH   4  20
TORSDOF 4
ENDMDL
MODEL 5
REMARK VINA RESULT:      -9.2      3.070     11.203
REMARK  Name = 
REMARK  6 active torsions:
REMARK  status: ('A' for Active; 'I' for Inactive)
REMARK    1  A    between atoms: C_1  and  C_2
REMARK    2  A    between atoms: C_4  and  C_5
REMARK    3  A    between atoms: C_9  and  N_10
REMARK    4  A    between atoms: N_13  and  C_14
REMARK    5  A    between atoms: N_17  and  C_18
REMARK    6  A    between atoms: C_28  and  C_29
REMARK                            x       y       z     vdW  Elec       q    Type
REMARK                         _______ _______ _______ _____ _____    ______ ____
ROOT
ATOM      1  N   UNL     1       6.790   7.879  17.232  0.00  0.00    +0.000 N 
ATOM      2  C   UNL     1       7.912   8.244  17.958  0.00  0.00    +0.000 C 
ATOM      3  O   UNL     1       8.616   7.504  18.637  0.00  0.00    +0.000 OA
ATOM      4  N   UNL     1       8.223   9.586  17.861  0.00  0.00    +0.000 N 
ATOM      5  H   UNL     1       6.229   8.623  16.850  0.00  0.00    +0.000 HD
ATOM      6  H   UNL     1       7.682  10.199  17.274  0.00  0.00    +0.000 HD
ENDROOT
BRANCH   1  11
ATOM      7  C   UNL     1       4.756   4.748  17.644  0.00  0.00    +0.000 A 
ATOM      8  C   UNL     1       5.311   3.960  16.624  0.00  0.00    +0.000 A 
ATOM      9  C   UNL     1       6.344   4.434  15.830  0.00  0.00    +0.000 A 
ATOM     10  C   UNL     1       6.838   5.716  16.042  0.00  0.00    +0.000 A 
ATOM     11  C   UNL     1       6.315   6.548  17.041  0.00  0.00    +0.000 A 
ATOM     12  C   UNL     1       5.270   6.050  17.851  0.00  0.00    +0.000 A 
BRANCH   7  16
ATOM     13  C   UNL     1       0.575   2.442  18.822  0.00  0.00    +0.000 C 
ATOM     14  C   UNL     1       1.862   3.150  18.994  0.00  0.00    +0.000 A 
ATOM     15  N   UNL     1       2.629   3.479  17.911  0.00  0.00    +0.000 NA
ATOM     16  C   UNL     1       3.671   4.121  18.407  0.00  0.00    +0.000 A 
ATOM     17  O   UNL     1       3.651   4.231  19.778  0.00  0.00    +0.000 OA
ATOM     18  C   UNL     1       2.481   3.603  20.139  0.00  0.00    +0.000 A 
ATOM     19  C   UNL     1       2.116   3.562  21.566  0.00  0.00    +0.000 C 
ENDBRANCH   7  16
ENDBRANCH   1  11
BRANCH   4  20
ATOM     20  C   UNL     1       9.345  10.112  18.647  0.00  0.00    +0.000 C 
ATOM     21  C   UNL     1       8.925  10.757  19.970  0.00  0.00    +0.000 C 
ATOM     22  C   UNL     1       9.030  12.262  19.734  0.00  0.00    +0.000 C 
ATOM     23  N   UNL     1      10.134  12.365  18.803  0.00  0.00    +0.000 N 
ATOM     24  C   UNL     1      10.191  11.201  17.923  0.00  0.00    +0.000 C 
BRANCH  23  25
ATOM     25  C   UNL     1      10.859  13.520  18.647  0.00  0.00    +0.000 A 
ATOM     26  N   UNL     1      11.096  13.945  17.378  0.00  0.00    +0.000 NA
ATOM     27  C   UNL     1      11.748  15.119  17.191  0.00  0.00    +0.000 A 
ATOM     28  C   UNL     1      12.200  15.929  18.215  0.00  0.00    +0.000 A 
ATOM     29  C   UNL     1      11.975  15.503  19.513  0.00  0.00    +0.000 A 
ATOM     30  C   UNL     1      11.309  14.298  19.727  0.00  0.00    +0.000 A 
ATOM     31  F   UNL     1      11.102  13.926  21.000  0.00  0.00    +0.000 F 
ENDBRANCH  23  25
ENDBRANCH   4  20
TORSDOF 4
ENDMDL
MODEL 6
REMARK VINA RESULT:      -9.1      1.083      1.240
REMARK  Name = 
REMARK  6 active torsions:
REMARK  status: ('A' for Active; 'I' for Inactive)
REMARK    1  A    between atoms: C_1  and  C_2
REMARK    2  A    between atoms: C_4  and  C_5
REMARK    3  A    between atoms: C_9  and  N_10
REMARK    4  A    between atoms: N_13  and  C_14
REMARK    5  A    between atoms: N_17  and  C_18
REMARK    6  A    between atoms: C_28  and  C_29
REMARK                            x       y       z     vdW  Elec       q    Type
REMARK                         _______ _______ _______ _____ _____    ______ ____
ROOT
ATOM      1  N   UNL     1       8.040   9.402  17.505  0.00  0.00    +0.000 N 
ATOM      2  C   UNL     1       7.885   8.069  17.843  0.00  0.00    +0.000 C 
ATOM      3  O   UNL     1       8.393   7.493  18.799  0.00  0.00    +0.000 OA
ATOM      4  N   UNL     1       7.058   7.371  16.985  0.00  0.00    +0.000 N 
ATOM      5  H   UNL     1       7.685   9.693  16.608  0.00  0.00    +0.000 HD
ATOM      6  H   UNL     1       6.598   7.837  16.220  0.00  0.00    +0.000 HD
ENDROOT
BRANCH   1  11
ATOM      7  C   UNL     1       9.401  12.725  18.610  0.00  0.00    +0.000 A 
ATOM      8  C   UNL     1       9.994  12.354  19.827  0.00  0.00    +0.000 A 
ATOM      9  C   UNL     1       9.970  11.039  20.267  0.00  0.00    +0.000 A 
ATOM     10  C   UNL     1       9.340  10.070  19.496  0.00  0.00    +0.000 A 
ATOM     11  C   UNL     1       8.723  10.387  18.278  0.00  0.00    +0.000 A 
ATOM     12  C   UNL     1       8.765  11.728  17.834  0.00  0.00    +0.000 A 
BRANCH   7  16
ATOM     13  C   UNL     1      11.136  17.073  17.105  0.00  0.00    +0.000 C 
ATOM     14  C   UNL     1      10.196  16.071  17.652  0.00  0.00    +0.000 A 
ATOM     15  N   UNL     1      10.533  14.747  17.698  0.00  0.00    +0.000 NA
ATOM     16  C   UNL     1       9.502  14.147  18.265  0.00  0.00    +0.000 A 
ATOM     17  O   UNL     1       8.477  15.003  18.594  0.00  0.00    +0.000 OA
ATOM     18  C   UNL     1       8.940  16.236  18.195  0.00  0.00    +0.000 A 
ATOM     19  C   UNL     1       8.090  17.416  18.431  0.00  0.00    +0.000 C 
ENDBRANCH   7  16
ENDBRANCH   1  11
BRANCH   4  20
ATOM     20  C   UNL     1       6.875   5.930  17.190  0.00  0.00    +0.000 C 
ATOM     21  C   UNL     1       6.482   5.168  15.922  0.00  0.00    +0.000 C 
ATOM     22  C   UNL     1       4.992   4.876  16.075  0.00  0.00    +0.000 C 
ATOM     23  N   UNL     1       4.843   4.709  17.505  0.00  0.00    +0.000 N 
ATOM     24  C   UNL     1       5.783   5.555  18.235  0.00  0.00    +0.000 C 
BRANCH  23  25
ATOM     25  C   UNL     1       3.793   4.020  18.060  0.00  0.00    +0.000 A 
ATOM     26  N   UNL     1       2.554   4.249  17.550  0.00  0.00    +0.000 NA
ATOM     27  C   UNL     1       1.506   3.533  18.029  0.00  0.00    +0.000 A 
ATOM     28  C   UNL     1       1.608   2.571  19.016  0.00  0.00    +0.000 A 
ATOM     29  C   UNL     1       2.862   2.337  19.552  0.00  0.00    +0.000 A 
ATOM     30  C   UNL     1       3.952   3.064  19.077  0.00  0.00    +0.000 A 
ATOM     31  F   UNL     1       5.153   2.799  19.615  0.00  0.00    +0.000 F 
ENDBRANCH  23  25
ENDBRANCH   4  20
TORSDOF 4
ENDMDL
MODEL 7
REMARK VINA RESULT:      -9.0      2.767     11.148
REMARK  Name = 
REMARK  6 active torsions:
REMARK  status: ('A' for Active; 'I' for Inactive)
REMARK    1  A    between atoms: C_1  and  C_2
REMARK    2  A    between atoms: C_4  and  C_5
REMARK    3  A    between atoms: C_9  and  N_10
REMARK    4  A    between atoms: N_13  and  C_14
REMARK    5  A    between atoms: N_17  and  C_18
REMARK    6  A    between atoms: C_28  and  C_29
REMARK                            x       y       z     vdW  Elec       q    Type
REMARK                         _______ _______ _______ _____ _____    ______ ____
ROOT
ATOM      1  N   UNL     1       6.783   7.847  17.260  0.00  0.00    +0.000 N 
ATOM      2  C   UNL     1       7.916   8.226  17.960  0.00  0.00    +0.000 C 
ATOM      3  O   UNL     1       8.661   7.491  18.599  0.00  0.00    +0.000 OA
ATOM      4  N   UNL     1       8.185   9.579  17.888  0.00  0.00    +0.000 N 
ATOM      5  H   UNL     1       6.188   8.583  16.914  0.00  0.00    +0.000 HD
ATOM      6  H   UNL     1       7.609  10.190  17.334  0.00  0.00    +0.000 HD
ENDROOT
BRANCH   1  11
ATOM      7  C   UNL     1       4.817   4.665  17.618  0.00  0.00    +0.000 A 
ATOM      8  C   UNL     1       5.400   3.902  16.594  0.00  0.00    +0.000 A 
ATOM      9  C   UNL     1       6.430   4.408  15.816  0.00  0.00    +0.000 A 
ATOM     10  C   UNL     1       6.892   5.699  16.047  0.00  0.00    +0.000 A 
ATOM     11  C   UNL     1       6.340   6.508  17.049  0.00  0.00    +0.000 A 
ATOM     12  C   UNL     1       5.299   5.976  17.844  0.00  0.00    +0.000 A 
BRANCH   7  16
ATOM     13  C   UNL     1       0.544   2.524  18.773  0.00  0.00    +0.000 C 
ATOM     14  C   UNL     1       1.899   3.092  18.943  0.00  0.00    +0.000 A 
ATOM     15  N   UNL     1       2.610   3.538  17.864  0.00  0.00    +0.000 NA
ATOM     16  C   UNL     1       3.739   4.006  18.363  0.00  0.00    +0.000 A 
ATOM     17  O   UNL     1       3.831   3.886  19.730  0.00  0.00    +0.000 OA
ATOM     18  C   UNL     1       2.639   3.298  20.087  0.00  0.00    +0.000 A 
ATOM     19  C   UNL     1       2.379   3.048  21.515  0.00  0.00    +0.000 C 
ENDBRANCH   7  16
ENDBRANCH   1  11
BRANCH   4  20
ATOM     20  C   UNL     1       9.315  10.119  18.653  0.00  0.00    +0.000 C 
ATOM     21  C   UNL     1       8.951  10.550  20.076  0.00  0.00    +0.000 C 
ATOM     22  C   UNL     1       8.893  12.074  20.032  0.00  0.00    +0.000 C 
ATOM     23  N   UNL     1       9.900  12.405  19.044  0.00  0.00    +0.000 N 
ATOM     24  C   UNL     1       9.991  11.370  18.019  0.00  0.00    +0.000 C 
BRANCH  23  25
ATOM     25  C   UNL     1      10.497  13.640  18.988  0.00  0.00    +0.000 A 
ATOM     26  N   UNL     1      11.684  13.792  19.630  0.00  0.00    +0.000 NA
ATOM     27  C   UNL     1      12.333  14.979  19.536  0.00  0.00    +0.000 A 
ATOM     28  C   UNL     1      11.866  16.065  18.821  0.00  0.00    +0.000 A 
ATOM     29  C   UNL     1      10.652  15.928  18.171  0.00  0.00    +0.000 A 
ATOM     30  C   UNL     1       9.967  14.717  18.259  0.00  0.00    +0.000 A 
ATOM     31  F   UNL     1       8.798  14.622  17.605  0.00  0.00    +0.000 F 
ENDBRANCH  23  25
ENDBRANCH   4  20
TORSDOF 4
ENDMDL
MODEL 8
REMARK VINA RESULT:      -8.9      2.769      3.710
REMARK  Name = 
REMARK  6 active torsions:
REMARK  status: ('A' for Active; 'I' for Inactive)
REMARK    1  A    between atoms: C_1  and  C_2
REMARK    2  A    between atoms: C_4  and  C_5
REMARK    3  A    between atoms: C_9  and  N_10
REMARK    4  A    between atoms: N_13  and  C_14
REMARK    5  A    between atoms: N_17  and  C_18
REMARK    6  A    between atoms: C_28  and  C_29
REMARK                            x       y       z     vdW  Elec       q    Type
REMARK                         _______ _______ _______ _____ _____    ______ ____
ROOT
ATOM      1  N   UNL     1       8.403   9.487  17.797  0.00  0.00    +0.000 N 
ATOM      2  C   UNL     1       8.157   8.149  18.056  0.00  0.00    +0.000 C 
ATOM      3  O   UNL     1       8.615   7.487  18.981  0.00  0.00    +0.000 OA
ATOM      4  N   UNL     1       7.296   7.558  17.153  0.00  0.00    +0.000 N 
ATOM      5  H   UNL     1       8.078   9.851  16.915  0.00  0.00    +0.000 HD
ATOM      6  H   UNL     1       6.877   8.097  16.412  0.00  0.00    +0.000 HD
ENDROOT
BRANCH   1  11
ATOM      7  C   UNL     1       9.363  11.602  20.750  0.00  0.00    +0.000 A 
ATOM      8  C   UNL     1      10.616  12.068  20.319  0.00  0.00    +0.000 A 
ATOM      9  C   UNL     1      11.127  11.716  19.080  0.00  0.00    +0.000 A 
ATOM     10  C   UNL     1      10.392  10.880  18.248  0.00  0.00    +0.000 A 
ATOM     11  C   UNL     1       9.140  10.378  18.631  0.00  0.00    +0.000 A 
ATOM     12  C   UNL     1       8.624  10.754  19.891  0.00  0.00    +0.000 A 
BRANCH   7  16
ATOM     13  C   UNL     1       7.276  11.783  25.199  0.00  0.00    +0.000 C 
ATOM     14  C   UNL     1       8.047  12.213  24.011  0.00  0.00    +0.000 A 
ATOM     15  N   UNL     1       8.270  11.352  22.973  0.00  0.00    +0.000 NA
ATOM     16  C   UNL     1       8.944  12.054  22.081  0.00  0.00    +0.000 A 
ATOM     17  O   UNL     1       9.198  13.347  22.472  0.00  0.00    +0.000 OA
ATOM     18  C   UNL     1       8.613  13.433  23.715  0.00  0.00    +0.000 A 
ATOM     19  C   UNL     1       8.666  14.721  24.429  0.00  0.00    +0.000 C 
ENDBRANCH   7  16
ENDBRANCH   1  11
BRANCH   4  20
ATOM     20  C   UNL     1       7.017   6.123  17.273  0.00  0.00    +0.000 C 
ATOM     21  C   UNL     1       6.593   5.462  15.959  0.00  0.00    +0.000 C 
ATOM     22  C   UNL     1       5.085   5.260  16.079  0.00  0.00    +0.000 C 
ATOM     23  N   UNL     1       4.905   5.023  17.496  0.00  0.00    +0.000 N 
ATOM     24  C   UNL     1       5.888   5.762  18.282  0.00  0.00    +0.000 C 
BRANCH  23  25
ATOM     25  C   UNL     1       3.804   4.374  17.998  0.00  0.00    +0.000 A 
ATOM     26  N   UNL     1       2.585   4.759  17.539  0.00  0.00    +0.000 NA
ATOM     27  C   UNL     1       1.484   4.092  17.964  0.00  0.00    +0.000 A 
ATOM     28  C   UNL     1       1.511   3.030  18.847  0.00  0.00    +0.000 A 
ATOM     29  C   UNL     1       2.745   2.634  19.332  0.00  0.00    +0.000 A 
ATOM     30  C   UNL     1       3.890   3.310  18.911  0.00  0.00    +0.000 A 
ATOM     31  F   UNL     1       5.068   2.888  19.397  0.00  0.00    +0.000 F 
ENDBRANCH  23  25
ENDBRANCH   4  20
TORSDOF 4
ENDMDL
MODEL 9
REMARK VINA RESULT:      -8.9      1.166      1.664
REMARK  Name = 
REMARK  6 active torsions:
REMARK  status: ('A' for Active; 'I' for Inactive)
REMARK    1  A    between atoms: C_1  and  C_2
REMARK    2  A    between atoms: C_4  and  C_5
REMARK    3  A    between atoms: C_9  and  N_10
REMARK    4  A    between atoms: N_13  and  C_14
REMARK    5  A    between atoms: N_17  and  C_18
REMARK    6  A    between atoms: C_28  and  C_29
REMARK                            x       y       z     vdW  Elec       q    Type
REMARK                         _______ _______ _______ _____ _____    ______ ____
ROOT
ATOM      1  N   UNL     1       8.193   9.570  17.546  0.00  0.00    +0.000 N 
ATOM      2  C   UNL     1       7.981   8.239  17.861  0.00  0.00    +0.000 C 
ATOM      3  O   UNL     1       8.439   7.633  18.824  0.00  0.00    +0.000 OA
ATOM      4  N   UNL     1       7.158   7.581  16.968  0.00  0.00    +0.000 N 
ATOM      5  H   UNL     1       7.877   9.884  16.642  0.00  0.00    +0.000 HD
ATOM      6  H   UNL     1       6.739   8.073  16.195  0.00  0.00    +0.000 HD
ENDROOT
BRANCH   1  11
ATOM      7  C   UNL     1       9.544  12.846  18.794  0.00  0.00    +0.000 A 
ATOM      8  C   UNL     1      10.175  12.417  19.972  0.00  0.00    +0.000 A 
ATOM      9  C   UNL     1      10.177  11.081  20.341  0.00  0.00    +0.000 A 
ATOM     10  C   UNL     1       9.538  10.146  19.535  0.00  0.00    +0.000 A 
ATOM     11  C   UNL     1       8.885  10.521  18.353  0.00  0.00    +0.000 A 
ATOM     12  C   UNL     1       8.900  11.884  17.981  0.00  0.00    +0.000 A 
BRANCH   7  16
ATOM     13  C   UNL     1       8.349  17.586  18.257  0.00  0.00    +0.000 C 
ATOM     14  C   UNL     1       9.167  16.354  18.245  0.00  0.00    +0.000 A 
ATOM     15  N   UNL     1       8.659  15.173  18.709  0.00  0.00    +0.000 NA
ATOM     16  C   UNL     1       9.620  14.286  18.524  0.00  0.00    +0.000 A 
ATOM     17  O   UNL     1      10.760  14.816  17.967  0.00  0.00    +0.000 OA
ATOM     18  C   UNL     1      10.451  16.145  17.793  0.00  0.00    +0.000 A 
ATOM     19  C   UNL     1      11.458  17.025  17.173  0.00  0.00    +0.000 C 
ENDBRANCH   7  16
ENDBRANCH   1  11
BRANCH   4  20
ATOM     20  C   UNL     1       6.919   6.145  17.148  0.00  0.00    +0.000 C 
ATOM     21  C   UNL     1       6.680   5.388  15.839  0.00  0.00    +0.000 C 
ATOM     22  C   UNL     1       5.177   5.128  15.794  0.00  0.00    +0.000 C 
ATOM     23  N   UNL     1       4.837   4.969  17.193  0.00  0.00    +0.000 N 
ATOM     24  C   UNL     1       5.691   5.796  18.039  0.00  0.00    +0.000 C 
BRANCH  23  25
ATOM     25  C   UNL     1       3.709   4.304  17.604  0.00  0.00    +0.000 A 
ATOM     26  N   UNL     1       2.661   5.054  18.036  0.00  0.00    +0.000 NA
ATOM     27  C   UNL     1       1.508   4.431  18.384  0.00  0.00    +0.000 A 
ATOM     28  C   UNL     1       1.317   3.064  18.331  0.00  0.00    +0.000 A 
ATOM     29  C   UNL     1       2.379   2.286  17.904  0.00  0.00    +0.000 A 
ATOM     30  C   UNL     1       3.575   2.907  17.546  0.00  0.00    +0.000 A 
ATOM     31  F   UNL     1       4.577   2.118  17.127  0.00  0.00    +0.000 F 
ENDBRANCH  23  25
ENDBRANCH   4  20
TORSDOF 4
ENDMDL
