MODEL 1
REMARK VINA RESULT:      -8.0      0.000      0.000
REMARK  Name = 
REMARK  6 active torsions:
REMARK  status: ('A' for Active; 'I' for Inactive)
REMARK    1  A    between atoms: C_1  and  C_2
REMARK    2  A    between atoms: C_6  and  S_7
REMARK    3  A    between atoms: S_7  and  N_10
REMARK    4  A    between atoms: N_10  and  C_11
REMARK    5  A    between atoms: C_14  and  S_15
REMARK    6  A    between atoms: S_15  and  C_18
REMARK                            x       y       z     vdW  Elec       q    Type
REMARK                         _______ _______ _______ _____ _____    ______ ____
ROOT
ATOM      1  S   UNL     1       0.525   9.277  21.090  0.00  0.00    +0.000 S 
ATOM      2  O   UNL     1       1.479   9.748  22.077  0.00  0.00    +0.000 OA
ATOM      3  O   UNL     1      -0.336   8.156  21.406  0.00  0.00    +0.000 OA
ENDROOT
BRANCH   1   9
ATOM      4  C   UNL     1      -3.192  10.956  15.644  0.00  0.00    +0.000 C 
ATOM      5  C   UNL     1      -2.449  10.901  16.941  0.00  0.00    +0.000 A 
ATOM      6  C   UNL     1      -1.589   9.870  17.260  0.00  0.00    +0.000 A 
ATOM      7  N   UNL     1      -0.910   9.770  18.429  0.00  0.00    +0.000 NA
ATOM      8  C   UNL     1      -1.113  10.703  19.388  0.00  0.00    +0.000 A 
ATOM      9  C   UNL     1      -0.507  10.653  20.650  0.00  0.00    +0.000 A 
ATOM     10  C   UNL     1      -0.750  11.628  21.636  0.00  0.00    +0.000 A 
ATOM     11  C   UNL     1      -1.591  12.697  21.367  0.00  0.00    +0.000 A 
ATOM     12  C   UNL     1      -2.199  12.788  20.119  0.00  0.00    +0.000 A 
ATOM     13  C   UNL     1      -1.975  11.801  19.144  0.00  0.00    +0.000 A 
ATOM     14  C   UNL     1      -2.628  11.891  17.908  0.00  0.00    +0.000 A 
ENDBRANCH   1   9
BRANCH   1  15
ATOM     15  N   UNL     1       1.401   8.858  19.715  0.00  0.00    +0.000 N 
ATOM     16  H   UNL     1       1.808   9.664  19.241  0.00  0.00    +0.000 HD
BRANCH  15  17
ATOM     17  C   UNL     1       2.029   7.594  19.601  0.00  0.00    +0.000 A 
ATOM     18  C   UNL     1       1.794   6.615  20.570  0.00  0.00    +0.000 A 
ATOM     19  C   UNL     1       2.388   5.352  20.454  0.00  0.00    +0.000 A 
ATOM     20  C   UNL     1       3.227   5.083  19.368  0.00  0.00    +0.000 A 
ATOM     21  C   UNL     1       3.473   6.065  18.403  0.00  0.00    +0.000 A 
ATOM     22  C   UNL     1       2.862   7.319  18.517  0.00  0.00    +0.000 A 
BRANCH  20  23
ATOM     23  S   UNL     1       4.115   3.537  19.297  0.00  0.00    +0.000 S 
ATOM     24  O   UNL     1       5.532   3.866  19.333  0.00  0.00    +0.000 OA
ATOM     25  O   UNL     1       3.559   2.680  20.332  0.00  0.00    +0.000 OA
BRANCH  23  26
ATOM     26  C   UNL     1       3.709   2.860  17.683  0.00  0.00    +0.000 C 
ATOM     27  F   UNL     1       2.430   3.136  17.298  0.00  0.00    +0.000 F 
ATOM     28  F   UNL     1       4.516   3.338  16.692  0.00  0.00    +0.000 F 
ENDBRANCH  23  26
ENDBRANCH  20  23
ENDBRANCH  15  17
ENDBRANCH   1  15
TORSDOF 5
ENDMDL
MODEL 2
REMARK VINA RESULT:      -7.9      3.892      8.465
REMARK  Name = 
REMARK  6 active torsions:
REMARK  status: ('A' for Active; 'I' for Inactive)
REMARK    1  A    between atoms: C_1  and  C_2
REMARK    2  A    between atoms: C_6  and  S_7
REMARK    3  A    between atoms: S_7  and  N_10
REMARK    4  A    between atoms: N_10  and  C_11
REMARK    5  A    between atoms: C_14  and  S_15
REMARK    6  A    between atoms: S_15  and  C_18
REMARK                            x       y       z     vdW  Elec       q    Type
REMARK                         _______ _______ _______ _____ _____    ______ ____
ROOT
ATOM      1  S   UNL     1       3.290   4.495  18.866  0.00  0.00    +0.000 S 
ATOM      2  O   UNL     1       2.449   4.895  17.753  0.00  0.00    +0.000 OA
ATOM      3  O   UNL     1       3.212   3.140  19.371  0.00  0.00    +0.000 OA
ENDROOT
BRANCH   1   9
ATOM      4  C   UNL     1       6.822   4.136  13.062  0.00  0.00    +0.000 C 
ATOM      5  C   UNL     1       6.350   4.268  14.475  0.00  0.00    +0.000 A 
ATOM      6  C   UNL     1       5.062   3.955  14.859  0.00  0.00    +0.000 A 
ATOM      7  N   UNL     1       4.585   4.077  16.122  0.00  0.00    +0.000 NA
ATOM      8  C   UNL     1       5.392   4.589  17.081  0.00  0.00    +0.000 A 
ATOM      9  C   UNL     1       4.974   4.811  18.400  0.00  0.00    +0.000 A 
ATOM     10  C   UNL     1       5.829   5.361  19.373  0.00  0.00    +0.000 A 
ATOM     11  C   UNL     1       7.140   5.678  19.051  0.00  0.00    +0.000 A 
ATOM     12  C   UNL     1       7.595   5.458  17.754  0.00  0.00    +0.000 A 
ATOM     13  C   UNL     1       6.733   4.931  16.778  0.00  0.00    +0.000 A 
ATOM     14  C   UNL     1       7.200   4.753  15.468  0.00  0.00    +0.000 A 
ENDBRANCH   1   9
BRANCH   1  15
ATOM     15  N   UNL     1       2.933   5.524  20.151  0.00  0.00    +0.000 N 
ATOM     16  H   UNL     1       3.551   5.391  20.951  0.00  0.00    +0.000 HD
BRANCH  15  17
ATOM     17  C   UNL     1       2.340   6.791  19.933  0.00  0.00    +0.000 A 
ATOM     18  C   UNL     1       2.572   7.467  18.731  0.00  0.00    +0.000 A 
ATOM     19  C   UNL     1       1.969   8.707  18.494  0.00  0.00    +0.000 A 
ATOM     20  C   UNL     1       1.144   9.271  19.472  0.00  0.00    +0.000 A 
ATOM     21  C   UNL     1       0.919   8.602  20.680  0.00  0.00    +0.000 A 
ATOM     22  C   UNL     1       1.512   7.354  20.903  0.00  0.00    +0.000 A 
BRANCH  20  23
ATOM     23  S   UNL     1       0.502  10.920  19.247  0.00  0.00    +0.000 S 
ATOM     24  O   UNL     1       0.161  11.421  20.570  0.00  0.00    +0.000 OA
ATOM     25  O   UNL     1       1.472  11.648  18.443  0.00  0.00    +0.000 OA
BRANCH  23  26
ATOM     26  C   UNL     1      -1.005  10.691  18.297  0.00  0.00    +0.000 C 
ATOM     27  F   UNL     1      -1.416  11.830  17.671  0.00  0.00    +0.000 F 
ATOM     28  F   UNL     1      -0.875   9.746  17.322  0.00  0.00    +0.000 F 
ENDBRANCH  23  26
ENDBRANCH  20  23
ENDBRANCH  15  17
ENDBRANCH   1  15
TORSDOF 5
ENDMDL
MODEL 3
REMARK VINA RESULT:      -7.9      3.903      8.416
REMARK  Name = 
REMARK  6 active torsions:
REMARK  status: ('A' for Active; 'I' for Inactive)
REMARK    1  A    between atoms: C_1  and  C_2
REMARK    2  A    between atoms: C_6  and  S_7
REMARK    3  A    between atoms: S_7  and  N_10
REMARK    4  A    between atoms: N_10  and  C_11
REMARK    5  A    between atoms: C_14  and  S_15
REMARK    6  A    between atoms: S_15  and  C_18
REMARK                            x       y       z     vdW  Elec       q    Type
REMARK                         _______ _______ _______ _____ _____    ______ ____
ROOT
ATOM      1  S   UNL     1       3.922   3.307  18.688  0.00  0.00    +0.000 S 
ATOM      2  O   UNL     1       3.935   2.160  17.798  0.00  0.00    +0.000 OA
ATOM      3  O   UNL     1       3.853   3.101  20.120  0.00  0.00    +0.000 OA
ENDROOT
BRANCH   1   9
ATOM      4  C   UNL     1       7.375   4.948  13.060  0.00  0.00    +0.000 C 
ATOM      5  C   UNL     1       6.880   4.729  14.453  0.00  0.00    +0.000 A 
ATOM      6  C   UNL     1       5.792   3.929  14.737  0.00  0.00    +0.000 A 
ATOM      7  N   UNL     1       5.297   3.717  15.981  0.00  0.00    +0.000 NA
ATOM      8  C   UNL     1       5.855   4.367  17.029  0.00  0.00    +0.000 A 
ATOM      9  C   UNL     1       5.378   4.263  18.342  0.00  0.00    +0.000 A 
ATOM     10  C   UNL     1       5.968   4.964  19.411  0.00  0.00    +0.000 A 
ATOM     11  C   UNL     1       7.075   5.769  19.190  0.00  0.00    +0.000 A 
ATOM     12  C   UNL     1       7.587   5.886  17.901  0.00  0.00    +0.000 A 
ATOM     13  C   UNL     1       6.982   5.204  16.832  0.00  0.00    +0.000 A 
ATOM     14  C   UNL     1       7.489   5.366  15.535  0.00  0.00    +0.000 A 
ENDBRANCH   1   9
BRANCH   1  15
ATOM     15  N   UNL     1       2.597   4.253  18.258  0.00  0.00    +0.000 N 
ATOM     16  H   UNL     1       1.883   3.731  17.751  0.00  0.00    +0.000 HD
BRANCH  15  17
ATOM     17  C   UNL     1       2.221   5.381  19.026  0.00  0.00    +0.000 A 
ATOM     18  C   UNL     1       1.585   5.199  20.257  0.00  0.00    +0.000 A 
ATOM     19  C   UNL     1       1.233   6.306  21.038  0.00  0.00    +0.000 A 
ATOM     20  C   UNL     1       1.511   7.595  20.572  0.00  0.00    +0.000 A 
ATOM     21  C   UNL     1       2.138   7.780  19.335  0.00  0.00    +0.000 A 
ATOM     22  C   UNL     1       2.502   6.667  18.568  0.00  0.00    +0.000 A 
BRANCH  20  23
ATOM     23  S   UNL     1       0.923   9.013  21.481  0.00  0.00    +0.000 S 
ATOM     24  O   UNL     1      -0.418   8.686  21.943  0.00  0.00    +0.000 OA
ATOM     25  O   UNL     1       1.948   9.346  22.458  0.00  0.00    +0.000 OA
BRANCH  23  26
ATOM     26  C   UNL     1       0.821  10.322  20.256  0.00  0.00    +0.000 C 
ATOM     27  F   UNL     1      -0.217  10.158  19.388  0.00  0.00    +0.000 F 
ATOM     28  F   UNL     1       0.658  11.556  20.815  0.00  0.00    +0.000 F 
ENDBRANCH  23  26
ENDBRANCH  20  23
ENDBRANCH  15  17
ENDBRANCH   1  15
TORSDOF 5
ENDMDL
MODEL 4
REMARK VINA RESULT:      -7.9      3.506      8.245
REMARK  Name = 
REMARK  6 active torsions:
REMARK  status: ('A' for Active; 'I' for Inactive)
REMARK    1  A    between atoms: C_1  and  C_2
REMARK    2  A    between atoms: C_6  and  S_7
REMARK    3  A    between atoms: S_7  and  N_10
REMARK    4  A    between atoms: N_10  and  C_11
REMARK    5  A    between atoms: C_14  and  S_15
REMARK    6  A    between atoms: S_15  and  C_18
REMARK                            x       y       z     vdW  Elec       q    Type
REMARK                         _______ _______ _______ _____ _____    ______ ____
ROOT
ATOM      1  S   UNL     1       1.988   5.054  20.551  0.00  0.00    +0.000 S 
ATOM      2  O   UNL     1       0.552   5.247  20.480  0.00  0.00    +0.000 OA
ATOM      3  O   UNL     1       2.573   4.464  21.738  0.00  0.00    +0.000 OA
ENDROOT
BRANCH   1   9
ATOM      4  C   UNL     1       7.033   5.261  15.990  0.00  0.00    +0.000 C 
ATOM      5  C   UNL     1       5.804   4.972  16.791  0.00  0.00    +0.000 A 
ATOM      6  C   UNL     1       5.390   5.779  17.832  0.00  0.00    +0.000 A 
ATOM      7  N   UNL     1       4.295   5.546  18.597  0.00  0.00    +0.000 NA
ATOM      8  C   UNL     1       3.571   4.423  18.381  0.00  0.00    +0.000 A 
ATOM      9  C   UNL     1       2.461   4.063  19.156  0.00  0.00    +0.000 A 
ATOM     10  C   UNL     1       1.736   2.880  18.920  0.00  0.00    +0.000 A 
ATOM     11  C   UNL     1       2.093   2.039  17.877  0.00  0.00    +0.000 A 
ATOM     12  C   UNL     1       3.181   2.371  17.076  0.00  0.00    +0.000 A 
ATOM     13  C   UNL     1       3.919   3.540  17.328  0.00  0.00    +0.000 A 
ATOM     14  C   UNL     1       5.035   3.837  16.534  0.00  0.00    +0.000 A 
ENDBRANCH   1   9
BRANCH   1  15
ATOM     15  N   UNL     1       2.701   6.566  20.346  0.00  0.00    +0.000 N 
ATOM     16  H   UNL     1       3.658   6.511  20.000  0.00  0.00    +0.000 HD
BRANCH  15  17
ATOM     17  C   UNL     1       1.921   7.712  20.057  0.00  0.00    +0.000 A 
ATOM     18  C   UNL     1       1.927   8.246  18.766  0.00  0.00    +0.000 A 
ATOM     19  C   UNL     1       1.139   9.362  18.461  0.00  0.00    +0.000 A 
ATOM     20  C   UNL     1       0.356   9.945  19.462  0.00  0.00    +0.000 A 
ATOM     21  C   UNL     1       0.356   9.419  20.758  0.00  0.00    +0.000 A 
ATOM     22  C   UNL     1       1.133   8.293  21.050  0.00  0.00    +0.000 A 
BRANCH  20  23
ATOM     23  S   UNL     1      -0.525  11.460  19.127  0.00  0.00    +0.000 S 
ATOM     24  O   UNL     1      -1.242  11.805  20.345  0.00  0.00    +0.000 OA
ATOM     25  O   UNL     1       0.441  12.401  18.582  0.00  0.00    +0.000 OA
BRANCH  23  26
ATOM     26  C   UNL     1      -1.709  11.019  17.851  0.00  0.00    +0.000 C 
ATOM     27  F   UNL     1      -2.165   9.740  17.969  0.00  0.00    +0.000 F 
ATOM     28  F   UNL     1      -2.815  11.819  17.858  0.00  0.00    +0.000 F 
ENDBRANCH  23  26
ENDBRANCH  20  23
ENDBRANCH  15  17
ENDBRANCH   1  15
TORSDOF 5
ENDMDL
MODEL 5
REMARK VINA RESULT:      -7.8      2.858      3.848
REMARK  Name = 
REMARK  6 active torsions:
REMARK  status: ('A' for Active; 'I' for Inactive)
REMARK    1  A    between atoms: C_1  and  C_2
REMARK    2  A    between atoms: C_6  and  S_7
REMARK    3  A    between atoms: S_7  and  N_10
REMARK    4  A    between atoms: N_10  and  C_11
REMARK    5  A    between atoms: C_14  and  S_15
REMARK    6  A    between atoms: S_15  and  C_18
REMARK                            x       y       z     vdW  Elec       q    Type
REMARK                         _______ _______ _______ _____ _____    ______ ____
ROOT
ATOM      1  S   UNL     1      -0.882  11.582  18.966  0.00  0.00    +0.000 S 
ATOM      2  O   UNL     1      -1.525  10.335  18.592  0.00  0.00    +0.000 OA
ATOM      3  O   UNL     1      -0.951  12.718  18.070  0.00  0.00    +0.000 OA
ENDROOT
BRANCH   1   9
ATOM      4  C   UNL     1      -7.106  13.073  21.275  0.00  0.00    +0.000 C 
ATOM      5  C   UNL     1      -5.640  12.859  21.070  0.00  0.00    +0.000 A 
ATOM      6  C   UNL     1      -5.101  12.544  19.839  0.00  0.00    +0.000 A 
ATOM      7  N   UNL     1      -3.783  12.323  19.611  0.00  0.00    +0.000 NA
ATOM      8  C   UNL     1      -2.923  12.352  20.655  0.00  0.00    +0.000 A 
ATOM      9  C   UNL     1      -1.555  12.077  20.532  0.00  0.00    +0.000 A 
ATOM     10  C   UNL     1      -0.685  12.097  21.639  0.00  0.00    +0.000 A 
ATOM     11  C   UNL     1      -1.166  12.425  22.898  0.00  0.00    +0.000 A 
ATOM     12  C   UNL     1      -2.516  12.719  23.056  0.00  0.00    +0.000 A 
ATOM     13  C   UNL     1      -3.388  12.674  21.955  0.00  0.00    +0.000 A 
ATOM     14  C   UNL     1      -4.752  12.936  22.142  0.00  0.00    +0.000 A 
ENDBRANCH   1   9
BRANCH   1  15
ATOM     15  N   UNL     1       0.749  11.243  19.214  0.00  0.00    +0.000 N 
ATOM     16  H   UNL     1       1.227  11.965  19.752  0.00  0.00    +0.000 HD
BRANCH  15  17
ATOM     17  C   UNL     1       1.223   9.910  19.261  0.00  0.00    +0.000 A 
ATOM     18  C   UNL     1       1.811   9.344  18.127  0.00  0.00    +0.000 A 
ATOM     19  C   UNL     1       2.308   8.036  18.170  0.00  0.00    +0.000 A 
ATOM     20  C   UNL     1       2.200   7.297  19.352  0.00  0.00    +0.000 A 
ATOM     21  C   UNL     1       1.603   7.858  20.486  0.00  0.00    +0.000 A 
ATOM     22  C   UNL     1       1.124   9.172  20.439  0.00  0.00    +0.000 A 
BRANCH  20  23
ATOM     23  S   UNL     1       2.683   5.579  19.370  0.00  0.00    +0.000 S 
ATOM     24  O   UNL     1       2.174   4.989  18.141  0.00  0.00    +0.000 OA
ATOM     25  O   UNL     1       4.112   5.542  19.636  0.00  0.00    +0.000 OA
BRANCH  23  26
ATOM     26  C   UNL     1       1.800   4.879  20.769  0.00  0.00    +0.000 C 
ATOM     27  F   UNL     1       0.608   4.319  20.418  0.00  0.00    +0.000 F 
ATOM     28  F   UNL     1       2.508   3.900  21.403  0.00  0.00    +0.000 F 
ENDBRANCH  23  26
ENDBRANCH  20  23
ENDBRANCH  15  17
ENDBRANCH   1  15
TORSDOF 5
ENDMDL
MODEL 6
REMARK VINA RESULT:      -7.8      0.784      1.386
REMARK  Name = 
REMARK  6 active torsions:
REMARK  status: ('A' for Active; 'I' for Inactive)
REMARK    1  A    between atoms: C_1  and  C_2
REMARK    2  A    between atoms: C_6  and  S_7
REMARK    3  A    between atoms: S_7  and  N_10
REMARK    4  A    between atoms: N_10  and  C_11
REMARK    5  A    between atoms: C_14  and  S_15
REMARK    6  A    between atoms: S_15  and  C_18
REMARK                            x       y       z     vdW  Elec       q    Type
REMARK                         _______ _______ _______ _____ _____    ______ ____
ROOT
ATOM      1  S   UNL     1       0.473   9.377  21.288  0.00  0.00    +0.000 S 
ATOM      2  O   UNL     1       1.354   9.852  22.338  0.00  0.00    +0.000 OA
ATOM      3  O   UNL     1      -0.414   8.261  21.549  0.00  0.00    +0.000 OA
ENDROOT
BRANCH   1   9
ATOM      4  C   UNL     1      -3.046  10.908  15.670  0.00  0.00    +0.000 C 
ATOM      5  C   UNL     1      -2.344  10.891  16.989  0.00  0.00    +0.000 A 
ATOM      6  C   UNL     1      -1.513   9.857  17.375  0.00  0.00    +0.000 A 
ATOM      7  N   UNL     1      -0.872   9.790  18.567  0.00  0.00    +0.000 NA
ATOM      8  C   UNL     1      -1.085  10.764  19.482  0.00  0.00    +0.000 A 
ATOM      9  C   UNL     1      -0.518  10.754  20.763  0.00  0.00    +0.000 A 
ATOM     10  C   UNL     1      -0.771  11.771  21.702  0.00  0.00    +0.000 A 
ATOM     11  C   UNL     1      -1.582  12.844  21.366  0.00  0.00    +0.000 A 
ATOM     12  C   UNL     1      -2.151  12.897  20.097  0.00  0.00    +0.000 A 
ATOM     13  C   UNL     1      -1.917  11.868  19.170  0.00  0.00    +0.000 A 
ATOM     14  C   UNL     1      -2.531  11.921  17.911  0.00  0.00    +0.000 A 
ENDBRANCH   1   9
BRANCH   1  15
ATOM     15  N   UNL     1       1.445   8.944  19.984  0.00  0.00    +0.000 N 
ATOM     16  H   UNL     1       2.020   9.714  19.642  0.00  0.00    +0.000 HD
BRANCH  15  17
ATOM     17  C   UNL     1       1.895   7.612  19.813  0.00  0.00    +0.000 A 
ATOM     18  C   UNL     1       2.586   7.258  18.652  0.00  0.00    +0.000 A 
ATOM     19  C   UNL     1       3.059   5.951  18.485  0.00  0.00    +0.000 A 
ATOM     20  C   UNL     1       2.824   5.000  19.483  0.00  0.00    +0.000 A 
ATOM     21  C   UNL     1       2.123   5.350  20.642  0.00  0.00    +0.000 A 
ATOM     22  C   UNL     1       1.668   6.663  20.809  0.00  0.00    +0.000 A 
BRANCH  20  23
ATOM     23  S   UNL     1       3.279   3.297  19.210  0.00  0.00    +0.000 S 
ATOM     24  O   UNL     1       4.511   3.313  18.433  0.00  0.00    +0.000 OA
ATOM     25  O   UNL     1       3.268   2.640  20.507  0.00  0.00    +0.000 OA
BRANCH  23  26
ATOM     26  C   UNL     1       1.953   2.634  18.196  0.00  0.00    +0.000 C 
ATOM     27  F   UNL     1       2.399   1.790  17.223  0.00  0.00    +0.000 F 
ATOM     28  F   UNL     1       1.037   1.929  18.921  0.00  0.00    +0.000 F 
ENDBRANCH  23  26
ENDBRANCH  20  23
ENDBRANCH  15  17
ENDBRANCH   1  15
TORSDOF 5
ENDMDL
MODEL 7
REMARK VINA RESULT:      -7.8      1.351      1.838
REMARK  Name = 
REMARK  6 active torsions:
REMARK  status: ('A' for Active; 'I' for Inactive)
REMARK    1  A    between atoms: C_1  and  C_2
REMARK    2  A    between atoms: C_6  and  S_7
REMARK    3  A    between atoms: S_7  and  N_10
REMARK    4  A    between atoms: N_10  and  C_11
REMARK    5  A    between atoms: C_14  and  S_15
REMARK    6  A    between atoms: S_15  and  C_18
REMARK                            x       y       z     vdW  Elec       q    Type
REMARK                         _______ _______ _______ _____ _____    ______ ____
ROOT
ATOM      1  S   UNL     1       0.500   9.253  21.467  0.00  0.00    +0.000 S 
ATOM      2  O   UNL     1       1.279   9.646  22.627  0.00  0.00    +0.000 OA
ATOM      3  O   UNL     1      -0.401   8.123  21.561  0.00  0.00    +0.000 OA
ENDROOT
BRANCH   1   9
ATOM      4  C   UNL     1      -2.829  11.032  15.806  0.00  0.00    +0.000 C 
ATOM      5  C   UNL     1      -2.163  10.959  17.143  0.00  0.00    +0.000 A 
ATOM      6  C   UNL     1      -1.367   9.896  17.519  0.00  0.00    +0.000 A 
ATOM      7  N   UNL     1      -0.760   9.779  18.725  0.00  0.00    +0.000 NA
ATOM      8  C   UNL     1      -0.976  10.729  19.664  0.00  0.00    +0.000 A 
ATOM      9  C   UNL     1      -0.445  10.667  20.959  0.00  0.00    +0.000 A 
ATOM     10  C   UNL     1      -0.701  11.661  21.921  0.00  0.00    +0.000 A 
ATOM     11  C   UNL     1      -1.479  12.763  21.596  0.00  0.00    +0.000 A 
ATOM     12  C   UNL     1      -2.012  12.867  20.315  0.00  0.00    +0.000 A 
ATOM     13  C   UNL     1      -1.775  11.861  19.363  0.00  0.00    +0.000 A 
ATOM     14  C   UNL     1      -2.353  11.965  18.091  0.00  0.00    +0.000 A 
ENDBRANCH   1   9
BRANCH   1  15
ATOM     15  N   UNL     1       1.590   8.917  20.229  0.00  0.00    +0.000 N 
ATOM     16  H   UNL     1       2.313   9.630  20.130  0.00  0.00    +0.000 HD
BRANCH  15  17
ATOM     17  C   UNL     1       1.870   7.585  19.838  0.00  0.00    +0.000 A 
ATOM     18  C   UNL     1       2.263   7.318  18.524  0.00  0.00    +0.000 A 
ATOM     19  C   UNL     1       2.568   6.009  18.133  0.00  0.00    +0.000 A 
ATOM     20  C   UNL     1       2.465   4.970  19.064  0.00  0.00    +0.000 A 
ATOM     21  C   UNL     1       2.061   5.234  20.377  0.00  0.00    +0.000 A 
ATOM     22  C   UNL     1       1.774   6.548  20.764  0.00  0.00    +0.000 A 
BRANCH  20  23
ATOM     23  S   UNL     1       2.694   3.282  18.536  0.00  0.00    +0.000 S 
ATOM     24  O   UNL     1       1.545   2.532  19.021  0.00  0.00    +0.000 OA
ATOM     25  O   UNL     1       2.967   3.316  17.107  0.00  0.00    +0.000 OA
BRANCH  23  26
ATOM     26  C   UNL     1       4.166   2.734  19.408  0.00  0.00    +0.000 C 
ATOM     27  F   UNL     1       5.165   3.661  19.397  0.00  0.00    +0.000 F 
ATOM     28  F   UNL     1       3.925   2.448  20.720  0.00  0.00    +0.000 F 
ENDBRANCH  23  26
ENDBRANCH  20  23
ENDBRANCH  15  17
ENDBRANCH   1  15
TORSDOF 5
ENDMDL
MODEL 8
REMARK VINA RESULT:      -7.8      1.485      1.951
REMARK  Name = 
REMARK  6 active torsions:
REMARK  status: ('A' for Active; 'I' for Inactive)
REMARK    1  A    between atoms: C_1  and  C_2
REMARK    2  A    between atoms: C_6  and  S_7
REMARK    3  A    between atoms: S_7  and  N_10
REMARK    4  A    between atoms: N_10  and  C_11
REMARK    5  A    between atoms: C_14  and  S_15
REMARK    6  A    between atoms: S_15  and  C_18
REMARK                            x       y       z     vdW  Elec       q    Type
REMARK                         _______ _______ _______ _____ _____    ______ ____
ROOT
ATOM      1  S   UNL     1       0.013  10.490  20.874  0.00  0.00    +0.000 S 
ATOM      2  O   UNL     1       0.665  11.372  21.824  0.00  0.00    +0.000 OA
ATOM      3  O   UNL     1      -0.414   9.172  21.297  0.00  0.00    +0.000 OA
ENDROOT
BRANCH   1   9
ATOM      4  C   UNL     1      -3.669  10.137  15.164  0.00  0.00    +0.000 C 
ATOM      5  C   UNL     1      -3.047  10.490  16.476  0.00  0.00    +0.000 A 
ATOM      6  C   UNL     1      -1.902   9.877  16.944  0.00  0.00    +0.000 A 
ATOM      7  N   UNL     1      -1.314  10.151  18.134  0.00  0.00    +0.000 NA
ATOM      8  C   UNL     1      -1.901  11.044  18.965  0.00  0.00    +0.000 A 
ATOM      9  C   UNL     1      -1.406  11.349  20.240  0.00  0.00    +0.000 A 
ATOM     10  C   UNL     1      -2.046  12.269  21.091  0.00  0.00    +0.000 A 
ATOM     11  C   UNL     1      -3.190  12.930  20.669  0.00  0.00    +0.000 A 
ATOM     12  C   UNL     1      -3.703  12.664  19.403  0.00  0.00    +0.000 A 
ATOM     13  C   UNL     1      -3.076  11.727  18.564  0.00  0.00    +0.000 A 
ATOM     14  C   UNL     1      -3.631  11.445  17.309  0.00  0.00    +0.000 A 
ENDBRANCH   1   9
BRANCH   1  15
ATOM     15  N   UNL     1       1.077  10.278  19.586  0.00  0.00    +0.000 N 
ATOM     16  H   UNL     1       1.612  11.118  19.369  0.00  0.00    +0.000 HD
BRANCH  15  17
ATOM     17  C   UNL     1       1.627   9.007  19.291  0.00  0.00    +0.000 A 
ATOM     18  C   UNL     1       2.103   8.741  18.004  0.00  0.00    +0.000 A 
ATOM     19  C   UNL     1       2.674   7.497  17.708  0.00  0.00    +0.000 A 
ATOM     20  C   UNL     1       2.754   6.521  18.706  0.00  0.00    +0.000 A 
ATOM     21  C   UNL     1       2.269   6.781  19.992  0.00  0.00    +0.000 A 
ATOM     22  C   UNL     1       1.715   8.033  20.284  0.00  0.00    +0.000 A 
BRANCH  20  23
ATOM     23  S   UNL     1       3.331   4.882  18.298  0.00  0.00    +0.000 S 
ATOM     24  O   UNL     1       4.078   5.000  17.054  0.00  0.00    +0.000 OA
ATOM     25  O   UNL     1       3.999   4.360  19.479  0.00  0.00    +0.000 OA
BRANCH  23  26
ATOM     26  C   UNL     1       1.831   3.940  17.997  0.00  0.00    +0.000 C 
ATOM     27  F   UNL     1       1.144   3.657  19.141  0.00  0.00    +0.000 F 
ATOM     28  F   UNL     1       0.955   4.590  17.178  0.00  0.00    +0.000 F 
ENDBRANCH  23  26
ENDBRANCH  20  23
ENDBRANCH  15  17
ENDBRANCH   1  15
TORSDOF 5
ENDMDL
MODEL 9
REMARK VINA RESULT:      -7.8      3.901      8.418
REMARK  Name = 
REMARK  6 active torsions:
REMARK  status: ('A' for Active; 'I' for Inactive)
REMARK    1  A    between atoms: C_1  and  C_2
REMARK    2  A    between atoms: C_6  and  S_7
REMARK    3  A    between atoms: S_7  and  N_10
REMARK    4  A    between atoms: N_10  and  C_11
REMARK    5  A    between atoms: C_14  and  S_15
REMARK    6  A    between atoms: S_15  and  C_18
REMARK                            x       y       z     vdW  Elec       q    Type
REMARK                         _______ _______ _______ _____ _____    ______ ____
ROOT
ATOM      1  S   UNL     1       3.858   3.337  18.690  0.00  0.00    +0.000 S 
ATOM      2  O   UNL     1       3.865   2.169  17.828  0.00  0.00    +0.000 OA
ATOM      3  O   UNL     1       3.765   3.166  20.125  0.00  0.00    +0.000 OA
ENDROOT
BRANCH   1   9
ATOM      4  C   UNL     1       7.302   4.962  13.051  0.00  0.00    +0.000 C 
ATOM      5  C   UNL     1       6.813   4.739  14.446  0.00  0.00    +0.000 A 
ATOM      6  C   UNL     1       5.708   3.961  14.730  0.00  0.00    +0.000 A 
ATOM      7  N   UNL     1       5.219   3.747  15.976  0.00  0.00    +0.000 NA
ATOM      8  C   UNL     1       5.802   4.369  17.027  0.00  0.00    +0.000 A 
ATOM      9  C   UNL     1       5.334   4.261  18.342  0.00  0.00    +0.000 A 
ATOM     10  C   UNL     1       5.950   4.934  19.414  0.00  0.00    +0.000 A 
ATOM     11  C   UNL     1       7.075   5.715  19.193  0.00  0.00    +0.000 A 
ATOM     12  C   UNL     1       7.578   5.835  17.902  0.00  0.00    +0.000 A 
ATOM     13  C   UNL     1       6.947   5.182  16.829  0.00  0.00    +0.000 A 
ATOM     14  C   UNL     1       7.447   5.347  15.530  0.00  0.00    +0.000 A 
ENDBRANCH   1   9
BRANCH   1  15
ATOM     15  N   UNL     1       2.555   4.293  18.218  0.00  0.00    +0.000 N 
ATOM     16  H   UNL     1       1.799   3.755  17.794  0.00  0.00    +0.000 HD
BRANCH  15  17
ATOM     17  C   UNL     1       2.257   5.507  18.882  0.00  0.00    +0.000 A 
ATOM     18  C   UNL     1       1.749   5.478  20.183  0.00  0.00    +0.000 A 
ATOM     19  C   UNL     1       1.477   6.673  20.859  0.00  0.00    +0.000 A 
ATOM     20  C   UNL     1       1.706   7.895  20.219  0.00  0.00    +0.000 A 
ATOM     21  C   UNL     1       2.205   7.927  18.912  0.00  0.00    +0.000 A 
ATOM     22  C   UNL     1       2.490   6.728  18.249  0.00  0.00    +0.000 A 
BRANCH  20  23
ATOM     23  S   UNL     1       1.212   9.416  21.009  0.00  0.00    +0.000 S 
ATOM     24  O   UNL     1       1.898   9.463  22.292  0.00  0.00    +0.000 OA
ATOM     25  O   UNL     1       1.431  10.486  20.049  0.00  0.00    +0.000 OA
BRANCH  23  26
ATOM     26  C   UNL     1      -0.552   9.224  21.291  0.00  0.00    +0.000 C 
ATOM     27  F   UNL     1      -0.840   8.263  22.214  0.00  0.00    +0.000 F 
ATOM     28  F   UNL     1      -1.143  10.370  21.738  0.00  0.00    +0.000 F 
ENDBRANCH  23  26
ENDBRANCH  20  23
ENDBRANCH  15  17
ENDBRANCH   1  15
TORSDOF 5
ENDMDL
