MODEL 1
REMARK VINA RESULT:      -9.2      0.000      0.000
REMARK  Name = 
REMARK  5 active torsions:
REMARK  status: ('A' for Active; 'I' for Inactive)
REMARK    1  A    between atoms: C_1  and  C_2
REMARK    2  A    between atoms: N_4  and  C_5
REMARK    3  A    between atoms: C_9  and  C_10
REMARK    4  A    between atoms: N_12  and  C_13
REMARK    5  A    between atoms: C_16  and  C_17
REMARK                            x       y       z     vdW  Elec       q    Type
REMARK                         _______ _______ _______ _____ _____    ______ ____
ROOT
ATOM      1  C   UNL     1       0.009  10.035  21.259  0.00  0.00    +0.000 A 
ATOM      2  C   UNL     1       0.229  10.160  19.887  0.00  0.00    +0.000 A 
ATOM      3  C   UNL     1       1.026   9.226  19.201  0.00  0.00    +0.000 A 
ATOM      4  C   UNL     1       1.624   8.145  19.865  0.00  0.00    +0.000 A 
ATOM      5  C   UNL     1       1.460   8.075  21.252  0.00  0.00    +0.000 A 
ATOM      6  C   UNL     1       0.652   8.996  21.938  0.00  0.00    +0.000 A 
ENDROOT
BRANCH   4   7
ATOM      7  C   UNL     1       2.453   7.194  19.103  0.00  0.00    +0.000 A 
ATOM      8  N   UNL     1       3.067   7.505  17.977  0.00  0.00    +0.000 NA
ATOM      9  N   UNL     1       3.791   6.431  17.552  0.00  0.00    +0.000 NA
ATOM     10  C   UNL     1       3.608   5.435  18.396  0.00  0.00    +0.000 A 
ATOM     11  N   UNL     1       2.715   5.855  19.367  0.00  0.00    +0.000 N 
ATOM     12  C   UNL     1       2.138   5.049  20.416  0.00  0.00    +0.000 C 
ATOM     13  C   UNL     1       1.095   4.037  19.961  0.00  0.00    +0.000 C 
ATOM     14  C   UNL     1       1.523   3.054  18.877  0.00  0.00    +0.000 C 
ATOM     15  C   UNL     1       2.779   2.249  19.196  0.00  0.00    +0.000 C 
ATOM     16  C   UNL     1       4.108   3.009  19.241  0.00  0.00    +0.000 C 
ATOM     17  C   UNL     1       4.282   4.107  18.200  0.00  0.00    +0.000 C 
ENDBRANCH   4   7
BRANCH   1  20
ATOM     18  C   UNL     1      -0.572  12.238  22.292  0.00  0.00    +0.000 C 
ATOM     19  O   UNL     1       0.379  12.901  21.881  0.00  0.00    +0.000 OA
ATOM     20  N   UNL     1      -0.813  10.902  22.018  0.00  0.00    +0.000 N 
ATOM     21  H   UNL     1      -1.721  10.539  22.272  0.00  0.00    +0.000 HD
BRANCH  18  26
ATOM     22  C   UNL     1      -3.942  13.053  23.838  0.00  0.00    +0.000 A 
ATOM     23  C   UNL     1      -3.644  14.236  24.516  0.00  0.00    +0.000 A 
ATOM     24  C   UNL     1      -2.358  14.783  24.473  0.00  0.00    +0.000 A 
ATOM     25  C   UNL     1      -1.346  14.148  23.755  0.00  0.00    +0.000 A 
ATOM     26  C   UNL     1      -1.612  12.944  23.101  0.00  0.00    +0.000 A 
ATOM     27  C   UNL     1      -2.913  12.399  23.148  0.00  0.00    +0.000 A 
BRANCH  22  31
ATOM     28  C   UNL     1      -7.585  12.170  23.341  0.00  0.00    +0.000 C 
ATOM     29  C   UNL     1      -6.331  12.974  23.116  0.00  0.00    +0.000 C 
ATOM     30  O   UNL     1      -6.349  13.954  22.377  0.00  0.00    +0.000 OA
ATOM     31  N   UNL     1      -5.237  12.484  23.814  0.00  0.00    +0.000 N 
ATOM     32  H   UNL     1      -5.341  11.577  24.252  0.00  0.00    +0.000 HD
ENDBRANCH  22  31
ENDBRANCH  18  26
ENDBRANCH   1  20
TORSDOF 4
ENDMDL
MODEL 2
REMARK VINA RESULT:      -9.0      0.946      1.315
REMARK  Name = 
REMARK  5 active torsions:
REMARK  status: ('A' for Active; 'I' for Inactive)
REMARK    1  A    between atoms: C_1  and  C_2
REMARK    2  A    between atoms: N_4  and  C_5
REMARK    3  A    between atoms: C_9  and  C_10
REMARK    4  A    between atoms: N_12  and  C_13
REMARK    5  A    between atoms: C_16  and  C_17
REMARK                            x       y       z     vdW  Elec       q    Type
REMARK                         _______ _______ _______ _____ _____    ______ ____
ROOT
ATOM      1  C   UNL     1       0.476   9.924  20.771  0.00  0.00    +0.000 A 
ATOM      2  C   UNL     1       0.906   8.786  21.453  0.00  0.00    +0.000 A 
ATOM      3  C   UNL     1       1.654   7.794  20.792  0.00  0.00    +0.000 A 
ATOM      4  C   UNL     1       1.990   7.912  19.435  0.00  0.00    +0.000 A 
ATOM      5  C   UNL     1       1.487   9.019  18.744  0.00  0.00    +0.000 A 
ATOM      6  C   UNL     1       0.755  10.019  19.405  0.00  0.00    +0.000 A 
ENDROOT
BRANCH   4   7
ATOM      7  C   UNL     1       2.773   6.845  18.787  0.00  0.00    +0.000 A 
ATOM      8  N   UNL     1       3.505   7.036  17.705  0.00  0.00    +0.000 NA
ATOM      9  N   UNL     1       4.144   5.874  17.389  0.00  0.00    +0.000 NA
ATOM     10  C   UNL     1       3.790   4.945  18.254  0.00  0.00    +0.000 A 
ATOM     11  N   UNL     1       2.871   5.502  19.127  0.00  0.00    +0.000 N 
ATOM     12  C   UNL     1       2.129   4.812  20.155  0.00  0.00    +0.000 C 
ATOM     13  C   UNL     1       1.025   3.889  19.655  0.00  0.00    +0.000 C 
ATOM     14  C   UNL     1       1.433   2.815  18.653  0.00  0.00    +0.000 C 
ATOM     15  C   UNL     1       2.568   1.904  19.112  0.00  0.00    +0.000 C 
ATOM     16  C   UNL     1       3.962   2.526  19.239  0.00  0.00    +0.000 C 
ATOM     17  C   UNL     1       4.334   3.547  18.171  0.00  0.00    +0.000 C 
ENDBRANCH   4   7
BRANCH   1  20
ATOM     18  C   UNL     1      -0.754  11.020  22.654  0.00  0.00    +0.000 C 
ATOM     19  O   UNL     1      -0.630  10.139  23.504  0.00  0.00    +0.000 OA
ATOM     20  N   UNL     1      -0.240  10.989  21.368  0.00  0.00    +0.000 N 
ATOM     21  H   UNL     1      -0.264  11.852  20.844  0.00  0.00    +0.000 HD
BRANCH  18  26
ATOM     22  C   UNL     1      -3.513  13.347  23.829  0.00  0.00    +0.000 A 
ATOM     23  C   UNL     1      -2.871  14.584  23.744  0.00  0.00    +0.000 A 
ATOM     24  C   UNL     1      -1.549  14.677  23.300  0.00  0.00    +0.000 A 
ATOM     25  C   UNL     1      -0.844  13.529  22.941  0.00  0.00    +0.000 A 
ATOM     26  C   UNL     1      -1.454  12.278  23.054  0.00  0.00    +0.000 A 
ATOM     27  C   UNL     1      -2.789  12.193  23.502  0.00  0.00    +0.000 A 
BRANCH  22  31
ATOM     28  C   UNL     1      -7.249  12.839  24.126  0.00  0.00    +0.000 C 
ATOM     29  C   UNL     1      -5.924  12.848  23.409  0.00  0.00    +0.000 C 
ATOM     30  O   UNL     1      -5.863  12.559  22.218  0.00  0.00    +0.000 OA
ATOM     31  N   UNL     1      -4.863  13.205  24.228  0.00  0.00    +0.000 N 
ATOM     32  H   UNL     1      -5.048  13.257  25.222  0.00  0.00    +0.000 HD
ENDBRANCH  22  31
ENDBRANCH  18  26
ENDBRANCH   1  20
TORSDOF 4
ENDMDL
MODEL 3
REMARK VINA RESULT:      -9.0      7.748     10.481
REMARK  Name = 
REMARK  5 active torsions:
REMARK  status: ('A' for Active; 'I' for Inactive)
REMARK    1  A    between atoms: C_1  and  C_2
REMARK    2  A    between atoms: N_4  and  C_5
REMARK    3  A    between atoms: C_9  and  C_10
REMARK    4  A    between atoms: N_12  and  C_13
REMARK    5  A    between atoms: C_16  and  C_17
REMARK                            x       y       z     vdW  Elec       q    Type
REMARK                         _______ _______ _______ _____ _____    ______ ____
ROOT
ATOM      1  C   UNL     1       8.126   8.105  18.296  0.00  0.00    +0.000 A 
ATOM      2  C   UNL     1       7.126   8.162  17.326  0.00  0.00    +0.000 A 
ATOM      3  C   UNL     1       6.281   7.059  17.103  0.00  0.00    +0.000 A 
ATOM      4  C   UNL     1       6.414   5.873  17.841  0.00  0.00    +0.000 A 
ATOM      5  C   UNL     1       7.470   5.802  18.755  0.00  0.00    +0.000 A 
ATOM      6  C   UNL     1       8.305   6.906  18.992  0.00  0.00    +0.000 A 
ENDROOT
BRANCH   4   7
ATOM      7  C   UNL     1       5.507   4.744  17.568  0.00  0.00    +0.000 A 
ATOM      8  N   UNL     1       5.531   4.045  16.448  0.00  0.00    +0.000 NA
ATOM      9  N   UNL     1       4.611   3.043  16.528  0.00  0.00    +0.000 NA
ATOM     10  C   UNL     1       3.988   3.129  17.687  0.00  0.00    +0.000 A 
ATOM     11  N   UNL     1       4.483   4.234  18.357  0.00  0.00    +0.000 N 
ATOM     12  C   UNL     1       4.000   4.775  19.605  0.00  0.00    +0.000 C 
ATOM     13  C   UNL     1       2.652   5.482  19.531  0.00  0.00    +0.000 C 
ATOM     14  C   UNL     1       1.491   4.681  18.954  0.00  0.00    +0.000 C 
ATOM     15  C   UNL     1       1.227   3.343  19.639  0.00  0.00    +0.000 C 
ATOM     16  C   UNL     1       2.275   2.240  19.454  0.00  0.00    +0.000 C 
ATOM     17  C   UNL     1       2.913   2.154  18.074  0.00  0.00    +0.000 C 
ENDBRANCH   4   7
BRANCH   1  20
ATOM     18  C   UNL     1       8.852  10.499  18.211  0.00  0.00    +0.000 C 
ATOM     19  O   UNL     1       7.927  10.956  17.541  0.00  0.00    +0.000 OA
ATOM     20  N   UNL     1       8.989   9.181  18.616  0.00  0.00    +0.000 N 
ATOM     21  H   UNL     1       9.698   8.987  19.309  0.00  0.00    +0.000 HD
BRANCH  18  26
ATOM     22  C   UNL     1      11.019  13.606  18.441  0.00  0.00    +0.000 A 
ATOM     23  C   UNL     1      11.857  13.267  19.506  0.00  0.00    +0.000 A 
ATOM     24  C   UNL     1      11.734  12.033  20.151  0.00  0.00    +0.000 A 
ATOM     25  C   UNL     1      10.763  11.120  19.743  0.00  0.00    +0.000 A 
ATOM     26  C   UNL     1       9.890  11.453  18.706  0.00  0.00    +0.000 A 
ATOM     27  C   UNL     1      10.021  12.700  18.060  0.00  0.00    +0.000 A 
BRANCH  22  31
ATOM     28  C   UNL     1      10.865  17.142  17.110  0.00  0.00    +0.000 C 
ATOM     29  C   UNL     1      10.621  16.050  18.118  0.00  0.00    +0.000 C 
ATOM     30  O   UNL     1      10.020  16.293  19.160  0.00  0.00    +0.000 OA
ATOM     31  N   UNL     1      11.134  14.822  17.728  0.00  0.00    +0.000 N 
ATOM     32  H   UNL     1      11.743  14.816  16.919  0.00  0.00    +0.000 HD
ENDBRANCH  22  31
ENDBRANCH  18  26
ENDBRANCH   1  20
TORSDOF 4
ENDMDL
MODEL 4
REMARK VINA RESULT:      -8.9      7.601     10.100
REMARK  Name = 
REMARK  5 active torsions:
REMARK  status: ('A' for Active; 'I' for Inactive)
REMARK    1  A    between atoms: C_1  and  C_2
REMARK    2  A    between atoms: N_4  and  C_5
REMARK    3  A    between atoms: C_9  and  C_10
REMARK    4  A    between atoms: N_12  and  C_13
REMARK    5  A    between atoms: C_16  and  C_17
REMARK                            x       y       z     vdW  Elec       q    Type
REMARK                         _______ _______ _______ _____ _____    ______ ____
ROOT
ATOM      1  C   UNL     1       7.659   8.258  17.730  0.00  0.00    +0.000 A 
ATOM      2  C   UNL     1       8.082   7.111  18.402  0.00  0.00    +0.000 A 
ATOM      3  C   UNL     1       7.274   5.960  18.431  0.00  0.00    +0.000 A 
ATOM      4  C   UNL     1       6.025   5.923  17.793  0.00  0.00    +0.000 A 
ATOM      5  C   UNL     1       5.580   7.104  17.190  0.00  0.00    +0.000 A 
ATOM      6  C   UNL     1       6.390   8.250  17.145  0.00  0.00    +0.000 A 
ENDROOT
BRANCH   4   7
ATOM      7  C   UNL     1       5.215   4.694  17.854  0.00  0.00    +0.000 A 
ATOM      8  N   UNL     1       5.253   3.752  16.930  0.00  0.00    +0.000 NA
ATOM      9  N   UNL     1       4.434   2.728  17.304  0.00  0.00    +0.000 NA
ATOM     10  C   UNL     1       3.860   3.039  18.449  0.00  0.00    +0.000 A 
ATOM     11  N   UNL     1       4.281   4.308  18.807  0.00  0.00    +0.000 N 
ATOM     12  C   UNL     1       3.808   5.092  19.923  0.00  0.00    +0.000 C 
ATOM     13  C   UNL     1       2.398   5.651  19.776  0.00  0.00    +0.000 C 
ATOM     14  C   UNL     1       1.291   4.646  19.482  0.00  0.00    +0.000 C 
ATOM     15  C   UNL     1       1.185   3.495  20.477  0.00  0.00    +0.000 C 
ATOM     16  C   UNL     1       2.321   2.466  20.486  0.00  0.00    +0.000 C 
ATOM     17  C   UNL     1       2.899   2.103  19.125  0.00  0.00    +0.000 C 
ENDBRANCH   4   7
BRANCH   1  20
ATOM     18  C   UNL     1       8.995  10.163  18.650  0.00  0.00    +0.000 C 
ATOM     19  O   UNL     1       8.963   9.863  19.843  0.00  0.00    +0.000 OA
ATOM     20  N   UNL     1       8.425   9.443  17.613  0.00  0.00    +0.000 N 
ATOM     21  H   UNL     1       8.683   9.710  16.674  0.00  0.00    +0.000 HD
BRANCH  18  26
ATOM     22  C   UNL     1       9.792  13.772  17.783  0.00  0.00    +0.000 A 
ATOM     23  C   UNL     1      11.146  13.674  17.458  0.00  0.00    +0.000 A 
ATOM     24  C   UNL     1      11.809  12.444  17.508  0.00  0.00    +0.000 A 
ATOM     25  C   UNL     1      11.126  11.291  17.893  0.00  0.00    +0.000 A 
ATOM     26  C   UNL     1       9.781  11.373  18.259  0.00  0.00    +0.000 A 
ATOM     27  C   UNL     1       9.119  12.617  18.205  0.00  0.00    +0.000 A 
BRANCH  22  31
ATOM     28  C   UNL     1       8.133  17.131  18.302  0.00  0.00    +0.000 C 
ATOM     29  C   UNL     1       9.051  15.991  18.658  0.00  0.00    +0.000 C 
ATOM     30  O   UNL     1       9.691  16.016  19.705  0.00  0.00    +0.000 OA
ATOM     31  N   UNL     1       9.066  14.984  17.704  0.00  0.00    +0.000 N 
ATOM     32  H   UNL     1       8.610  15.181  16.821  0.00  0.00    +0.000 HD
ENDBRANCH  22  31
ENDBRANCH  18  26
ENDBRANCH   1  20
TORSDOF 4
ENDMDL
MODEL 5
REMARK VINA RESULT:      -8.8      2.012      3.086
REMARK  Name = 
REMARK  5 active torsions:
REMARK  status: ('A' for Active; 'I' for Inactive)
REMARK    1  A    between atoms: C_1  and  C_2
REMARK    2  A    between atoms: N_4  and  C_5
REMARK    3  A    between atoms: C_9  and  C_10
REMARK    4  A    between atoms: N_12  and  C_13
REMARK    5  A    between atoms: C_16  and  C_17
REMARK                            x       y       z     vdW  Elec       q    Type
REMARK                         _______ _______ _______ _____ _____    ______ ____
ROOT
ATOM      1  C   UNL     1       1.281   9.265  19.915  0.00  0.00    +0.000 A 
ATOM      2  C   UNL     1       1.609   9.266  18.559  0.00  0.00    +0.000 A 
ATOM      3  C   UNL     1       2.137   8.113  17.950  0.00  0.00    +0.000 A 
ATOM      4  C   UNL     1       2.352   6.932  18.676  0.00  0.00    +0.000 A 
ATOM      5  C   UNL     1       2.092   6.969  20.050  0.00  0.00    +0.000 A 
ATOM      6  C   UNL     1       1.550   8.113  20.659  0.00  0.00    +0.000 A 
ENDROOT
BRANCH   4   7
ATOM      7  C   UNL     1       2.910   5.752  17.993  0.00  0.00    +0.000 A 
ATOM      8  N   UNL     1       2.275   4.598  17.900  0.00  0.00    +0.000 NA
ATOM      9  N   UNL     1       3.031   3.732  17.167  0.00  0.00    +0.000 NA
ATOM     10  C   UNL     1       4.153   4.332  16.823  0.00  0.00    +0.000 A 
ATOM     11  N   UNL     1       4.147   5.599  17.379  0.00  0.00    +0.000 N 
ATOM     12  C   UNL     1       5.230   6.555  17.362  0.00  0.00    +0.000 C 
ATOM     13  C   UNL     1       6.412   6.215  18.262  0.00  0.00    +0.000 C 
ATOM     14  C   UNL     1       7.063   4.854  18.051  0.00  0.00    +0.000 C 
ATOM     15  C   UNL     1       7.526   4.574  16.625  0.00  0.00    +0.000 C 
ATOM     16  C   UNL     1       6.443   4.387  15.558  0.00  0.00    +0.000 C 
ATOM     17  C   UNL     1       5.197   3.632  16.000  0.00  0.00    +0.000 C 
ENDBRANCH   4   7
BRANCH   1  20
ATOM     18  C   UNL     1      -0.510  10.966  20.314  0.00  0.00    +0.000 C 
ATOM     19  O   UNL     1      -1.308  10.613  19.447  0.00  0.00    +0.000 OA
ATOM     20  N   UNL     1       0.705  10.364  20.597  0.00  0.00    +0.000 N 
ATOM     21  H   UNL     1       1.170  10.647  21.448  0.00  0.00    +0.000 HD
BRANCH  18  26
ATOM     22  C   UNL     1      -2.702  13.320  22.330  0.00  0.00    +0.000 A 
ATOM     23  C   UNL     1      -1.754  14.238  22.789  0.00  0.00    +0.000 A 
ATOM     24  C   UNL     1      -0.405  14.108  22.445  0.00  0.00    +0.000 A 
ATOM     25  C   UNL     1       0.018  13.051  21.642  0.00  0.00    +0.000 A 
ATOM     26  C   UNL     1      -0.906  12.101  21.203  0.00  0.00    +0.000 A 
ATOM     27  C   UNL     1      -2.266  12.239  21.552  0.00  0.00    +0.000 A 
BRANCH  22  31
ATOM     28  C   UNL     1      -6.243  13.076  23.633  0.00  0.00    +0.000 C 
ATOM     29  C   UNL     1      -4.765  12.789  23.633  0.00  0.00    +0.000 C 
ATOM     30  O   UNL     1      -4.279  12.047  24.482  0.00  0.00    +0.000 OA
ATOM     31  N   UNL     1      -4.084  13.434  22.612  0.00  0.00    +0.000 N 
ATOM     32  H   UNL     1      -4.594  14.137  22.092  0.00  0.00    +0.000 HD
ENDBRANCH  22  31
ENDBRANCH  18  26
ENDBRANCH   1  20
TORSDOF 4
ENDMDL
MODEL 6
REMARK VINA RESULT:      -8.7      0.549      1.031
REMARK  Name = 
REMARK  5 active torsions:
REMARK  status: ('A' for Active; 'I' for Inactive)
REMARK    1  A    between atoms: C_1  and  C_2
REMARK    2  A    between atoms: N_4  and  C_5
REMARK    3  A    between atoms: C_9  and  C_10
REMARK    4  A    between atoms: N_12  and  C_13
REMARK    5  A    between atoms: C_16  and  C_17
REMARK                            x       y       z     vdW  Elec       q    Type
REMARK                         _______ _______ _______ _____ _____    ______ ____
ROOT
ATOM      1  C   UNL     1      -0.014   9.896  21.136  0.00  0.00    +0.000 A 
ATOM      2  C   UNL     1       0.673   8.832  21.720  0.00  0.00    +0.000 A 
ATOM      3  C   UNL     1       1.519   8.016  20.946  0.00  0.00    +0.000 A 
ATOM      4  C   UNL     1       1.700   8.240  19.573  0.00  0.00    +0.000 A 
ATOM      5  C   UNL     1       0.946   9.261  18.987  0.00  0.00    +0.000 A 
ATOM      6  C   UNL     1       0.113  10.087  19.758  0.00  0.00    +0.000 A 
ENDROOT
BRANCH   4   7
ATOM      7  C   UNL     1       2.595   7.356  18.806  0.00  0.00    +0.000 A 
ATOM      8  N   UNL     1       3.262   7.748  17.737  0.00  0.00    +0.000 NA
ATOM      9  N   UNL     1       4.037   6.718  17.293  0.00  0.00    +0.000 NA
ATOM     10  C   UNL     1       3.835   5.670  18.065  0.00  0.00    +0.000 A 
ATOM     11  N   UNL     1       2.878   6.010  19.006  0.00  0.00    +0.000 N 
ATOM     12  C   UNL     1       2.266   5.130  19.972  0.00  0.00    +0.000 C 
ATOM     13  C   UNL     1       1.277   4.122  19.400  0.00  0.00    +0.000 C 
ATOM     14  C   UNL     1       1.791   3.216  18.287  0.00  0.00    +0.000 C 
ATOM     15  C   UNL     1       3.048   2.423  18.630  0.00  0.00    +0.000 C 
ATOM     16  C   UNL     1       4.352   3.211  18.795  0.00  0.00    +0.000 C 
ATOM     17  C   UNL     1       4.554   4.372  17.831  0.00  0.00    +0.000 C 
ENDBRANCH   4   7
BRANCH   1  20
ATOM     18  C   UNL     1      -0.553  12.100  22.191  0.00  0.00    +0.000 C 
ATOM     19  O   UNL     1       0.473  12.711  21.895  0.00  0.00    +0.000 OA
ATOM     20  N   UNL     1      -0.849  10.792  21.847  0.00  0.00    +0.000 N 
ATOM     21  H   UNL     1      -1.798  10.481  22.002  0.00  0.00    +0.000 HD
BRANCH  18  26
ATOM     22  C   UNL     1      -3.999  13.095  23.434  0.00  0.00    +0.000 A 
ATOM     23  C   UNL     1      -3.691  14.228  24.191  0.00  0.00    +0.000 A 
ATOM     24  C   UNL     1      -2.374  14.683  24.298  0.00  0.00    +0.000 A 
ATOM     25  C   UNL     1      -1.340  14.004  23.655  0.00  0.00    +0.000 A 
ATOM     26  C   UNL     1      -1.619  12.847  22.925  0.00  0.00    +0.000 A 
ATOM     27  C   UNL     1      -2.951  12.395  22.820  0.00  0.00    +0.000 A 
BRANCH  22  31
ATOM     28  C   UNL     1      -7.482  12.201  22.266  0.00  0.00    +0.000 C 
ATOM     29  C   UNL     1      -6.095  12.768  22.117  0.00  0.00    +0.000 C 
ATOM     30  O   UNL     1      -5.752  13.295  21.063  0.00  0.00    +0.000 OA
ATOM     31  N   UNL     1      -5.320  12.622  23.257  0.00  0.00    +0.000 N 
ATOM     32  H   UNL     1      -5.687  12.024  23.988  0.00  0.00    +0.000 HD
ENDBRANCH  22  31
ENDBRANCH  18  26
ENDBRANCH   1  20
TORSDOF 4
ENDMDL
MODEL 7
REMARK VINA RESULT:      -8.7      0.762      1.158
REMARK  Name = 
REMARK  5 active torsions:
REMARK  status: ('A' for Active; 'I' for Inactive)
REMARK    1  A    between atoms: C_1  and  C_2
REMARK    2  A    between atoms: N_4  and  C_5
REMARK    3  A    between atoms: C_9  and  C_10
REMARK    4  A    between atoms: N_12  and  C_13
REMARK    5  A    between atoms: C_16  and  C_17
REMARK                            x       y       z     vdW  Elec       q    Type
REMARK                         _______ _______ _______ _____ _____    ______ ____
ROOT
ATOM      1  C   UNL     1      -0.158  10.225  21.454  0.00  0.00    +0.000 A 
ATOM      2  C   UNL     1       0.383   9.097  22.071  0.00  0.00    +0.000 A 
ATOM      3  C   UNL     1       1.179   8.194  21.342  0.00  0.00    +0.000 A 
ATOM      4  C   UNL     1       1.455   8.393  19.981  0.00  0.00    +0.000 A 
ATOM      5  C   UNL     1       0.843   9.485  19.357  0.00  0.00    +0.000 A 
ATOM      6  C   UNL     1       0.062  10.397  20.084  0.00  0.00    +0.000 A 
ENDROOT
BRANCH   4   7
ATOM      7  C   UNL     1       2.292   7.418  19.261  0.00  0.00    +0.000 A 
ATOM      8  N   UNL     1       2.903   7.685  18.121  0.00  0.00    +0.000 NA
ATOM      9  N   UNL     1       3.636   6.600  17.743  0.00  0.00    +0.000 NA
ATOM     10  C   UNL     1       3.465   5.640  18.631  0.00  0.00    +0.000 A 
ATOM     11  N   UNL     1       2.568   6.094  19.583  0.00  0.00    +0.000 N 
ATOM     12  C   UNL     1       2.000   5.330  20.668  0.00  0.00    +0.000 C 
ATOM     13  C   UNL     1       0.966   4.288  20.259  0.00  0.00    +0.000 C 
ATOM     14  C   UNL     1       1.403   3.263  19.219  0.00  0.00    +0.000 C 
ATOM     15  C   UNL     1       2.667   2.485  19.572  0.00  0.00    +0.000 C 
ATOM     16  C   UNL     1       3.989   3.260  19.582  0.00  0.00    +0.000 C 
ATOM     17  C   UNL     1       4.151   4.312  18.492  0.00  0.00    +0.000 C 
ENDBRANCH   4   7
BRANCH   1  20
ATOM     18  C   UNL     1      -0.577  12.526  22.341  0.00  0.00    +0.000 C 
ATOM     19  O   UNL     1       0.454  13.073  21.953  0.00  0.00    +0.000 OA
ATOM     20  N   UNL     1      -0.931  11.205  22.120  0.00  0.00    +0.000 N 
ATOM     21  H   UNL     1      -1.881  10.943  22.340  0.00  0.00    +0.000 HD
BRANCH  18  26
ATOM     22  C   UNL     1      -3.942  13.902  23.432  0.00  0.00    +0.000 A 
ATOM     23  C   UNL     1      -3.543  14.944  24.272  0.00  0.00    +0.000 A 
ATOM     24  C   UNL     1      -2.188  15.214  24.486  0.00  0.00    +0.000 A 
ATOM     25  C   UNL     1      -1.210  14.439  23.866  0.00  0.00    +0.000 A 
ATOM     26  C   UNL     1      -1.586  13.369  23.053  0.00  0.00    +0.000 A 
ATOM     27  C   UNL     1      -2.955  13.103  22.841  0.00  0.00    +0.000 A 
BRANCH  22  31
ATOM     28  C   UNL     1      -7.475  12.572  23.213  0.00  0.00    +0.000 C 
ATOM     29  C   UNL     1      -6.086  12.670  23.785  0.00  0.00    +0.000 C 
ATOM     30  O   UNL     1      -5.750  11.951  24.722  0.00  0.00    +0.000 OA
ATOM     31  N   UNL     1      -5.299  13.618  23.149  0.00  0.00    +0.000 N 
ATOM     32  H   UNL     1      -5.766  14.243  22.502  0.00  0.00    +0.000 HD
ENDBRANCH  22  31
ENDBRANCH  18  26
ENDBRANCH   1  20
TORSDOF 4
ENDMDL
MODEL 8
REMARK VINA RESULT:      -8.7      1.996      3.272
REMARK  Name = 
REMARK  5 active torsions:
REMARK  status: ('A' for Active; 'I' for Inactive)
REMARK    1  A    between atoms: C_1  and  C_2
REMARK    2  A    between atoms: N_4  and  C_5
REMARK    3  A    between atoms: C_9  and  C_10
REMARK    4  A    between atoms: N_12  and  C_13
REMARK    5  A    between atoms: C_16  and  C_17
REMARK                            x       y       z     vdW  Elec       q    Type
REMARK                         _______ _______ _______ _____ _____    ______ ____
ROOT
ATOM      1  C   UNL     1       1.194   9.156  20.031  0.00  0.00    +0.000 A 
ATOM      2  C   UNL     1       1.523   8.008  20.751  0.00  0.00    +0.000 A 
ATOM      3  C   UNL     1       2.136   6.914  20.114  0.00  0.00    +0.000 A 
ATOM      4  C   UNL     1       2.436   6.937  18.743  0.00  0.00    +0.000 A 
ATOM      5  C   UNL     1       2.030   8.063  18.018  0.00  0.00    +0.000 A 
ATOM      6  C   UNL     1       1.433   9.163  18.654  0.00  0.00    +0.000 A 
ENDROOT
BRANCH   4   7
ATOM      7  C   UNL     1       3.076   5.765  18.121  0.00  0.00    +0.000 A 
ATOM      8  N   UNL     1       2.722   4.520  18.380  0.00  0.00    +0.000 NA
ATOM      9  N   UNL     1       3.464   3.676  17.608  0.00  0.00    +0.000 NA
ATOM     10  C   UNL     1       4.303   4.389  16.884  0.00  0.00    +0.000 A 
ATOM     11  N   UNL     1       4.135   5.721  17.222  0.00  0.00    +0.000 N 
ATOM     12  C   UNL     1       4.931   6.835  16.765  0.00  0.00    +0.000 C 
ATOM     13  C   UNL     1       6.337   6.913  17.348  0.00  0.00    +0.000 C 
ATOM     14  C   UNL     1       7.218   5.682  17.176  0.00  0.00    +0.000 C 
ATOM     15  C   UNL     1       7.385   5.205  15.737  0.00  0.00    +0.000 C 
ATOM     16  C   UNL     1       6.155   4.605  15.048  0.00  0.00    +0.000 C 
ATOM     17  C   UNL     1       5.258   3.740  15.923  0.00  0.00    +0.000 C 
ENDBRANCH   4   7
BRANCH   1  20
ATOM     18  C   UNL     1      -0.214  10.369  21.707  0.00  0.00    +0.000 C 
ATOM     19  O   UNL     1      -0.551   9.412  22.404  0.00  0.00    +0.000 OA
ATOM     20  N   UNL     1       0.617  10.317  20.600  0.00  0.00    +0.000 N 
ATOM     21  H   UNL     1       0.951  11.199  20.237  0.00  0.00    +0.000 HD
BRANCH  18  26
ATOM     22  C   UNL     1      -2.423  13.102  23.142  0.00  0.00    +0.000 A 
ATOM     23  C   UNL     1      -1.654  14.235  22.868  0.00  0.00    +0.000 A 
ATOM     24  C   UNL     1      -0.424  14.127  22.212  0.00  0.00    +0.000 A 
ATOM     25  C   UNL     1       0.060  12.878  21.827  0.00  0.00    +0.000 A 
ATOM     26  C   UNL     1      -0.673  11.728  22.125  0.00  0.00    +0.000 A 
ATOM     27  C   UNL     1      -1.914  11.846  22.785  0.00  0.00    +0.000 A 
BRANCH  22  31
ATOM     28  C   UNL     1      -6.086  13.070  24.080  0.00  0.00    +0.000 C 
ATOM     29  C   UNL     1      -4.906  12.845  23.170  0.00  0.00    +0.000 C 
ATOM     30  O   UNL     1      -5.076  12.422  22.031  0.00  0.00    +0.000 OA
ATOM     31  N   UNL     1      -3.693  13.164  23.761  0.00  0.00    +0.000 N 
ATOM     32  H   UNL     1      -3.701  13.346  24.757  0.00  0.00    +0.000 HD
ENDBRANCH  22  31
ENDBRANCH  18  26
ENDBRANCH   1  20
TORSDOF 4
ENDMDL
MODEL 9
REMARK VINA RESULT:      -8.7      2.186      3.392
REMARK  Name = 
REMARK  5 active torsions:
REMARK  status: ('A' for Active; 'I' for Inactive)
REMARK    1  A    between atoms: C_1  and  C_2
REMARK    2  A    between atoms: N_4  and  C_5
REMARK    3  A    between atoms: C_9  and  C_10
REMARK    4  A    between atoms: N_12  and  C_13
REMARK    5  A    between atoms: C_16  and  C_17
REMARK                            x       y       z     vdW  Elec       q    Type
REMARK                         _______ _______ _______ _____ _____    ______ ____
ROOT
ATOM      1  C   UNL     1       1.058   9.564  19.530  0.00  0.00    +0.000 A 
ATOM      2  C   UNL     1       1.388   9.368  18.190  0.00  0.00    +0.000 A 
ATOM      3  C   UNL     1       2.010   8.177  17.772  0.00  0.00    +0.000 A 
ATOM      4  C   UNL     1       2.318   7.153  18.679  0.00  0.00    +0.000 A 
ATOM      5  C   UNL     1       2.052   7.394  20.031  0.00  0.00    +0.000 A 
ATOM      6  C   UNL     1       1.417   8.575  20.450  0.00  0.00    +0.000 A 
ENDROOT
BRANCH   4   7
ATOM      7  C   UNL     1       2.972   5.926  18.193  0.00  0.00    +0.000 A 
ATOM      8  N   UNL     1       2.643   4.715  18.604  0.00  0.00    +0.000 NA
ATOM      9  N   UNL     1       3.390   3.797  17.928  0.00  0.00    +0.000 NA
ATOM     10  C   UNL     1       4.209   4.431  17.114  0.00  0.00    +0.000 A 
ATOM     11  N   UNL     1       4.021   5.791  17.292  0.00  0.00    +0.000 N 
ATOM     12  C   UNL     1       4.793   6.855  16.695  0.00  0.00    +0.000 C 
ATOM     13  C   UNL     1       6.203   7.025  17.246  0.00  0.00    +0.000 C 
ATOM     14  C   UNL     1       7.104   5.796  17.211  0.00  0.00    +0.000 C 
ATOM     15  C   UNL     1       7.263   5.152  15.837  0.00  0.00    +0.000 C 
ATOM     16  C   UNL     1       6.036   4.455  15.240  0.00  0.00    +0.000 C 
ATOM     17  C   UNL     1       5.164   3.686  16.225  0.00  0.00    +0.000 C 
ENDBRANCH   4   7
BRANCH   1  20
ATOM     18  C   UNL     1       0.888  12.003  20.063  0.00  0.00    +0.000 C 
ATOM     19  O   UNL     1       1.975  12.372  19.621  0.00  0.00    +0.000 OA
ATOM     20  N   UNL     1       0.393  10.710  20.030  0.00  0.00    +0.000 N 
ATOM     21  H   UNL     1      -0.582  10.587  20.264  0.00  0.00    +0.000 HD
BRANCH  18  26
ATOM     22  C   UNL     1      -1.714  13.642  22.287  0.00  0.00    +0.000 A 
ATOM     23  C   UNL     1      -1.823  14.898  21.686  0.00  0.00    +0.000 A 
ATOM     24  C   UNL     1      -1.066  15.222  20.557  0.00  0.00    +0.000 A 
ATOM     25  C   UNL     1      -0.179  14.293  20.015  0.00  0.00    +0.000 A 
ATOM     26  C   UNL     1      -0.026  13.045  20.621  0.00  0.00    +0.000 A 
ATOM     27  C   UNL     1      -0.795  12.726  21.760  0.00  0.00    +0.000 A 
BRANCH  22  31
ATOM     28  C   UNL     1      -4.336  12.421  24.723  0.00  0.00    +0.000 C 
ATOM     29  C   UNL     1      -3.748  12.666  23.358  0.00  0.00    +0.000 C 
ATOM     30  O   UNL     1      -4.374  12.355  22.350  0.00  0.00    +0.000 OA
ATOM     31  N   UNL     1      -2.492  13.252  23.403  0.00  0.00    +0.000 N 
ATOM     32  H   UNL     1      -2.039  13.300  24.308  0.00  0.00    +0.000 HD
ENDBRANCH  22  31
ENDBRANCH  18  26
ENDBRANCH   1  20
TORSDOF 4
ENDMDL
