MODEL 1
REMARK VINA RESULT:      -9.3      0.000      0.000
REMARK  Name = 
REMARK  4 active torsions:
REMARK  status: ('A' for Active; 'I' for Inactive)
REMARK    1  A    between atoms: C_2  and  C_17
REMARK    2  A    between atoms: C_21  and  C_22
REMARK    3  A    between atoms: C_22  and  O_23
REMARK    4  A    between atoms: O_23  and  C_24
REMARK                            x       y       z     vdW  Elec       q    Type
REMARK                         _______ _______ _______ _____ _____    ______ ____
ROOT
ATOM      1  O   UNL     1       4.208   5.841  19.226  0.00  0.00    +0.000 OA
ATOM      2  C   UNL     1       3.974   6.155  18.064  0.00  0.00    +0.000 C 
ATOM      3  N   UNL     1       3.155   7.195  17.680  0.00  0.00    +0.000 N 
ATOM      4  C   UNL     1       2.448   7.955  18.560  0.00  0.00    +0.000 A 
ATOM      5  N   UNL     1       2.263   7.804  19.849  0.00  0.00    +0.000 NA
ATOM      6  C   UNL     1       1.411   8.793  20.309  0.00  0.00    +0.000 A 
ATOM      7  C   UNL     1       0.935   8.935  21.629  0.00  0.00    +0.000 A 
ATOM      8  C   UNL     1       0.056   9.977  21.935  0.00  0.00    +0.000 A 
ATOM      9  C   UNL     1      -0.321  10.898  20.955  0.00  0.00    +0.000 A 
ATOM     10  C   UNL     1       0.143  10.784  19.646  0.00  0.00    +0.000 A 
ATOM     11  C   UNL     1       0.999   9.717  19.344  0.00  0.00    +0.000 A 
ATOM     12  S   UNL     1       1.689   9.289  17.826  0.00  0.00    +0.000 S 
ATOM     13  O   UNL     1      -1.177  11.946  21.194  0.00  0.00    +0.000 OA
ATOM     14  C   UNL     1      -1.353  12.178  22.594  0.00  0.00    +0.000 C 
ATOM     15  C   UNL     1      -1.554  10.871  23.342  0.00  0.00    +0.000 C 
ATOM     16  O   UNL     1      -0.394  10.038  23.230  0.00  0.00    +0.000 OA
ATOM     17  H   UNL     1       3.000   7.398  16.704  0.00  0.00    +0.000 HD
ENDROOT
BRANCH   2  18
ATOM     18  C   UNL     1       4.564   5.441  16.937  0.00  0.00    +0.000 A 
ATOM     19  O   UNL     1       5.073   6.201  15.917  0.00  0.00    +0.000 OA
ATOM     20  C   UNL     1       5.607   5.368  15.000  0.00  0.00    +0.000 A 
ATOM     21  C   UNL     1       5.440   4.061  15.384  0.00  0.00    +0.000 A 
ATOM     22  C   UNL     1       4.742   4.091  16.628  0.00  0.00    +0.000 A 
BRANCH  22  23
ATOM     23  C   UNL     1       4.295   2.893  17.393  0.00  0.00    +0.000 C 
BRANCH  23  24
ATOM     24  O   UNL     1       2.873   2.900  17.525  0.00  0.00    +0.000 OA
BRANCH  24  25
ATOM     25  C   UNL     1       2.375   2.950  18.800  0.00  0.00    +0.000 A 
ATOM     26  C   UNL     1       1.101   3.394  19.158  0.00  0.00    +0.000 A 
ATOM     27  C   UNL     1       0.730   3.456  20.504  0.00  0.00    +0.000 A 
ATOM     28  C   UNL     1       1.625   3.065  21.497  0.00  0.00    +0.000 A 
ATOM     29  C   UNL     1       2.888   2.594  21.146  0.00  0.00    +0.000 A 
ATOM     30  C   UNL     1       3.260   2.535  19.801  0.00  0.00    +0.000 A 
ENDBRANCH  24  25
ENDBRANCH  23  24
ENDBRANCH  22  23
ENDBRANCH   2  18
TORSDOF 4
ENDMDL
MODEL 2
REMARK VINA RESULT:      -9.2      0.617      1.093
REMARK  Name = 
REMARK  4 active torsions:
REMARK  status: ('A' for Active; 'I' for Inactive)
REMARK    1  A    between atoms: C_2  and  C_17
REMARK    2  A    between atoms: C_21  and  C_22
REMARK    3  A    between atoms: C_22  and  O_23
REMARK    4  A    between atoms: O_23  and  C_24
REMARK                            x       y       z     vdW  Elec       q    Type
REMARK                         _______ _______ _______ _____ _____    ______ ____
ROOT
ATOM      1  O   UNL     1       3.858   5.659  19.704  0.00  0.00    +0.000 OA
ATOM      2  C   UNL     1       3.748   5.964  18.522  0.00  0.00    +0.000 C 
ATOM      3  N   UNL     1       3.053   7.058  18.052  0.00  0.00    +0.000 N 
ATOM      4  C   UNL     1       2.340   7.893  18.857  0.00  0.00    +0.000 A 
ATOM      5  N   UNL     1       2.038   7.788  20.128  0.00  0.00    +0.000 NA
ATOM      6  C   UNL     1       1.236   8.854  20.498  0.00  0.00    +0.000 A 
ATOM      7  C   UNL     1       0.666   9.066  21.769  0.00  0.00    +0.000 A 
ATOM      8  C   UNL     1      -0.146  10.182  21.983  0.00  0.00    +0.000 A 
ATOM      9  C   UNL     1      -0.363  11.108  20.960  0.00  0.00    +0.000 A 
ATOM     10  C   UNL     1       0.197  10.925  19.697  0.00  0.00    +0.000 A 
ATOM     11  C   UNL     1       0.983   9.785  19.485  0.00  0.00    +0.000 A 
ATOM     12  S   UNL     1       1.759   9.266  18.038  0.00  0.00    +0.000 S 
ATOM     13  O   UNL     1      -1.146  12.227  21.107  0.00  0.00    +0.000 OA
ATOM     14  C   UNL     1      -1.417  12.506  22.484  0.00  0.00    +0.000 C 
ATOM     15  C   UNL     1      -1.787  11.238  23.234  0.00  0.00    +0.000 C 
ATOM     16  O   UNL     1      -0.695  10.311  23.234  0.00  0.00    +0.000 OA
ATOM     17  H   UNL     1       2.997   7.249  17.064  0.00  0.00    +0.000 HD
ENDROOT
BRANCH   2  18
ATOM     18  C   UNL     1       4.367   5.178  17.460  0.00  0.00    +0.000 A 
ATOM     19  O   UNL     1       5.600   5.585  17.023  0.00  0.00    +0.000 OA
ATOM     20  C   UNL     1       6.020   4.714  16.082  0.00  0.00    +0.000 A 
ATOM     21  C   UNL     1       5.073   3.744  15.869  0.00  0.00    +0.000 A 
ATOM     22  C   UNL     1       3.982   4.046  16.739  0.00  0.00    +0.000 A 
BRANCH  22  23
ATOM     23  C   UNL     1       2.702   3.287  16.810  0.00  0.00    +0.000 C 
BRANCH  23  24
ATOM     24  O   UNL     1       2.822   2.210  17.739  0.00  0.00    +0.000 OA
BRANCH  24  25
ATOM     25  C   UNL     1       2.531   2.492  19.047  0.00  0.00    +0.000 A 
ATOM     26  C   UNL     1       3.390   2.300  20.130  0.00  0.00    +0.000 A 
ATOM     27  C   UNL     1       2.953   2.571  21.430  0.00  0.00    +0.000 A 
ATOM     28  C   UNL     1       1.662   3.043  21.653  0.00  0.00    +0.000 A 
ATOM     29  C   UNL     1       0.809   3.264  20.574  0.00  0.00    +0.000 A 
ATOM     30  C   UNL     1       1.244   2.991  19.275  0.00  0.00    +0.000 A 
ENDBRANCH  24  25
ENDBRANCH  23  24
ENDBRANCH  22  23
ENDBRANCH   2  18
TORSDOF 4
ENDMDL
MODEL 3
REMARK VINA RESULT:      -8.8      2.478      4.691
REMARK  Name = 
REMARK  4 active torsions:
REMARK  status: ('A' for Active; 'I' for Inactive)
REMARK    1  A    between atoms: C_2  and  C_17
REMARK    2  A    between atoms: C_21  and  C_22
REMARK    3  A    between atoms: C_22  and  O_23
REMARK    4  A    between atoms: O_23  and  C_24
REMARK                            x       y       z     vdW  Elec       q    Type
REMARK                         _______ _______ _______ _____ _____    ______ ____
ROOT
ATOM      1  O   UNL     1       2.282   6.200  18.532  0.00  0.00    +0.000 OA
ATOM      2  C   UNL     1       2.217   5.917  19.723  0.00  0.00    +0.000 C 
ATOM      3  N   UNL     1       1.787   6.773  20.713  0.00  0.00    +0.000 N 
ATOM      4  C   UNL     1       1.449   8.072  20.485  0.00  0.00    +0.000 A 
ATOM      5  N   UNL     1       1.584   8.803  19.405  0.00  0.00    +0.000 NA
ATOM      6  C   UNL     1       1.155  10.092  19.668  0.00  0.00    +0.000 A 
ATOM      7  C   UNL     1       1.191  11.181  18.774  0.00  0.00    +0.000 A 
ATOM      8  C   UNL     1       0.743  12.435  19.196  0.00  0.00    +0.000 A 
ATOM      9  C   UNL     1       0.224  12.607  20.482  0.00  0.00    +0.000 A 
ATOM     10  C   UNL     1       0.170  11.544  21.382  0.00  0.00    +0.000 A 
ATOM     11  C   UNL     1       0.652  10.299  20.957  0.00  0.00    +0.000 A 
ATOM     12  S   UNL     1       0.762   8.828  21.845  0.00  0.00    +0.000 S 
ATOM     13  O   UNL     1      -0.236  13.812  20.956  0.00  0.00    +0.000 OA
ATOM     14  C   UNL     1      -0.440  14.754  19.898  0.00  0.00    +0.000 C 
ATOM     15  C   UNL     1       0.725  14.737  18.922  0.00  0.00    +0.000 C 
ATOM     16  O   UNL     1       0.835  13.458  18.286  0.00  0.00    +0.000 OA
ATOM     17  H   UNL     1       1.763   6.479  21.678  0.00  0.00    +0.000 HD
ENDROOT
BRANCH   2  18
ATOM     18  C   UNL     1       2.595   4.601  20.226  0.00  0.00    +0.000 A 
ATOM     19  O   UNL     1       1.926   4.141  21.329  0.00  0.00    +0.000 OA
ATOM     20  C   UNL     1       2.382   2.902  21.610  0.00  0.00    +0.000 A 
ATOM     21  C   UNL     1       3.363   2.540  20.722  0.00  0.00    +0.000 A 
ATOM     22  C   UNL     1       3.530   3.643  19.831  0.00  0.00    +0.000 A 
BRANCH  22  23
ATOM     23  C   UNL     1       4.533   3.716  18.731  0.00  0.00    +0.000 C 
BRANCH  23  24
ATOM     24  O   UNL     1       5.810   4.078  19.257  0.00  0.00    +0.000 OA
BRANCH  24  25
ATOM     25  C   UNL     1       6.407   5.184  18.711  0.00  0.00    +0.000 A 
ATOM     26  C   UNL     1       7.597   5.765  19.153  0.00  0.00    +0.000 A 
ATOM     27  C   UNL     1       8.074   6.932  18.550  0.00  0.00    +0.000 A 
ATOM     28  C   UNL     1       7.373   7.517  17.498  0.00  0.00    +0.000 A 
ATOM     29  C   UNL     1       6.200   6.925  17.034  0.00  0.00    +0.000 A 
ATOM     30  C   UNL     1       5.721   5.761  17.639  0.00  0.00    +0.000 A 
ENDBRANCH  24  25
ENDBRANCH  23  24
ENDBRANCH  22  23
ENDBRANCH   2  18
TORSDOF 4
ENDMDL
MODEL 4
REMARK VINA RESULT:      -8.6      1.951      3.823
REMARK  Name = 
REMARK  4 active torsions:
REMARK  status: ('A' for Active; 'I' for Inactive)
REMARK    1  A    between atoms: C_2  and  C_17
REMARK    2  A    between atoms: C_21  and  C_22
REMARK    3  A    between atoms: C_22  and  O_23
REMARK    4  A    between atoms: O_23  and  C_24
REMARK                            x       y       z     vdW  Elec       q    Type
REMARK                         _______ _______ _______ _____ _____    ______ ____
ROOT
ATOM      1  O   UNL     1       2.485   4.760  21.172  0.00  0.00    +0.000 OA
ATOM      2  C   UNL     1       2.608   4.868  19.957  0.00  0.00    +0.000 C 
ATOM      3  N   UNL     1       2.368   6.021  19.241  0.00  0.00    +0.000 N 
ATOM      4  C   UNL     1       1.889   7.165  19.803  0.00  0.00    +0.000 A 
ATOM      5  N   UNL     1       1.436   7.386  21.013  0.00  0.00    +0.000 NA
ATOM      6  C   UNL     1       0.996   8.695  21.105  0.00  0.00    +0.000 A 
ATOM      7  C   UNL     1       0.396   9.296  22.230  0.00  0.00    +0.000 A 
ATOM      8  C   UNL     1      -0.020  10.628  22.161  0.00  0.00    +0.000 A 
ATOM      9  C   UNL     1       0.191  11.377  21.001  0.00  0.00    +0.000 A 
ATOM     10  C   UNL     1       0.791  10.809  19.879  0.00  0.00    +0.000 A 
ATOM     11  C   UNL     1       1.174   9.464  19.949  0.00  0.00    +0.000 A 
ATOM     12  S   UNL     1       1.884   8.482  18.726  0.00  0.00    +0.000 S 
ATOM     13  O   UNL     1      -0.190  12.691  20.872  0.00  0.00    +0.000 OA
ATOM     14  C   UNL     1      -0.498  13.280  22.138  0.00  0.00    +0.000 C 
ATOM     15  C   UNL     1      -1.344  12.343  22.983  0.00  0.00    +0.000 C 
ATOM     16  O   UNL     1      -0.626  11.140  23.280  0.00  0.00    +0.000 OA
ATOM     17  H   UNL     1       2.484   6.042  18.239  0.00  0.00    +0.000 HD
ENDROOT
BRANCH   2  18
ATOM     18  C   UNL     1       3.043   3.754  19.121  0.00  0.00    +0.000 A 
ATOM     19  O   UNL     1       2.848   2.492  19.618  0.00  0.00    +0.000 OA
ATOM     20  C   UNL     1       3.270   1.607  18.690  0.00  0.00    +0.000 A 
ATOM     21  C   UNL     1       3.764   2.263  17.591  0.00  0.00    +0.000 A 
ATOM     22  C   UNL     1       3.647   3.659  17.866  0.00  0.00    +0.000 A 
BRANCH  22  23
ATOM     23  C   UNL     1       4.112   4.755  16.970  0.00  0.00    +0.000 C 
BRANCH  23  24
ATOM     24  O   UNL     1       5.486   4.562  16.635  0.00  0.00    +0.000 OA
BRANCH  24  25
ATOM     25  C   UNL     1       6.397   5.316  17.325  0.00  0.00    +0.000 A 
ATOM     26  C   UNL     1       7.080   4.914  18.475  0.00  0.00    +0.000 A 
ATOM     27  C   UNL     1       7.943   5.800  19.126  0.00  0.00    +0.000 A 
ATOM     28  C   UNL     1       8.136   7.086  18.628  0.00  0.00    +0.000 A 
ATOM     29  C   UNL     1       7.480   7.484  17.465  0.00  0.00    +0.000 A 
ATOM     30  C   UNL     1       6.615   6.600  16.816  0.00  0.00    +0.000 A 
ENDBRANCH  24  25
ENDBRANCH  23  24
ENDBRANCH  22  23
ENDBRANCH   2  18
TORSDOF 4
ENDMDL
MODEL 5
REMARK VINA RESULT:      -8.6      1.188      1.744
REMARK  Name = 
REMARK  4 active torsions:
REMARK  status: ('A' for Active; 'I' for Inactive)
REMARK    1  A    between atoms: C_2  and  C_17
REMARK    2  A    between atoms: C_21  and  C_22
REMARK    3  A    between atoms: C_22  and  O_23
REMARK    4  A    between atoms: O_23  and  C_24
REMARK                            x       y       z     vdW  Elec       q    Type
REMARK                         _______ _______ _______ _____ _____    ______ ____
ROOT
ATOM      1  O   UNL     1       3.614   7.752  16.329  0.00  0.00    +0.000 OA
ATOM      2  C   UNL     1       3.958   6.781  16.994  0.00  0.00    +0.000 C 
ATOM      3  N   UNL     1       3.517   6.505  18.270  0.00  0.00    +0.000 N 
ATOM      4  C   UNL     1       2.691   7.330  18.971  0.00  0.00    +0.000 A 
ATOM      5  N   UNL     1       2.278   8.543  18.698  0.00  0.00    +0.000 NA
ATOM      6  C   UNL     1       1.500   9.008  19.743  0.00  0.00    +0.000 A 
ATOM      7  C   UNL     1       0.916  10.288  19.843  0.00  0.00    +0.000 A 
ATOM      8  C   UNL     1       0.172  10.619  20.978  0.00  0.00    +0.000 A 
ATOM      9  C   UNL     1      -0.029   9.681  21.993  0.00  0.00    +0.000 A 
ATOM     10  C   UNL     1       0.529   8.407  21.914  0.00  0.00    +0.000 A 
ATOM     11  C   UNL     1       1.299   8.097  20.785  0.00  0.00    +0.000 A 
ATOM     12  S   UNL     1       2.148   6.641  20.429  0.00  0.00    +0.000 S 
ATOM     13  O   UNL     1      -0.753   9.944  23.131  0.00  0.00    +0.000 OA
ATOM     14  C   UNL     1      -1.540  11.131  22.996  0.00  0.00    +0.000 C 
ATOM     15  C   UNL     1      -0.735  12.248  22.355  0.00  0.00    +0.000 C 
ATOM     16  O   UNL     1      -0.340  11.892  21.025  0.00  0.00    +0.000 OA
ATOM     17  H   UNL     1       3.844   5.690  18.766  0.00  0.00    +0.000 HD
ENDROOT
BRANCH   2  18
ATOM     18  C   UNL     1       4.896   5.787  16.482  0.00  0.00    +0.000 A 
ATOM     19  O   UNL     1       5.993   6.255  15.809  0.00  0.00    +0.000 OA
ATOM     20  C   UNL     1       6.753   5.196  15.458  0.00  0.00    +0.000 A 
ATOM     21  C   UNL     1       6.164   4.026  15.869  0.00  0.00    +0.000 A 
ATOM     22  C   UNL     1       4.944   4.392  16.514  0.00  0.00    +0.000 A 
BRANCH  22  23
ATOM     23  C   UNL     1       3.946   3.437  17.073  0.00  0.00    +0.000 C 
BRANCH  23  24
ATOM     24  O   UNL     1       4.215   3.201  18.455  0.00  0.00    +0.000 OA
BRANCH  24  25
ATOM     25  C   UNL     1       3.128   3.073  19.278  0.00  0.00    +0.000 A 
ATOM     26  C   UNL     1       1.793   3.189  18.885  0.00  0.00    +0.000 A 
ATOM     27  C   UNL     1       0.771   3.098  19.834  0.00  0.00    +0.000 A 
ATOM     28  C   UNL     1       1.075   2.881  21.176  0.00  0.00    +0.000 A 
ATOM     29  C   UNL     1       2.404   2.736  21.570  0.00  0.00    +0.000 A 
ATOM     30  C   UNL     1       3.425   2.830  20.622  0.00  0.00    +0.000 A 
ENDBRANCH  24  25
ENDBRANCH  23  24
ENDBRANCH  22  23
ENDBRANCH   2  18
TORSDOF 4
ENDMDL
MODEL 6
REMARK VINA RESULT:      -8.5      1.570      3.722
REMARK  Name = 
REMARK  4 active torsions:
REMARK  status: ('A' for Active; 'I' for Inactive)
REMARK    1  A    between atoms: C_2  and  C_17
REMARK    2  A    between atoms: C_21  and  C_22
REMARK    3  A    between atoms: C_22  and  O_23
REMARK    4  A    between atoms: O_23  and  C_24
REMARK                            x       y       z     vdW  Elec       q    Type
REMARK                         _______ _______ _______ _____ _____    ______ ____
ROOT
ATOM      1  O   UNL     1       2.086   4.834  21.260  0.00  0.00    +0.000 OA
ATOM      2  C   UNL     1       2.308   4.977  20.062  0.00  0.00    +0.000 C 
ATOM      3  N   UNL     1       2.172   6.162  19.373  0.00  0.00    +0.000 N 
ATOM      4  C   UNL     1       1.701   7.307  19.938  0.00  0.00    +0.000 A 
ATOM      5  N   UNL     1       1.164   7.509  21.117  0.00  0.00    +0.000 NA
ATOM      6  C   UNL     1       0.774   8.832  21.223  0.00  0.00    +0.000 A 
ATOM      7  C   UNL     1       0.115   9.421  22.321  0.00  0.00    +0.000 A 
ATOM      8  C   UNL     1      -0.238  10.772  22.269  0.00  0.00    +0.000 A 
ATOM      9  C   UNL     1       0.094  11.550  21.157  0.00  0.00    +0.000 A 
ATOM     10  C   UNL     1       0.754  10.993  20.063  0.00  0.00    +0.000 A 
ATOM     11  C   UNL     1       1.074   9.630  20.114  0.00  0.00    +0.000 A 
ATOM     12  S   UNL     1       1.835   8.658  18.913  0.00  0.00    +0.000 S 
ATOM     13  O   UNL     1      -0.220  12.883  21.047  0.00  0.00    +0.000 OA
ATOM     14  C   UNL     1      -0.601  13.443  22.307  0.00  0.00    +0.000 C 
ATOM     15  C   UNL     1      -1.548  12.517  23.051  0.00  0.00    +0.000 C 
ATOM     16  O   UNL     1      -0.907  11.274  23.357  0.00  0.00    +0.000 OA
ATOM     17  H   UNL     1       2.366   6.211  18.384  0.00  0.00    +0.000 HD
ENDROOT
BRANCH   2  18
ATOM     18  C   UNL     1       2.758   3.872  19.222  0.00  0.00    +0.000 A 
ATOM     19  O   UNL     1       1.790   3.118  18.614  0.00  0.00    +0.000 OA
ATOM     20  C   UNL     1       2.401   2.185  17.854  0.00  0.00    +0.000 A 
ATOM     21  C   UNL     1       3.764   2.293  17.966  0.00  0.00    +0.000 A 
ATOM     22  C   UNL     1       4.012   3.368  18.871  0.00  0.00    +0.000 A 
BRANCH  22  23
ATOM     23  C   UNL     1       5.358   3.811  19.335  0.00  0.00    +0.000 C 
BRANCH  23  24
ATOM     24  O   UNL     1       5.639   5.119  18.840  0.00  0.00    +0.000 OA
BRANCH  24  25
ATOM     25  C   UNL     1       5.814   5.239  17.486  0.00  0.00    +0.000 A 
ATOM     26  C   UNL     1       5.018   6.001  16.629  0.00  0.00    +0.000 A 
ATOM     27  C   UNL     1       5.261   5.994  15.252  0.00  0.00    +0.000 A 
ATOM     28  C   UNL     1       6.305   5.235  14.727  0.00  0.00    +0.000 A 
ATOM     29  C   UNL     1       7.120   4.495  15.581  0.00  0.00    +0.000 A 
ATOM     30  C   UNL     1       6.876   4.499  16.956  0.00  0.00    +0.000 A 
ENDBRANCH  24  25
ENDBRANCH  23  24
ENDBRANCH  22  23
ENDBRANCH   2  18
TORSDOF 4
ENDMDL
MODEL 7
REMARK VINA RESULT:      -8.5      1.283      1.993
REMARK  Name = 
REMARK  4 active torsions:
REMARK  status: ('A' for Active; 'I' for Inactive)
REMARK    1  A    between atoms: C_2  and  C_17
REMARK    2  A    between atoms: C_21  and  C_22
REMARK    3  A    between atoms: C_22  and  O_23
REMARK    4  A    between atoms: O_23  and  C_24
REMARK                            x       y       z     vdW  Elec       q    Type
REMARK                         _______ _______ _______ _____ _____    ______ ____
ROOT
ATOM      1  O   UNL     1       3.349   7.745  17.054  0.00  0.00    +0.000 OA
ATOM      2  C   UNL     1       3.524   6.771  17.778  0.00  0.00    +0.000 C 
ATOM      3  N   UNL     1       2.939   6.592  19.012  0.00  0.00    +0.000 N 
ATOM      4  C   UNL     1       2.146   7.525  19.607  0.00  0.00    +0.000 A 
ATOM      5  N   UNL     1       1.893   8.764  19.261  0.00  0.00    +0.000 NA
ATOM      6  C   UNL     1       1.076   9.348  20.212  0.00  0.00    +0.000 A 
ATOM      7  C   UNL     1       0.627  10.684  20.218  0.00  0.00    +0.000 A 
ATOM      8  C   UNL     1      -0.178  11.136  21.266  0.00  0.00    +0.000 A 
ATOM      9  C   UNL     1      -0.574  10.264  22.284  0.00  0.00    +0.000 A 
ATOM     10  C   UNL     1      -0.151   8.936  22.295  0.00  0.00    +0.000 A 
ATOM     11  C   UNL     1       0.683   8.504  21.256  0.00  0.00    +0.000 A 
ATOM     12  S   UNL     1       1.399   6.955  21.025  0.00  0.00    +0.000 S 
ATOM     13  O   UNL     1      -1.367  10.645  23.339  0.00  0.00    +0.000 OA
ATOM     14  C   UNL     1      -2.006  11.902  23.094  0.00  0.00    +0.000 C 
ATOM     15  C   UNL     1      -1.028  12.903  22.502  0.00  0.00    +0.000 C 
ATOM     16  O   UNL     1      -0.553  12.456  21.228  0.00  0.00    +0.000 OA
ATOM     17  H   UNL     1       3.130   5.767  19.561  0.00  0.00    +0.000 HD
ENDROOT
BRANCH   2  18
ATOM     18  C   UNL     1       4.392   5.665  17.387  0.00  0.00    +0.000 A 
ATOM     19  O   UNL     1       5.740   5.909  17.367  0.00  0.00    +0.000 OA
ATOM     20  C   UNL     1       6.368   4.763  17.029  0.00  0.00    +0.000 A 
ATOM     21  C   UNL     1       5.455   3.765  16.801  0.00  0.00    +0.000 A 
ATOM     22  C   UNL     1       4.166   4.341  17.006  0.00  0.00    +0.000 A 
BRANCH  22  23
ATOM     23  C   UNL     1       2.867   3.635  16.814  0.00  0.00    +0.000 C 
BRANCH  23  24
ATOM     24  O   UNL     1       2.821   2.467  17.633  0.00  0.00    +0.000 OA
BRANCH  24  25
ATOM     25  C   UNL     1       2.514   2.656  18.955  0.00  0.00    +0.000 A 
ATOM     26  C   UNL     1       3.382   2.444  20.028  0.00  0.00    +0.000 A 
ATOM     27  C   UNL     1       2.931   2.613  21.340  0.00  0.00    +0.000 A 
ATOM     28  C   UNL     1       1.617   3.005  21.586  0.00  0.00    +0.000 A 
ATOM     29  C   UNL     1       0.755   3.246  20.519  0.00  0.00    +0.000 A 
ATOM     30  C   UNL     1       1.204   3.073  19.208  0.00  0.00    +0.000 A 
ENDBRANCH  24  25
ENDBRANCH  23  24
ENDBRANCH  22  23
ENDBRANCH   2  18
TORSDOF 4
ENDMDL
MODEL 8
REMARK VINA RESULT:      -8.3      1.381      2.068
REMARK  Name = 
REMARK  4 active torsions:
REMARK  status: ('A' for Active; 'I' for Inactive)
REMARK    1  A    between atoms: C_2  and  C_17
REMARK    2  A    between atoms: C_21  and  C_22
REMARK    3  A    between atoms: C_22  and  O_23
REMARK    4  A    between atoms: O_23  and  C_24
REMARK                            x       y       z     vdW  Elec       q    Type
REMARK                         _______ _______ _______ _____ _____    ______ ____
ROOT
ATOM      1  O   UNL     1       3.278   8.045  16.881  0.00  0.00    +0.000 OA
ATOM      2  C   UNL     1       3.577   7.108  17.613  0.00  0.00    +0.000 C 
ATOM      3  N   UNL     1       3.067   6.902  18.876  0.00  0.00    +0.000 N 
ATOM      4  C   UNL     1       2.216   7.770  19.490  0.00  0.00    +0.000 A 
ATOM      5  N   UNL     1       1.831   8.971  19.133  0.00  0.00    +0.000 NA
ATOM      6  C   UNL     1       1.004   9.496  20.111  0.00  0.00    +0.000 A 
ATOM      7  C   UNL     1       0.431  10.784  20.113  0.00  0.00    +0.000 A 
ATOM      8  C   UNL     1      -0.367  11.181  21.189  0.00  0.00    +0.000 A 
ATOM      9  C   UNL     1      -0.631  10.299  22.239  0.00  0.00    +0.000 A 
ATOM     10  C   UNL     1      -0.083   9.018  22.256  0.00  0.00    +0.000 A 
ATOM     11  C   UNL     1       0.741   8.642  21.187  0.00  0.00    +0.000 A 
ATOM     12  S   UNL     1       1.591   7.163  20.951  0.00  0.00    +0.000 S 
ATOM     13  O   UNL     1      -1.410  10.627  23.323  0.00  0.00    +0.000 OA
ATOM     14  C   UNL     1      -2.176  11.811  23.085  0.00  0.00    +0.000 C 
ATOM     15  C   UNL     1      -1.326  12.887  22.430  0.00  0.00    +0.000 C 
ATOM     16  O   UNL     1      -0.867  12.458  21.143  0.00  0.00    +0.000 OA
ATOM     17  H   UNL     1       3.360   6.112  19.430  0.00  0.00    +0.000 HD
ENDROOT
BRANCH   2  18
ATOM     18  C   UNL     1       4.529   6.080  17.203  0.00  0.00    +0.000 A 
ATOM     19  O   UNL     1       4.824   6.004  15.868  0.00  0.00    +0.000 OA
ATOM     20  C   UNL     1       5.746   5.032  15.698  0.00  0.00    +0.000 A 
ATOM     21  C   UNL     1       6.051   4.445  16.900  0.00  0.00    +0.000 A 
ATOM     22  C   UNL     1       5.250   5.098  17.884  0.00  0.00    +0.000 A 
BRANCH  22  23
ATOM     23  C   UNL     1       5.211   4.749  19.332  0.00  0.00    +0.000 C 
BRANCH  23  24
ATOM     24  O   UNL     1       4.837   3.381  19.495  0.00  0.00    +0.000 OA
BRANCH  24  25
ATOM     25  C   UNL     1       3.495   3.104  19.471  0.00  0.00    +0.000 A 
ATOM     26  C   UNL     1       2.821   2.444  18.443  0.00  0.00    +0.000 A 
ATOM     27  C   UNL     1       1.435   2.275  18.507  0.00  0.00    +0.000 A 
ATOM     28  C   UNL     1       0.718   2.756  19.601  0.00  0.00    +0.000 A 
ATOM     29  C   UNL     1       1.390   3.390  20.643  0.00  0.00    +0.000 A 
ATOM     30  C   UNL     1       2.774   3.562  20.578  0.00  0.00    +0.000 A 
ENDBRANCH  24  25
ENDBRANCH  23  24
ENDBRANCH  22  23
ENDBRANCH   2  18
TORSDOF 4
ENDMDL
MODEL 9
REMARK VINA RESULT:      -8.3      2.713      8.586
REMARK  Name = 
REMARK  4 active torsions:
REMARK  status: ('A' for Active; 'I' for Inactive)
REMARK    1  A    between atoms: C_2  and  C_17
REMARK    2  A    between atoms: C_21  and  C_22
REMARK    3  A    between atoms: C_22  and  O_23
REMARK    4  A    between atoms: O_23  and  C_24
REMARK                            x       y       z     vdW  Elec       q    Type
REMARK                         _______ _______ _______ _____ _____    ______ ____
ROOT
ATOM      1  O   UNL     1       0.132   9.620  21.978  0.00  0.00    +0.000 OA
ATOM      2  C   UNL     1       0.461  10.330  21.034  0.00  0.00    +0.000 C 
ATOM      3  N   UNL     1       1.103   9.884  19.900  0.00  0.00    +0.000 N 
ATOM      4  C   UNL     1       1.515   8.598  19.729  0.00  0.00    +0.000 A 
ATOM      5  N   UNL     1       1.541   7.600  20.578  0.00  0.00    +0.000 NA
ATOM      6  C   UNL     1       2.106   6.494  19.968  0.00  0.00    +0.000 A 
ATOM      7  C   UNL     1       2.353   5.244  20.572  0.00  0.00    +0.000 A 
ATOM      8  C   UNL     1       2.956   4.227  19.828  0.00  0.00    +0.000 A 
ATOM      9  C   UNL     1       3.278   4.426  18.484  0.00  0.00    +0.000 A 
ATOM     10  C   UNL     1       3.036   5.650  17.862  0.00  0.00    +0.000 A 
ATOM     11  C   UNL     1       2.460   6.673  18.627  0.00  0.00    +0.000 A 
ATOM     12  S   UNL     1       2.090   8.288  18.159  0.00  0.00    +0.000 S 
ATOM     13  O   UNL     1       3.868   3.466  17.698  0.00  0.00    +0.000 OA
ATOM     14  C   UNL     1       3.794   2.170  18.300  0.00  0.00    +0.000 C 
ATOM     15  C   UNL     1       4.142   2.236  19.778  0.00  0.00    +0.000 C 
ATOM     16  O   UNL     1       3.197   3.047  20.486  0.00  0.00    +0.000 OA
ATOM     17  H   UNL     1       1.352  10.524  19.160  0.00  0.00    +0.000 HD
ENDROOT
BRANCH   2  18
ATOM     18  C   UNL     1       0.190  11.764  21.015  0.00  0.00    +0.000 A 
ATOM     19  O   UNL     1       1.118  12.580  21.606  0.00  0.00    +0.000 OA
ATOM     20  C   UNL     1       0.714  13.858  21.447  0.00  0.00    +0.000 A 
ATOM     21  C   UNL     1      -0.483  13.903  20.778  0.00  0.00    +0.000 A 
ATOM     22  C   UNL     1      -0.849  12.549  20.513  0.00  0.00    +0.000 A 
BRANCH  22  23
ATOM     23  C   UNL     1      -2.110  12.113  19.849  0.00  0.00    +0.000 C 
BRANCH  23  24
ATOM     24  O   UNL     1      -1.864  10.962  19.040  0.00  0.00    +0.000 OA
BRANCH  24  25
ATOM     25  C   UNL     1      -2.546  10.889  17.854  0.00  0.00    +0.000 A 
ATOM     26  C   UNL     1      -3.731  11.565  17.556  0.00  0.00    +0.000 A 
ATOM     27  C   UNL     1      -4.366  11.359  16.328  0.00  0.00    +0.000 A 
ATOM     28  C   UNL     1      -3.817  10.488  15.390  0.00  0.00    +0.000 A 
ATOM     29  C   UNL     1      -2.620   9.833  15.670  0.00  0.00    +0.000 A 
ATOM     30  C   UNL     1      -1.987  10.036  16.899  0.00  0.00    +0.000 A 
ENDBRANCH  24  25
ENDBRANCH  23  24
ENDBRANCH  22  23
ENDBRANCH   2  18
TORSDOF 4
ENDMDL
