MODEL 1
REMARK VINA RESULT:      -8.4      0.000      0.000
REMARK  Name = 
REMARK  8 active torsions:
REMARK  status: ('A' for Active; 'I' for Inactive)
REMARK    1  A    between atoms: C_1  and  N_2
REMARK    2  A    between atoms: C_6  and  S_7
REMARK    3  A    between atoms: S_7  and  C_8
REMARK    4  A    between atoms: C_8  and  C_9
REMARK    5  A    between atoms: N_11  and  C_12
REMARK    6  A    between atoms: C_16  and  C_17
REMARK    7  A    between atoms: N_19  and  C_20
REMARK    8  A    between atoms: C_24  and  C_25
REMARK                            x       y       z     vdW  Elec       q    Type
REMARK                         _______ _______ _______ _____ _____    ______ ____
ROOT
ATOM      1  C   UNL     1       3.537   4.754  18.910  0.00  0.00    +0.000 A 
ATOM      2  C   UNL     1       2.919   3.682  19.557  0.00  0.00    +0.000 A 
ATOM      3  C   UNL     1       1.851   3.893  20.434  0.00  0.00    +0.000 A 
ATOM      4  C   UNL     1       1.404   5.185  20.699  0.00  0.00    +0.000 A 
ATOM      5  C   UNL     1       2.052   6.272  20.106  0.00  0.00    +0.000 A 
ATOM      6  C   UNL     1       3.115   6.054  19.211  0.00  0.00    +0.000 A 
ENDROOT
BRANCH   1   9
ATOM      7  C   UNL     1       5.924   4.546  18.226  0.00  0.00    +0.000 C 
ATOM      8  O   UNL     1       6.438   4.627  19.340  0.00  0.00    +0.000 OA
ATOM      9  N   UNL     1       4.563   4.589  17.954  0.00  0.00    +0.000 N 
ATOM     10  H   UNL     1       4.272   4.265  17.033  0.00  0.00    +0.000 HD
BRANCH   7  11
ATOM     11  C   UNL     1       6.796   4.340  17.000  0.00  0.00    +0.000 C 
BRANCH  11  12
ATOM     12  S   UNL     1       5.765   4.139  15.514  0.00  0.00    +0.000 S 
BRANCH  12  18
ATOM     13  C   UNL     1       5.943   3.299  12.345  0.00  0.00    +0.000 C 
ATOM     14  N   UNL     1       6.814   4.247  12.990  0.00  0.00    +0.000 N 
ATOM     15  N   UNL     1       7.772   4.878  12.289  0.00  0.00    +0.000 NA
ATOM     16  N   UNL     1       8.357   5.696  13.156  0.00  0.00    +0.000 NA
ATOM     17  N   UNL     1       7.779   5.591  14.401  0.00  0.00    +0.000 NA
ATOM     18  C   UNL     1       6.833   4.684  14.278  0.00  0.00    +0.000 A 
ENDBRANCH  12  18
ENDBRANCH  11  12
ENDBRANCH   7  11
ENDBRANCH   1   9
BRANCH   5  19
ATOM     19  C   UNL     1       1.602   7.674  20.334  0.00  0.00    +0.000 C 
ATOM     20  O   UNL     1       2.249   8.568  19.799  0.00  0.00    +0.000 OA
ATOM     21  N   UNL     1       0.521   7.841  21.190  0.00  0.00    +0.000 N 
ATOM     22  H   UNL     1       0.201   7.027  21.698  0.00  0.00    +0.000 HD
BRANCH  21  23
ATOM     23  C   UNL     1      -0.041   9.084  21.573  0.00  0.00    +0.000 A 
ATOM     24  C   UNL     1      -0.201   9.468  22.906  0.00  0.00    +0.000 A 
ATOM     25  C   UNL     1      -0.813  10.678  23.234  0.00  0.00    +0.000 A 
ATOM     26  C   UNL     1      -1.262  11.530  22.231  0.00  0.00    +0.000 A 
ATOM     27  C   UNL     1      -1.081  11.189  20.884  0.00  0.00    +0.000 A 
ATOM     28  C   UNL     1      -0.461   9.962  20.565  0.00  0.00    +0.000 A 
BRANCH  27  29
ATOM     29  C   UNL     1      -1.546  12.119  19.791  0.00  0.00    +0.000 C 
ATOM     30  F   UNL     1      -2.331  11.514  18.855  0.00  0.00    +0.000 F 
ATOM     31  F   UNL     1      -2.280  13.161  20.273  0.00  0.00    +0.000 F 
ATOM     32  F   UNL     1      -0.512  12.677  19.104  0.00  0.00    +0.000 F 
ENDBRANCH  27  29
ENDBRANCH  21  23
ENDBRANCH   5  19
TORSDOF 7
ENDMDL
MODEL 2
REMARK VINA RESULT:      -8.4      1.983      2.380
REMARK  Name = 
REMARK  8 active torsions:
REMARK  status: ('A' for Active; 'I' for Inactive)
REMARK    1  A    between atoms: C_1  and  N_2
REMARK    2  A    between atoms: C_6  and  S_7
REMARK    3  A    between atoms: S_7  and  C_8
REMARK    4  A    between atoms: C_8  and  C_9
REMARK    5  A    between atoms: N_11  and  C_12
REMARK    6  A    between atoms: C_16  and  C_17
REMARK    7  A    between atoms: N_19  and  C_20
REMARK    8  A    between atoms: C_24  and  C_25
REMARK                            x       y       z     vdW  Elec       q    Type
REMARK                         _______ _______ _______ _____ _____    ______ ____
ROOT
ATOM      1  C   UNL     1       3.798   5.674  18.901  0.00  0.00    +0.000 A 
ATOM      2  C   UNL     1       3.408   4.631  19.744  0.00  0.00    +0.000 A 
ATOM      3  C   UNL     1       2.340   4.788  20.632  0.00  0.00    +0.000 A 
ATOM      4  C   UNL     1       1.664   6.003  20.710  0.00  0.00    +0.000 A 
ATOM      5  C   UNL     1       2.081   7.075  19.916  0.00  0.00    +0.000 A 
ATOM      6  C   UNL     1       3.145   6.907  19.011  0.00  0.00    +0.000 A 
ENDROOT
BRANCH   1   9
ATOM      7  C   UNL     1       6.019   4.873  18.104  0.00  0.00    +0.000 C 
ATOM      8  O   UNL     1       6.374   4.284  19.124  0.00  0.00    +0.000 OA
ATOM      9  N   UNL     1       4.813   5.540  17.929  0.00  0.00    +0.000 N 
ATOM     10  H   UNL     1       4.551   5.763  16.970  0.00  0.00    +0.000 HD
BRANCH   7  11
ATOM     11  C   UNL     1       6.914   4.875  16.878  0.00  0.00    +0.000 C 
BRANCH  11  12
ATOM     12  S   UNL     1       6.156   3.905  15.537  0.00  0.00    +0.000 S 
BRANCH  12  18
ATOM     13  C   UNL     1       5.726   3.250  12.349  0.00  0.00    +0.000 C 
ATOM     14  N   UNL     1       6.681   4.193  12.867  0.00  0.00    +0.000 N 
ATOM     15  N   UNL     1       7.463   4.900  12.033  0.00  0.00    +0.000 NA
ATOM     16  N   UNL     1       8.186   5.691  12.818  0.00  0.00    +0.000 NA
ATOM     17  N   UNL     1       7.869   5.495  14.142  0.00  0.00    +0.000 NA
ATOM     18  C   UNL     1       6.943   4.560  14.151  0.00  0.00    +0.000 A 
ENDBRANCH  12  18
ENDBRANCH  11  12
ENDBRANCH   7  11
ENDBRANCH   1   9
BRANCH   5  19
ATOM     19  C   UNL     1       1.381   8.390  19.940  0.00  0.00    +0.000 C 
ATOM     20  O   UNL     1       1.119   8.870  21.037  0.00  0.00    +0.000 OA
ATOM     21  N   UNL     1       1.030   8.921  18.705  0.00  0.00    +0.000 N 
ATOM     22  H   UNL     1       1.152   8.330  17.893  0.00  0.00    +0.000 HD
BRANCH  21  23
ATOM     23  C   UNL     1       0.329  10.135  18.501  0.00  0.00    +0.000 A 
ATOM     24  C   UNL     1       0.846  11.382  18.858  0.00  0.00    +0.000 A 
ATOM     25  C   UNL     1       0.093  12.545  18.690  0.00  0.00    +0.000 A 
ATOM     26  C   UNL     1      -1.187  12.477  18.149  0.00  0.00    +0.000 A 
ATOM     27  C   UNL     1      -1.718  11.245  17.747  0.00  0.00    +0.000 A 
ATOM     28  C   UNL     1      -0.947  10.076  17.922  0.00  0.00    +0.000 A 
BRANCH  27  29
ATOM     29  C   UNL     1      -3.097  11.169  17.139  0.00  0.00    +0.000 C 
ATOM     30  F   UNL     1      -3.974  12.075  17.656  0.00  0.00    +0.000 F 
ATOM     31  F   UNL     1      -3.084  11.390  15.795  0.00  0.00    +0.000 F 
ATOM     32  F   UNL     1      -3.678   9.950  17.311  0.00  0.00    +0.000 F 
ENDBRANCH  27  29
ENDBRANCH  21  23
ENDBRANCH   5  19
TORSDOF 7
ENDMDL
MODEL 3
REMARK VINA RESULT:      -8.4      2.266      2.702
REMARK  Name = 
REMARK  8 active torsions:
REMARK  status: ('A' for Active; 'I' for Inactive)
REMARK    1  A    between atoms: C_1  and  N_2
REMARK    2  A    between atoms: C_6  and  S_7
REMARK    3  A    between atoms: S_7  and  C_8
REMARK    4  A    between atoms: C_8  and  C_9
REMARK    5  A    between atoms: N_11  and  C_12
REMARK    6  A    between atoms: C_16  and  C_17
REMARK    7  A    between atoms: N_19  and  C_20
REMARK    8  A    between atoms: C_24  and  C_25
REMARK                            x       y       z     vdW  Elec       q    Type
REMARK                         _______ _______ _______ _____ _____    ______ ____
ROOT
ATOM      1  C   UNL     1       3.877   5.687  18.517  0.00  0.00    +0.000 A 
ATOM      2  C   UNL     1       3.349   5.072  19.653  0.00  0.00    +0.000 A 
ATOM      3  C   UNL     1       2.306   5.666  20.370  0.00  0.00    +0.000 A 
ATOM      4  C   UNL     1       1.796   6.900  19.976  0.00  0.00    +0.000 A 
ATOM      5  C   UNL     1       2.355   7.556  18.876  0.00  0.00    +0.000 A 
ATOM      6  C   UNL     1       3.393   6.947  18.147  0.00  0.00    +0.000 A 
ENDROOT
BRANCH   1   9
ATOM      7  C   UNL     1       6.239   5.118  17.959  0.00  0.00    +0.000 C 
ATOM      8  O   UNL     1       6.784   5.647  18.925  0.00  0.00    +0.000 OA
ATOM      9  N   UNL     1       4.872   5.091  17.711  0.00  0.00    +0.000 N 
ATOM     10  H   UNL     1       4.547   4.415  17.020  0.00  0.00    +0.000 HD
BRANCH   7  11
ATOM     11  C   UNL     1       7.071   4.375  16.929  0.00  0.00    +0.000 C 
BRANCH  11  12
ATOM     12  S   UNL     1       6.031   3.850  15.531  0.00  0.00    +0.000 S 
BRANCH  12  18
ATOM     13  C   UNL     1       5.799   3.211  12.319  0.00  0.00    +0.000 C 
ATOM     14  N   UNL     1       6.697   4.175  12.897  0.00  0.00    +0.000 N 
ATOM     15  N   UNL     1       7.505   4.910  12.113  0.00  0.00    +0.000 NA
ATOM     16  N   UNL     1       8.161   5.713  12.942  0.00  0.00    +0.000 NA
ATOM     17  N   UNL     1       7.775   5.497  14.246  0.00  0.00    +0.000 NA
ATOM     18  C   UNL     1       6.876   4.538  14.196  0.00  0.00    +0.000 A 
ENDBRANCH  12  18
ENDBRANCH  11  12
ENDBRANCH   7  11
ENDBRANCH   1   9
BRANCH   5  19
ATOM     19  C   UNL     1       1.834   8.866  18.393  0.00  0.00    +0.000 C 
ATOM     20  O   UNL     1       2.211   9.252  17.293  0.00  0.00    +0.000 OA
ATOM     21  N   UNL     1       1.013   9.561  19.272  0.00  0.00    +0.000 N 
ATOM     22  H   UNL     1       0.932   9.203  20.215  0.00  0.00    +0.000 HD
BRANCH  21  23
ATOM     23  C   UNL     1       0.444  10.835  19.032  0.00  0.00    +0.000 A 
ATOM     24  C   UNL     1      -0.852  11.009  18.541  0.00  0.00    +0.000 A 
ATOM     25  C   UNL     1      -1.349  12.284  18.265  0.00  0.00    +0.000 A 
ATOM     26  C   UNL     1      -0.559  13.406  18.491  0.00  0.00    +0.000 A 
ATOM     27  C   UNL     1       0.730  13.266  19.019  0.00  0.00    +0.000 A 
ATOM     28  C   UNL     1       1.222  11.972  19.293  0.00  0.00    +0.000 A 
BRANCH  27  29
ATOM     29  C   UNL     1       1.583  14.482  19.287  0.00  0.00    +0.000 C 
ATOM     30  F   UNL     1       1.281  15.115  20.455  0.00  0.00    +0.000 F 
ATOM     31  F   UNL     1       2.909  14.179  19.361  0.00  0.00    +0.000 F 
ATOM     32  F   UNL     1       1.470  15.426  18.313  0.00  0.00    +0.000 F 
ENDBRANCH  27  29
ENDBRANCH  21  23
ENDBRANCH   5  19
TORSDOF 7
ENDMDL
MODEL 4
REMARK VINA RESULT:      -8.3      1.436      1.991
REMARK  Name = 
REMARK  8 active torsions:
REMARK  status: ('A' for Active; 'I' for Inactive)
REMARK    1  A    between atoms: C_1  and  N_2
REMARK    2  A    between atoms: C_6  and  S_7
REMARK    3  A    between atoms: S_7  and  C_8
REMARK    4  A    between atoms: C_8  and  C_9
REMARK    5  A    between atoms: N_11  and  C_12
REMARK    6  A    between atoms: C_16  and  C_17
REMARK    7  A    between atoms: N_19  and  C_20
REMARK    8  A    between atoms: C_24  and  C_25
REMARK                            x       y       z     vdW  Elec       q    Type
REMARK                         _______ _______ _______ _____ _____    ______ ____
ROOT
ATOM      1  C   UNL     1       3.565   5.332  18.939  0.00  0.00    +0.000 A 
ATOM      2  C   UNL     1       2.904   4.286  19.583  0.00  0.00    +0.000 A 
ATOM      3  C   UNL     1       1.811   4.534  20.419  0.00  0.00    +0.000 A 
ATOM      4  C   UNL     1       1.381   5.839  20.644  0.00  0.00    +0.000 A 
ATOM      5  C   UNL     1       2.070   6.902  20.053  0.00  0.00    +0.000 A 
ATOM      6  C   UNL     1       3.159   6.646  19.200  0.00  0.00    +0.000 A 
ENDROOT
BRANCH   1   9
ATOM      7  C   UNL     1       5.912   4.738  18.347  0.00  0.00    +0.000 C 
ATOM      8  O   UNL     1       6.325   4.492  19.479  0.00  0.00    +0.000 OA
ATOM      9  N   UNL     1       4.619   5.129  18.021  0.00  0.00    +0.000 N 
ATOM     10  H   UNL     1       4.354   5.056  17.040  0.00  0.00    +0.000 HD
BRANCH   7  11
ATOM     11  C   UNL     1       6.832   4.579  17.150  0.00  0.00    +0.000 C 
BRANCH  11  12
ATOM     12  S   UNL     1       5.893   4.019  15.696  0.00  0.00    +0.000 S 
BRANCH  12  18
ATOM     13  C   UNL     1       5.798   3.361  12.480  0.00  0.00    +0.000 C 
ATOM     14  N   UNL     1       6.726   4.268  13.102  0.00  0.00    +0.000 N 
ATOM     15  N   UNL     1       7.626   4.937  12.360  0.00  0.00    +0.000 NA
ATOM     16  N   UNL     1       8.288   5.703  13.219  0.00  0.00    +0.000 NA
ATOM     17  N   UNL     1       7.816   5.529  14.500  0.00  0.00    +0.000 NA
ATOM     18  C   UNL     1       6.857   4.632  14.406  0.00  0.00    +0.000 A 
ENDBRANCH  12  18
ENDBRANCH  11  12
ENDBRANCH   7  11
ENDBRANCH   1   9
BRANCH   5  19
ATOM     19  C   UNL     1       1.641   8.317  20.239  0.00  0.00    +0.000 C 
ATOM     20  O   UNL     1       1.429   8.696  21.385  0.00  0.00    +0.000 OA
ATOM     21  N   UNL     1       1.460   9.061  19.080  0.00  0.00    +0.000 N 
ATOM     22  H   UNL     1       1.501   8.566  18.199  0.00  0.00    +0.000 HD
BRANCH  21  23
ATOM     23  C   UNL     1       1.020  10.406  19.027  0.00  0.00    +0.000 A 
ATOM     24  C   UNL     1       1.797  11.440  18.499  0.00  0.00    +0.000 A 
ATOM     25  C   UNL     1       1.343  12.760  18.521  0.00  0.00    +0.000 A 
ATOM     26  C   UNL     1       0.098  13.062  19.060  0.00  0.00    +0.000 A 
ATOM     27  C   UNL     1      -0.720  12.042  19.562  0.00  0.00    +0.000 A 
ATOM     28  C   UNL     1      -0.250  10.711  19.535  0.00  0.00    +0.000 A 
BRANCH  27  29
ATOM     29  C   UNL     1      -2.082  12.362  20.127  0.00  0.00    +0.000 C 
ATOM     30  F   UNL     1      -2.354  13.697  20.175  0.00  0.00    +0.000 F 
ATOM     31  F   UNL     1      -3.089  11.803  19.401  0.00  0.00    +0.000 F 
ATOM     32  F   UNL     1      -2.241  11.905  21.399  0.00  0.00    +0.000 F 
ENDBRANCH  27  29
ENDBRANCH  21  23
ENDBRANCH   5  19
TORSDOF 7
ENDMDL
MODEL 5
REMARK VINA RESULT:      -8.1      5.065     10.089
REMARK  Name = 
REMARK  8 active torsions:
REMARK  status: ('A' for Active; 'I' for Inactive)
REMARK    1  A    between atoms: C_1  and  N_2
REMARK    2  A    between atoms: C_6  and  S_7
REMARK    3  A    between atoms: S_7  and  C_8
REMARK    4  A    between atoms: C_8  and  C_9
REMARK    5  A    between atoms: N_11  and  C_12
REMARK    6  A    between atoms: C_16  and  C_17
REMARK    7  A    between atoms: N_19  and  C_20
REMARK    8  A    between atoms: C_24  and  C_25
REMARK                            x       y       z     vdW  Elec       q    Type
REMARK                         _______ _______ _______ _____ _____    ______ ____
ROOT
ATOM      1  C   UNL     1       1.730   5.146  20.268  0.00  0.00    +0.000 A 
ATOM      2  C   UNL     1       0.908   4.092  20.671  0.00  0.00    +0.000 A 
ATOM      3  C   UNL     1       1.062   2.813  20.129  0.00  0.00    +0.000 A 
ATOM      4  C   UNL     1       2.026   2.576  19.152  0.00  0.00    +0.000 A 
ATOM      5  C   UNL     1       2.816   3.635  18.694  0.00  0.00    +0.000 A 
ATOM      6  C   UNL     1       2.668   4.916  19.255  0.00  0.00    +0.000 A 
ENDROOT
BRANCH   1   9
ATOM      7  C   UNL     1       1.782   7.635  20.155  0.00  0.00    +0.000 C 
ATOM      8  O   UNL     1       1.931   7.756  18.940  0.00  0.00    +0.000 OA
ATOM      9  N   UNL     1       1.670   6.434  20.844  0.00  0.00    +0.000 N 
ATOM     10  H   UNL     1       1.306   6.486  21.794  0.00  0.00    +0.000 HD
BRANCH   7  11
ATOM     11  C   UNL     1       1.662   8.868  21.032  0.00  0.00    +0.000 C 
BRANCH  11  12
ATOM     12  S   UNL     1       0.023   9.633  20.830  0.00  0.00    +0.000 S 
BRANCH  12  18
ATOM     13  C   UNL     1      -1.503  11.536  23.028  0.00  0.00    +0.000 C 
ATOM     14  N   UNL     1      -0.379  11.949  22.229  0.00  0.00    +0.000 N 
ATOM     15  N   UNL     1       0.137  13.183  22.366  0.00  0.00    +0.000 NA
ATOM     16  N   UNL     1       1.167  13.226  21.529  0.00  0.00    +0.000 NA
ATOM     17  N   UNL     1       1.311  12.030  20.863  0.00  0.00    +0.000 NA
ATOM     18  C   UNL     1       0.341  11.258  21.305  0.00  0.00    +0.000 A 
ENDBRANCH  12  18
ENDBRANCH  11  12
ENDBRANCH   7  11
ENDBRANCH   1   9
BRANCH   5  19
ATOM     19  C   UNL     1       3.878   3.435  17.668  0.00  0.00    +0.000 C 
ATOM     20  O   UNL     1       4.285   2.292  17.492  0.00  0.00    +0.000 OA
ATOM     21  N   UNL     1       4.356   4.583  17.048  0.00  0.00    +0.000 N 
ATOM     22  H   UNL     1       4.052   5.473  17.420  0.00  0.00    +0.000 HD
BRANCH  21  23
ATOM     23  C   UNL     1       5.386   4.624  16.077  0.00  0.00    +0.000 A 
ATOM     24  C   UNL     1       6.633   5.206  16.315  0.00  0.00    +0.000 A 
ATOM     25  C   UNL     1       7.596   5.274  15.307  0.00  0.00    +0.000 A 
ATOM     26  C   UNL     1       7.329   4.748  14.048  0.00  0.00    +0.000 A 
ATOM     27  C   UNL     1       6.101   4.125  13.790  0.00  0.00    +0.000 A 
ATOM     28  C   UNL     1       5.135   4.062  14.817  0.00  0.00    +0.000 A 
BRANCH  27  29
ATOM     29  C   UNL     1       5.815   3.532  12.432  0.00  0.00    +0.000 C 
ATOM     30  F   UNL     1       4.535   3.731  12.007  0.00  0.00    +0.000 F 
ATOM     31  F   UNL     1       6.614   4.052  11.460  0.00  0.00    +0.000 F 
ATOM     32  F   UNL     1       6.012   2.186  12.396  0.00  0.00    +0.000 F 
ENDBRANCH  27  29
ENDBRANCH  21  23
ENDBRANCH   5  19
TORSDOF 7
ENDMDL
MODEL 6
REMARK VINA RESULT:      -8.0      2.971      4.696
REMARK  Name = 
REMARK  8 active torsions:
REMARK  status: ('A' for Active; 'I' for Inactive)
REMARK    1  A    between atoms: C_1  and  N_2
REMARK    2  A    between atoms: C_6  and  S_7
REMARK    3  A    between atoms: S_7  and  C_8
REMARK    4  A    between atoms: C_8  and  C_9
REMARK    5  A    between atoms: N_11  and  C_12
REMARK    6  A    between atoms: C_16  and  C_17
REMARK    7  A    between atoms: N_19  and  C_20
REMARK    8  A    between atoms: C_24  and  C_25
REMARK                            x       y       z     vdW  Elec       q    Type
REMARK                         _______ _______ _______ _____ _____    ______ ____
ROOT
ATOM      1  C   UNL     1       1.728   8.212  19.804  0.00  0.00    +0.000 A 
ATOM      2  C   UNL     1       1.689   8.767  18.524  0.00  0.00    +0.000 A 
ATOM      3  C   UNL     1       1.027   9.974  18.286  0.00  0.00    +0.000 A 
ATOM      4  C   UNL     1       0.368  10.631  19.322  0.00  0.00    +0.000 A 
ATOM      5  C   UNL     1       0.346  10.056  20.597  0.00  0.00    +0.000 A 
ATOM      6  C   UNL     1       1.029   8.850  20.835  0.00  0.00    +0.000 A 
ENDROOT
BRANCH   1   9
ATOM      7  C   UNL     1       2.685   5.978  19.248  0.00  0.00    +0.000 C 
ATOM      8  O   UNL     1       2.312   5.909  18.079  0.00  0.00    +0.000 OA
ATOM      9  N   UNL     1       2.452   7.039  20.114  0.00  0.00    +0.000 N 
ATOM     10  H   UNL     1       3.022   7.072  20.958  0.00  0.00    +0.000 HD
BRANCH   7  11
ATOM     11  C   UNL     1       3.512   4.856  19.849  0.00  0.00    +0.000 C 
BRANCH  11  12
ATOM     12  S   UNL     1       4.103   3.734  18.544  0.00  0.00    +0.000 S 
BRANCH  12  18
ATOM     13  C   UNL     1       5.923   3.982  15.823  0.00  0.00    +0.000 C 
ATOM     14  N   UNL     1       6.381   4.316  17.146  0.00  0.00    +0.000 N 
ATOM     15  N   UNL     1       7.626   4.787  17.337  0.00  0.00    +0.000 NA
ATOM     16  N   UNL     1       7.711   5.029  18.641  0.00  0.00    +0.000 NA
ATOM     17  N   UNL     1       6.532   4.716  19.279  0.00  0.00    +0.000 NA
ATOM     18  C   UNL     1       5.727   4.270  18.338  0.00  0.00    +0.000 A 
ENDBRANCH  12  18
ENDBRANCH  11  12
ENDBRANCH   7  11
ENDBRANCH   1   9
BRANCH   5  19
ATOM     19  C   UNL     1      -0.322  10.725  21.748  0.00  0.00    +0.000 C 
ATOM     20  O   UNL     1      -0.427  10.084  22.788  0.00  0.00    +0.000 OA
ATOM     21  N   UNL     1      -0.824  11.998  21.512  0.00  0.00    +0.000 N 
ATOM     22  H   UNL     1      -0.822  12.329  20.556  0.00  0.00    +0.000 HD
BRANCH  21  23
ATOM     23  C   UNL     1      -1.526  12.793  22.452  0.00  0.00    +0.000 A 
ATOM     24  C   UNL     1      -0.920  13.812  23.189  0.00  0.00    +0.000 A 
ATOM     25  C   UNL     1      -1.640  14.531  24.145  0.00  0.00    +0.000 A 
ATOM     26  C   UNL     1      -2.983  14.246  24.368  0.00  0.00    +0.000 A 
ATOM     27  C   UNL     1      -3.627  13.254  23.618  0.00  0.00    +0.000 A 
ATOM     28  C   UNL     1      -2.889  12.535  22.654  0.00  0.00    +0.000 A 
BRANCH  27  29
ATOM     29  C   UNL     1      -5.090  12.957  23.841  0.00  0.00    +0.000 C 
ATOM     30  F   UNL     1      -5.713  12.431  22.748  0.00  0.00    +0.000 F 
ATOM     31  F   UNL     1      -5.291  12.064  24.848  0.00  0.00    +0.000 F 
ATOM     32  F   UNL     1      -5.804  14.066  24.177  0.00  0.00    +0.000 F 
ENDBRANCH  27  29
ENDBRANCH  21  23
ENDBRANCH   5  19
TORSDOF 7
ENDMDL
MODEL 7
REMARK VINA RESULT:      -8.0      3.508      4.623
REMARK  Name = 
REMARK  8 active torsions:
REMARK  status: ('A' for Active; 'I' for Inactive)
REMARK    1  A    between atoms: C_1  and  N_2
REMARK    2  A    between atoms: C_6  and  S_7
REMARK    3  A    between atoms: S_7  and  C_8
REMARK    4  A    between atoms: C_8  and  C_9
REMARK    5  A    between atoms: N_11  and  C_12
REMARK    6  A    between atoms: C_16  and  C_17
REMARK    7  A    between atoms: N_19  and  C_20
REMARK    8  A    between atoms: C_24  and  C_25
REMARK                            x       y       z     vdW  Elec       q    Type
REMARK                         _______ _______ _______ _____ _____    ______ ____
ROOT
ATOM      1  C   UNL     1       2.229   7.038  19.782  0.00  0.00    +0.000 A 
ATOM      2  C   UNL     1       2.377   7.185  18.402  0.00  0.00    +0.000 A 
ATOM      3  C   UNL     1       2.028   8.380  17.767  0.00  0.00    +0.000 A 
ATOM      4  C   UNL     1       1.497   9.438  18.502  0.00  0.00    +0.000 A 
ATOM      5  C   UNL     1       1.286   9.283  19.875  0.00  0.00    +0.000 A 
ATOM      6  C   UNL     1       1.655   8.085  20.512  0.00  0.00    +0.000 A 
ENDROOT
BRANCH   1   9
ATOM      7  C   UNL     1       1.887   4.733  20.667  0.00  0.00    +0.000 C 
ATOM      8  O   UNL     1       0.753   4.540  20.232  0.00  0.00    +0.000 OA
ATOM      9  N   UNL     1       2.643   5.883  20.483  0.00  0.00    +0.000 N 
ATOM     10  H   UNL     1       3.641   5.810  20.679  0.00  0.00    +0.000 HD
BRANCH   7  11
ATOM     11  C   UNL     1       2.598   3.641  21.447  0.00  0.00    +0.000 C 
BRANCH  11  12
ATOM     12  S   UNL     1       3.299   2.403  20.313  0.00  0.00    +0.000 S 
BRANCH  12  18
ATOM     13  C   UNL     1       2.574   3.285  17.235  0.00  0.00    +0.000 C 
ATOM     14  N   UNL     1       3.763   3.684  17.941  0.00  0.00    +0.000 N 
ATOM     15  N   UNL     1       4.664   4.491  17.355  0.00  0.00    +0.000 NA
ATOM     16  N   UNL     1       5.601   4.693  18.274  0.00  0.00    +0.000 NA
ATOM     17  N   UNL     1       5.303   4.023  19.439  0.00  0.00    +0.000 NA
ATOM     18  C   UNL     1       4.167   3.400  19.208  0.00  0.00    +0.000 A 
ENDBRANCH  12  18
ENDBRANCH  11  12
ENDBRANCH   7  11
ENDBRANCH   1   9
BRANCH   5  19
ATOM     19  C   UNL     1       0.744  10.388  20.716  0.00  0.00    +0.000 C 
ATOM     20  O   UNL     1       1.064  10.404  21.899  0.00  0.00    +0.000 OA
ATOM     21  N   UNL     1      -0.130  11.265  20.087  0.00  0.00    +0.000 N 
ATOM     22  H   UNL     1      -0.440  11.025  19.154  0.00  0.00    +0.000 HD
BRANCH  21  23
ATOM     23  C   UNL     1      -0.787  12.356  20.707  0.00  0.00    +0.000 A 
ATOM     24  C   UNL     1      -0.403  13.685  20.513  0.00  0.00    +0.000 A 
ATOM     25  C   UNL     1      -1.045  14.723  21.190  0.00  0.00    +0.000 A 
ATOM     26  C   UNL     1      -2.091  14.446  22.064  0.00  0.00    +0.000 A 
ATOM     27  C   UNL     1      -2.522  13.127  22.251  0.00  0.00    +0.000 A 
ATOM     28  C   UNL     1      -1.866  12.086  21.560  0.00  0.00    +0.000 A 
BRANCH  27  29
ATOM     29  C   UNL     1      -3.672  12.823  23.181  0.00  0.00    +0.000 C 
ATOM     30  F   UNL     1      -4.006  13.863  23.996  0.00  0.00    +0.000 F 
ATOM     31  F   UNL     1      -4.810  12.497  22.509  0.00  0.00    +0.000 F 
ATOM     32  F   UNL     1      -3.413  11.772  24.007  0.00  0.00    +0.000 F 
ENDBRANCH  27  29
ENDBRANCH  21  23
ENDBRANCH   5  19
TORSDOF 7
ENDMDL
MODEL 8
REMARK VINA RESULT:      -8.0      6.199     10.210
REMARK  Name = 
REMARK  8 active torsions:
REMARK  status: ('A' for Active; 'I' for Inactive)
REMARK    1  A    between atoms: C_1  and  N_2
REMARK    2  A    between atoms: C_6  and  S_7
REMARK    3  A    between atoms: S_7  and  C_8
REMARK    4  A    between atoms: C_8  and  C_9
REMARK    5  A    between atoms: N_11  and  C_12
REMARK    6  A    between atoms: C_16  and  C_17
REMARK    7  A    between atoms: N_19  and  C_20
REMARK    8  A    between atoms: C_24  and  C_25
REMARK                            x       y       z     vdW  Elec       q    Type
REMARK                         _______ _______ _______ _____ _____    ______ ____
ROOT
ATOM      1  C   UNL     1       0.333  10.764  20.175  0.00  0.00    +0.000 A 
ATOM      2  C   UNL     1       0.206  10.326  21.494  0.00  0.00    +0.000 A 
ATOM      3  C   UNL     1       0.763   9.111  21.903  0.00  0.00    +0.000 A 
ATOM      4  C   UNL     1       1.433   8.302  20.989  0.00  0.00    +0.000 A 
ATOM      5  C   UNL     1       1.516   8.699  19.651  0.00  0.00    +0.000 A 
ATOM      6  C   UNL     1       0.969   9.930  19.248  0.00  0.00    +0.000 A 
ENDROOT
BRANCH   1   9
ATOM      7  C   UNL     1       0.654  13.097  19.359  0.00  0.00    +0.000 C 
ATOM      8  O   UNL     1       1.884  13.113  19.342  0.00  0.00    +0.000 OA
ATOM      9  N   UNL     1      -0.139  12.019  19.732  0.00  0.00    +0.000 N 
ATOM     10  H   UNL     1      -1.121  12.062  19.463  0.00  0.00    +0.000 HD
BRANCH   7  11
ATOM     11  C   UNL     1      -0.128  14.317  18.906  0.00  0.00    +0.000 C 
BRANCH  11  12
ATOM     12  S   UNL     1       0.385  15.786  19.849  0.00  0.00    +0.000 S 
BRANCH  12  18
ATOM     13  C   UNL     1      -0.503  17.973  17.566  0.00  0.00    +0.000 C 
ATOM     14  N   UNL     1       0.844  17.510  17.774  0.00  0.00    +0.000 N 
ATOM     15  N   UNL     1       1.852  17.988  17.025  0.00  0.00    +0.000 NA
ATOM     16  N   UNL     1       2.946  17.396  17.492  0.00  0.00    +0.000 NA
ATOM     17  N   UNL     1       2.642  16.548  18.532  0.00  0.00    +0.000 NA
ATOM     18  C   UNL     1       1.337  16.627  18.685  0.00  0.00    +0.000 A 
ENDBRANCH  12  18
ENDBRANCH  11  12
ENDBRANCH   7  11
ENDBRANCH   1   9
BRANCH   5  19
ATOM     19  C   UNL     1       2.240   7.886  18.634  0.00  0.00    +0.000 C 
ATOM     20  O   UNL     1       2.306   8.335  17.495  0.00  0.00    +0.000 OA
ATOM     21  N   UNL     1       2.723   6.656  19.061  0.00  0.00    +0.000 N 
ATOM     22  H   UNL     1       2.441   6.339  19.980  0.00  0.00    +0.000 HD
BRANCH  21  23
ATOM     23  C   UNL     1       3.403   5.713  18.252  0.00  0.00    +0.000 A 
ATOM     24  C   UNL     1       2.789   4.571  17.734  0.00  0.00    +0.000 A 
ATOM     25  C   UNL     1       3.516   3.641  16.989  0.00  0.00    +0.000 A 
ATOM     26  C   UNL     1       4.869   3.848  16.741  0.00  0.00    +0.000 A 
ATOM     27  C   UNL     1       5.504   5.003  17.216  0.00  0.00    +0.000 A 
ATOM     28  C   UNL     1       4.758   5.936  17.968  0.00  0.00    +0.000 A 
BRANCH  27  29
ATOM     29  C   UNL     1       6.966   5.244  16.930  0.00  0.00    +0.000 C 
ATOM     30  F   UNL     1       7.425   6.438  17.400  0.00  0.00    +0.000 F 
ATOM     31  F   UNL     1       7.767   4.293  17.485  0.00  0.00    +0.000 F 
ATOM     32  F   UNL     1       7.247   5.237  15.598  0.00  0.00    +0.000 F 
ENDBRANCH  27  29
ENDBRANCH  21  23
ENDBRANCH   5  19
TORSDOF 7
ENDMDL
MODEL 9
REMARK VINA RESULT:      -8.0      4.962     10.110
REMARK  Name = 
REMARK  8 active torsions:
REMARK  status: ('A' for Active; 'I' for Inactive)
REMARK    1  A    between atoms: C_1  and  N_2
REMARK    2  A    between atoms: C_6  and  S_7
REMARK    3  A    between atoms: S_7  and  C_8
REMARK    4  A    between atoms: C_8  and  C_9
REMARK    5  A    between atoms: N_11  and  C_12
REMARK    6  A    between atoms: C_16  and  C_17
REMARK    7  A    between atoms: N_19  and  C_20
REMARK    8  A    between atoms: C_24  and  C_25
REMARK                            x       y       z     vdW  Elec       q    Type
REMARK                         _______ _______ _______ _____ _____    ______ ____
ROOT
ATOM      1  C   UNL     1       2.150   6.487  19.776  0.00  0.00    +0.000 A 
ATOM      2  C   UNL     1       1.759   5.620  20.798  0.00  0.00    +0.000 A 
ATOM      3  C   UNL     1       2.137   4.275  20.781  0.00  0.00    +0.000 A 
ATOM      4  C   UNL     1       2.890   3.769  19.724  0.00  0.00    +0.000 A 
ATOM      5  C   UNL     1       3.238   4.611  18.663  0.00  0.00    +0.000 A 
ATOM      6  C   UNL     1       2.870   5.968  18.693  0.00  0.00    +0.000 A 
ENDROOT
BRANCH   1   9
ATOM      7  C   UNL     1       1.833   8.700  18.674  0.00  0.00    +0.000 C 
ATOM      8  O   UNL     1       2.028   8.351  17.511  0.00  0.00    +0.000 OA
ATOM      9  N   UNL     1       1.866   7.870  19.788  0.00  0.00    +0.000 N 
ATOM     10  H   UNL     1       1.446   8.236  20.641  0.00  0.00    +0.000 HD
BRANCH   7  11
ATOM     11  C   UNL     1       1.480  10.143  18.985  0.00  0.00    +0.000 C 
BRANCH  11  12
ATOM     12  S   UNL     1      -0.274  10.282  19.451  0.00  0.00    +0.000 S 
BRANCH  12  18
ATOM     13  C   UNL     1      -1.748  12.245  21.631  0.00  0.00    +0.000 C 
ATOM     14  N   UNL     1      -0.831  11.190  21.971  0.00  0.00    +0.000 N 
ATOM     15  N   UNL     1      -0.537  10.931  23.257  0.00  0.00    +0.000 NA
ATOM     16  N   UNL     1       0.291   9.893  23.224  0.00  0.00    +0.000 NA
ATOM     17  N   UNL     1       0.524   9.489  21.929  0.00  0.00    +0.000 NA
ATOM     18  C   UNL     1      -0.172  10.308  21.171  0.00  0.00    +0.000 A 
ENDBRANCH  12  18
ENDBRANCH  11  12
ENDBRANCH   7  11
ENDBRANCH   1   9
BRANCH   5  19
ATOM     19  C   UNL     1       4.063   4.132  17.519  0.00  0.00    +0.000 C 
ATOM     20  O   UNL     1       4.195   2.921  17.387  0.00  0.00    +0.000 OA
ATOM     21  N   UNL     1       4.661   5.114  16.739  0.00  0.00    +0.000 N 
ATOM     22  H   UNL     1       4.608   6.068  17.072  0.00  0.00    +0.000 HD
BRANCH  21  23
ATOM     23  C   UNL     1       5.512   4.880  15.632  0.00  0.00    +0.000 A 
ATOM     24  C   UNL     1       6.853   5.268  15.608  0.00  0.00    +0.000 A 
ATOM     25  C   UNL     1       7.637   5.067  14.470  0.00  0.00    +0.000 A 
ATOM     26  C   UNL     1       7.092   4.461  13.344  0.00  0.00    +0.000 A 
ATOM     27  C   UNL     1       5.761   4.027  13.351  0.00  0.00    +0.000 A 
ATOM     28  C   UNL     1       4.978   4.236  14.507  0.00  0.00    +0.000 A 
BRANCH  27  29
ATOM     29  C   UNL     1       5.171   3.348  12.139  0.00  0.00    +0.000 C 
ATOM     30  F   UNL     1       5.422   4.002  10.970  0.00  0.00    +0.000 F 
ATOM     31  F   UNL     1       5.649   2.085  11.968  0.00  0.00    +0.000 F 
ATOM     32  F   UNL     1       3.817   3.229  12.213  0.00  0.00    +0.000 F 
ENDBRANCH  27  29
ENDBRANCH  21  23
ENDBRANCH   5  19
TORSDOF 7
ENDMDL
