MODEL 1
REMARK VINA RESULT:      -7.8      0.000      0.000
REMARK  Name = 
REMARK  7 active torsions:
REMARK  status: ('A' for Active; 'I' for Inactive)
REMARK    1  A    between atoms: C_1  and  C_2
REMARK    2  A    between atoms: C_2  and  N_3
REMARK    3  A    between atoms: C_5  and  C_6
REMARK    4  A    between atoms: N_8  and  C_9
REMARK    5  A    between atoms: N_13  and  C_14
REMARK    6  A    between atoms: C_14  and  C_15
REMARK    7  A    between atoms: C_20  and  C_21
REMARK                            x       y       z     vdW  Elec       q    Type
REMARK                         _______ _______ _______ _____ _____    ______ ____
ROOT
ATOM      1  C   UNL     1       3.780   2.346  19.195  0.00  0.00    +0.000 C 
ATOM      2  C   UNL     1       2.326   1.990  18.888  0.00  0.00    +0.000 C 
ATOM      3  C   UNL     1       1.628   3.308  19.138  0.00  0.00    +0.000 C 
ATOM      4  O   UNL     1       0.585   3.664  18.618  0.00  0.00    +0.000 OA
ATOM      5  N   UNL     1       2.380   4.003  20.072  0.00  0.00    +0.000 N 
ATOM      6  C   UNL     1       3.614   3.315  20.378  0.00  0.00    +0.000 C 
ENDROOT
BRANCH   1   9
ATOM      7  C   UNL     1       5.488   3.805  18.107  0.00  0.00    +0.000 C 
ATOM      8  O   UNL     1       5.992   4.183  19.154  0.00  0.00    +0.000 OA
ATOM      9  N   UNL     1       4.411   2.956  18.017  0.00  0.00    +0.000 N 
ATOM     10  H   UNL     1       4.207   2.602  17.083  0.00  0.00    +0.000 HD
BRANCH   7  13
ATOM     11  N   UNL     1       6.384   4.052  14.510  0.00  0.00    +0.000 N 
ATOM     12  N   UNL     1       5.838   3.574  15.697  0.00  0.00    +0.000 NA
ATOM     13  C   UNL     1       6.043   4.290  16.762  0.00  0.00    +0.000 A 
ATOM     14  C   UNL     1       6.780   5.569  16.798  0.00  0.00    +0.000 A 
ATOM     15  C   UNL     1       7.337   5.977  15.661  0.00  0.00    +0.000 A 
ATOM     16  C   UNL     1       7.185   5.188  14.416  0.00  0.00    +0.000 A 
ATOM     17  O   UNL     1       7.740   5.580  13.395  0.00  0.00    +0.000 OA
BRANCH  11  19
ATOM     18  C   UNL     1       4.928   3.704  12.542  0.00  0.00    +0.000 C 
ATOM     19  C   UNL     1       6.155   3.248  13.314  0.00  0.00    +0.000 C 
ENDBRANCH  11  19
ENDBRANCH   7  13
ENDBRANCH   1   9
BRANCH   5  20
ATOM     20  C   UNL     1       2.043   5.305  20.607  0.00  0.00    +0.000 C 
BRANCH  20  21
ATOM     21  C   UNL     1       2.183   6.447  19.619  0.00  0.00    +0.000 A 
ATOM     22  C   UNL     1       2.913   6.188  18.439  0.00  0.00    +0.000 A 
ATOM     23  C   UNL     1       3.236   7.206  17.541  0.00  0.00    +0.000 A 
ATOM     24  C   UNL     1       2.810   8.503  17.783  0.00  0.00    +0.000 A 
ATOM     25  C   UNL     1       2.029   8.770  18.906  0.00  0.00    +0.000 A 
ATOM     26  C   UNL     1       1.697   7.757  19.836  0.00  0.00    +0.000 A 
BRANCH  26  27
ATOM     27  C   UNL     1       0.855   8.191  21.015  0.00  0.00    +0.000 C 
ATOM     28  F   UNL     1      -0.174   7.366  21.339  0.00  0.00    +0.000 F 
ATOM     29  F   UNL     1       1.595   8.314  22.154  0.00  0.00    +0.000 F 
ATOM     30  F   UNL     1       0.286   9.415  20.816  0.00  0.00    +0.000 F 
ENDBRANCH  26  27
ENDBRANCH  20  21
ENDBRANCH   5  20
TORSDOF 6
ENDMDL
MODEL 2
REMARK VINA RESULT:      -7.6      3.473      4.938
REMARK  Name = 
REMARK  7 active torsions:
REMARK  status: ('A' for Active; 'I' for Inactive)
REMARK    1  A    between atoms: C_1  and  C_2
REMARK    2  A    between atoms: C_2  and  N_3
REMARK    3  A    between atoms: C_5  and  C_6
REMARK    4  A    between atoms: N_8  and  C_9
REMARK    5  A    between atoms: N_13  and  C_14
REMARK    6  A    between atoms: C_14  and  C_15
REMARK    7  A    between atoms: C_20  and  C_21
REMARK                            x       y       z     vdW  Elec       q    Type
REMARK                         _______ _______ _______ _____ _____    ______ ____
ROOT
ATOM      1  C   UNL     1       6.176   6.932  17.184  0.00  0.00    +0.000 C 
ATOM      2  C   UNL     1       7.384   6.932  18.119  0.00  0.00    +0.000 C 
ATOM      3  C   UNL     1       7.205   5.621  18.852  0.00  0.00    +0.000 C 
ATOM      4  O   UNL     1       8.101   4.963  19.351  0.00  0.00    +0.000 OA
ATOM      5  N   UNL     1       5.849   5.336  18.864  0.00  0.00    +0.000 N 
ATOM      6  C   UNL     1       5.099   6.288  18.074  0.00  0.00    +0.000 C 
ENDROOT
BRANCH   1   9
ATOM      7  C   UNL     1       5.554   5.342  15.363  0.00  0.00    +0.000 C 
ATOM      8  O   UNL     1       4.429   5.126  15.786  0.00  0.00    +0.000 OA
ATOM      9  N   UNL     1       6.476   6.161  15.971  0.00  0.00    +0.000 N 
ATOM     10  H   UNL     1       7.307   6.371  15.419  0.00  0.00    +0.000 HD
BRANCH   7  13
ATOM     11  N   UNL     1       5.723   3.299  12.265  0.00  0.00    +0.000 N 
ATOM     12  N   UNL     1       5.222   3.900  13.415  0.00  0.00    +0.000 NA
ATOM     13  C   UNL     1       6.038   4.669  14.073  0.00  0.00    +0.000 A 
ATOM     14  C   UNL     1       7.428   4.969  13.677  0.00  0.00    +0.000 A 
ATOM     15  C   UNL     1       7.900   4.340  12.603  0.00  0.00    +0.000 A 
ATOM     16  C   UNL     1       7.041   3.412  11.831  0.00  0.00    +0.000 A 
ATOM     17  O   UNL     1       7.522   2.827  10.865  0.00  0.00    +0.000 OA
BRANCH  11  19
ATOM     18  C   UNL     1       3.666   3.212  10.894  0.00  0.00    +0.000 C 
ATOM     19  C   UNL     1       4.808   2.433  11.527  0.00  0.00    +0.000 C 
ENDBRANCH  11  19
ENDBRANCH   7  13
ENDBRANCH   1   9
BRANCH   5  20
ATOM     20  C   UNL     1       5.248   4.179  19.491  0.00  0.00    +0.000 C 
BRANCH  20  21
ATOM     21  C   UNL     1       3.733   4.211  19.552  0.00  0.00    +0.000 A 
ATOM     22  C   UNL     1       3.145   5.216  20.350  0.00  0.00    +0.000 A 
ATOM     23  C   UNL     1       1.773   5.239  20.602  0.00  0.00    +0.000 A 
ATOM     24  C   UNL     1       0.949   4.277  20.038  0.00  0.00    +0.000 A 
ATOM     25  C   UNL     1       1.497   3.316  19.190  0.00  0.00    +0.000 A 
ATOM     26  C   UNL     1       2.887   3.266  18.927  0.00  0.00    +0.000 A 
BRANCH  26  27
ATOM     27  C   UNL     1       3.346   2.162  18.001  0.00  0.00    +0.000 C 
ATOM     28  F   UNL     1       3.845   1.055  18.608  0.00  0.00    +0.000 F 
ATOM     29  F   UNL     1       2.338   1.714  17.199  0.00  0.00    +0.000 F 
ATOM     30  F   UNL     1       4.329   2.581  17.151  0.00  0.00    +0.000 F 
ENDBRANCH  26  27
ENDBRANCH  20  21
ENDBRANCH   5  20
TORSDOF 6
ENDMDL
MODEL 3
REMARK VINA RESULT:      -7.4      4.967      6.475
REMARK  Name = 
REMARK  7 active torsions:
REMARK  status: ('A' for Active; 'I' for Inactive)
REMARK    1  A    between atoms: C_1  and  C_2
REMARK    2  A    between atoms: C_2  and  N_3
REMARK    3  A    between atoms: C_5  and  C_6
REMARK    4  A    between atoms: N_8  and  C_9
REMARK    5  A    between atoms: N_13  and  C_14
REMARK    6  A    between atoms: C_14  and  C_15
REMARK    7  A    between atoms: C_20  and  C_21
REMARK                            x       y       z     vdW  Elec       q    Type
REMARK                         _______ _______ _______ _____ _____    ______ ____
ROOT
ATOM      1  C   UNL     1       6.563   6.530  16.562  0.00  0.00    +0.000 C 
ATOM      2  C   UNL     1       5.138   6.647  16.024  0.00  0.00    +0.000 C 
ATOM      3  C   UNL     1       4.323   6.569  17.295  0.00  0.00    +0.000 C 
ATOM      4  O   UNL     1       3.215   7.052  17.454  0.00  0.00    +0.000 OA
ATOM      5  N   UNL     1       5.058   5.837  18.214  0.00  0.00    +0.000 N 
ATOM      6  C   UNL     1       6.376   5.523  17.709  0.00  0.00    +0.000 C 
ENDROOT
BRANCH   1   9
ATOM      7  C   UNL     1       7.965   7.998  18.015  0.00  0.00    +0.000 C 
ATOM      8  O   UNL     1       8.429   7.084  18.679  0.00  0.00    +0.000 OA
ATOM      9  N   UNL     1       7.045   7.845  17.005  0.00  0.00    +0.000 N 
ATOM     10  H   UNL     1       6.876   8.674  16.437  0.00  0.00    +0.000 HD
BRANCH   7  13
ATOM     11  N   UNL     1       8.374  11.685  17.808  0.00  0.00    +0.000 N 
ATOM     12  N   UNL     1       7.938  10.395  17.524  0.00  0.00    +0.000 NA
ATOM     13  C   UNL     1       8.388   9.446  18.291  0.00  0.00    +0.000 A 
ATOM     14  C   UNL     1       9.292   9.641  19.442  0.00  0.00    +0.000 A 
ATOM     15  C   UNL     1       9.736  10.876  19.660  0.00  0.00    +0.000 A 
ATOM     16  C   UNL     1       9.303  12.000  18.797  0.00  0.00    +0.000 A 
ATOM     17  O   UNL     1       9.759  13.119  19.010  0.00  0.00    +0.000 OA
BRANCH  11  19
ATOM     18  C   UNL     1       6.962  13.712  17.694  0.00  0.00    +0.000 C 
ATOM     19  C   UNL     1       7.871  12.750  16.946  0.00  0.00    +0.000 C 
ENDBRANCH  11  19
ENDBRANCH   7  13
ENDBRANCH   1   9
BRANCH   5  20
ATOM     20  C   UNL     1       4.622   5.508  19.554  0.00  0.00    +0.000 C 
BRANCH  20  21
ATOM     21  C   UNL     1       3.270   4.825  19.626  0.00  0.00    +0.000 A 
ATOM     22  C   UNL     1       2.236   5.521  20.289  0.00  0.00    +0.000 A 
ATOM     23  C   UNL     1       1.003   4.923  20.551  0.00  0.00    +0.000 A 
ATOM     24  C   UNL     1       0.761   3.624  20.129  0.00  0.00    +0.000 A 
ATOM     25  C   UNL     1       1.742   2.942  19.412  0.00  0.00    +0.000 A 
ATOM     26  C   UNL     1       3.003   3.524  19.143  0.00  0.00    +0.000 A 
BRANCH  26  27
ATOM     27  C   UNL     1       3.977   2.664  18.368  0.00  0.00    +0.000 C 
ATOM     28  F   UNL     1       4.276   3.097  17.116  0.00  0.00    +0.000 F 
ATOM     29  F   UNL     1       5.176   2.545  19.008  0.00  0.00    +0.000 F 
ATOM     30  F   UNL     1       3.520   1.389  18.209  0.00  0.00    +0.000 F 
ENDBRANCH  26  27
ENDBRANCH  20  21
ENDBRANCH   5  20
TORSDOF 6
ENDMDL
MODEL 4
REMARK VINA RESULT:      -7.4      5.132      6.652
REMARK  Name = 
REMARK  7 active torsions:
REMARK  status: ('A' for Active; 'I' for Inactive)
REMARK    1  A    between atoms: C_1  and  C_2
REMARK    2  A    between atoms: C_2  and  N_3
REMARK    3  A    between atoms: C_5  and  C_6
REMARK    4  A    between atoms: N_8  and  C_9
REMARK    5  A    between atoms: N_13  and  C_14
REMARK    6  A    between atoms: C_14  and  C_15
REMARK    7  A    between atoms: C_20  and  C_21
REMARK                            x       y       z     vdW  Elec       q    Type
REMARK                         _______ _______ _______ _____ _____    ______ ____
ROOT
ATOM      1  C   UNL     1       6.815   6.352  16.711  0.00  0.00    +0.000 C 
ATOM      2  C   UNL     1       5.428   6.393  16.071  0.00  0.00    +0.000 C 
ATOM      3  C   UNL     1       4.530   6.399  17.286  0.00  0.00    +0.000 C 
ATOM      4  O   UNL     1       3.405   6.868  17.330  0.00  0.00    +0.000 OA
ATOM      5  N   UNL     1       5.212   5.759  18.309  0.00  0.00    +0.000 N 
ATOM      6  C   UNL     1       6.567   5.435  17.921  0.00  0.00    +0.000 C 
ENDROOT
BRANCH   1   9
ATOM      7  C   UNL     1       8.095   7.961  18.126  0.00  0.00    +0.000 C 
ATOM      8  O   UNL     1       8.535   7.113  18.887  0.00  0.00    +0.000 OA
ATOM      9  N   UNL     1       7.243   7.708  17.078  0.00  0.00    +0.000 N 
ATOM     10  H   UNL     1       7.093   8.486  16.436  0.00  0.00    +0.000 HD
BRANCH   7  13
ATOM     11  N   UNL     1       9.577  11.120  19.402  0.00  0.00    +0.000 N 
ATOM     12  N   UNL     1       9.289   9.766  19.268  0.00  0.00    +0.000 NA
ATOM     13  C   UNL     1       8.472   9.436  18.312  0.00  0.00    +0.000 A 
ATOM     14  C   UNL     1       7.858  10.379  17.355  0.00  0.00    +0.000 A 
ATOM     15  C   UNL     1       8.107  11.673  17.539  0.00  0.00    +0.000 A 
ATOM     16  C   UNL     1       8.992  12.126  18.637  0.00  0.00    +0.000 A 
ATOM     17  O   UNL     1       9.172  13.330  18.793  0.00  0.00    +0.000 OA
BRANCH  11  19
ATOM     18  C   UNL     1      11.880  11.829  19.955  0.00  0.00    +0.000 C 
ATOM     19  C   UNL     1      10.493  11.491  20.476  0.00  0.00    +0.000 C 
ENDBRANCH  11  19
ENDBRANCH   7  13
ENDBRANCH   1   9
BRANCH   5  20
ATOM     20  C   UNL     1       4.690   5.527  19.638  0.00  0.00    +0.000 C 
BRANCH  20  21
ATOM     21  C   UNL     1       3.323   4.871  19.674  0.00  0.00    +0.000 A 
ATOM     22  C   UNL     1       2.268   5.621  20.236  0.00  0.00    +0.000 A 
ATOM     23  C   UNL     1       1.011   5.058  20.462  0.00  0.00    +0.000 A 
ATOM     24  C   UNL     1       0.769   3.741  20.103  0.00  0.00    +0.000 A 
ATOM     25  C   UNL     1       1.775   3.002  19.482  0.00  0.00    +0.000 A 
ATOM     26  C   UNL     1       3.060   3.548  19.252  0.00  0.00    +0.000 A 
BRANCH  26  27
ATOM     27  C   UNL     1       4.059   2.630  18.583  0.00  0.00    +0.000 C 
ATOM     28  F   UNL     1       3.662   1.341  18.432  0.00  0.00    +0.000 F 
ATOM     29  F   UNL     1       4.390   3.059  17.332  0.00  0.00    +0.000 F 
ATOM     30  F   UNL     1       5.236   2.567  19.271  0.00  0.00    +0.000 F 
ENDBRANCH  26  27
ENDBRANCH  20  21
ENDBRANCH   5  20
TORSDOF 6
ENDMDL
MODEL 5
REMARK VINA RESULT:      -7.3      3.526      5.268
REMARK  Name = 
REMARK  7 active torsions:
REMARK  status: ('A' for Active; 'I' for Inactive)
REMARK    1  A    between atoms: C_1  and  C_2
REMARK    2  A    between atoms: C_2  and  N_3
REMARK    3  A    between atoms: C_5  and  C_6
REMARK    4  A    between atoms: N_8  and  C_9
REMARK    5  A    between atoms: N_13  and  C_14
REMARK    6  A    between atoms: C_14  and  C_15
REMARK    7  A    between atoms: C_20  and  C_21
REMARK                            x       y       z     vdW  Elec       q    Type
REMARK                         _______ _______ _______ _____ _____    ______ ____
ROOT
ATOM      1  C   UNL     1       5.725   6.337  16.266  0.00  0.00    +0.000 C 
ATOM      2  C   UNL     1       7.147   6.256  16.819  0.00  0.00    +0.000 C 
ATOM      3  C   UNL     1       7.047   5.068  17.748  0.00  0.00    +0.000 C 
ATOM      4  O   UNL     1       7.972   4.340  18.065  0.00  0.00    +0.000 OA
ATOM      5  N   UNL     1       5.731   4.986  18.176  0.00  0.00    +0.000 N 
ATOM      6  C   UNL     1       4.893   5.951  17.501  0.00  0.00    +0.000 C 
ENDROOT
BRANCH   1   9
ATOM      7  C   UNL     1       6.594   5.116  14.270  0.00  0.00    +0.000 C 
ATOM      8  O   UNL     1       7.704   5.623  14.305  0.00  0.00    +0.000 OA
ATOM      9  N   UNL     1       5.569   5.411  15.137  0.00  0.00    +0.000 N 
ATOM     10  H   UNL     1       4.760   4.793  15.085  0.00  0.00    +0.000 HD
BRANCH   7  13
ATOM     11  N   UNL     1       4.775   3.028  11.793  0.00  0.00    +0.000 N 
ATOM     12  N   UNL     1       5.030   4.000  12.754  0.00  0.00    +0.000 NA
ATOM     13  C   UNL     1       6.252   4.080  13.192  0.00  0.00    +0.000 A 
ATOM     14  C   UNL     1       7.377   3.243  12.729  0.00  0.00    +0.000 A 
ATOM     15  C   UNL     1       7.095   2.285  11.850  0.00  0.00    +0.000 A 
ATOM     16  C   UNL     1       5.715   2.105  11.341  0.00  0.00    +0.000 A 
ATOM     17  O   UNL     1       5.489   1.190  10.556  0.00  0.00    +0.000 OA
BRANCH  11  19
ATOM     18  C   UNL     1       3.162   3.837  10.103  0.00  0.00    +0.000 C 
ATOM     19  C   UNL     1       3.403   2.936  11.303  0.00  0.00    +0.000 C 
ENDBRANCH  11  19
ENDBRANCH   7  13
ENDBRANCH   1   9
BRANCH   5  20
ATOM     20  C   UNL     1       5.218   3.999  19.101  0.00  0.00    +0.000 C 
BRANCH  20  21
ATOM     21  C   UNL     1       3.722   4.075  19.337  0.00  0.00    +0.000 A 
ATOM     22  C   UNL     1       3.261   5.095  20.197  0.00  0.00    +0.000 A 
ATOM     23  C   UNL     1       1.929   5.159  20.607  0.00  0.00    +0.000 A 
ATOM     24  C   UNL     1       1.017   4.223  20.144  0.00  0.00    +0.000 A 
ATOM     25  C   UNL     1       1.434   3.249  19.239  0.00  0.00    +0.000 A 
ATOM     26  C   UNL     1       2.781   3.158  18.816  0.00  0.00    +0.000 A 
BRANCH  26  27
ATOM     27  C   UNL     1       3.096   2.043  17.844  0.00  0.00    +0.000 C 
ATOM     28  F   UNL     1       3.720   0.960  18.373  0.00  0.00    +0.000 F 
ATOM     29  F   UNL     1       1.973   1.557  17.241  0.00  0.00    +0.000 F 
ATOM     30  F   UNL     1       3.904   2.463  16.827  0.00  0.00    +0.000 F 
ENDBRANCH  26  27
ENDBRANCH  20  21
ENDBRANCH   5  20
TORSDOF 6
ENDMDL
MODEL 6
REMARK VINA RESULT:      -7.2     10.052     12.650
REMARK  Name = 
REMARK  7 active torsions:
REMARK  status: ('A' for Active; 'I' for Inactive)
REMARK    1  A    between atoms: C_1  and  C_2
REMARK    2  A    between atoms: C_2  and  N_3
REMARK    3  A    between atoms: C_5  and  C_6
REMARK    4  A    between atoms: N_8  and  C_9
REMARK    5  A    between atoms: N_13  and  C_14
REMARK    6  A    between atoms: C_14  and  C_15
REMARK    7  A    between atoms: C_20  and  C_21
REMARK                            x       y       z     vdW  Elec       q    Type
REMARK                         _______ _______ _______ _____ _____    ______ ____
ROOT
ATOM      1  C   UNL     1       9.845  16.934  18.101  0.00  0.00    +0.000 C 
ATOM      2  C   UNL     1      10.588  16.342  16.905  0.00  0.00    +0.000 C 
ATOM      3  C   UNL     1      11.032  15.004  17.451  0.00  0.00    +0.000 C 
ATOM      4  O   UNL     1      11.251  14.007  16.785  0.00  0.00    +0.000 OA
ATOM      5  N   UNL     1      11.162  15.140  18.824  0.00  0.00    +0.000 N 
ATOM      6  C   UNL     1      10.708  16.437  19.274  0.00  0.00    +0.000 C 
ENDROOT
BRANCH   1   9
ATOM      7  C   UNL     1       7.429  17.154  18.687  0.00  0.00    +0.000 C 
ATOM      8  O   UNL     1       7.550  18.231  19.250  0.00  0.00    +0.000 OA
ATOM      9  N   UNL     1       8.463  16.437  18.134  0.00  0.00    +0.000 N 
ATOM     10  H   UNL     1       8.188  15.642  17.558  0.00  0.00    +0.000 HD
BRANCH   7  13
ATOM     11  N   UNL     1       3.774  16.501  18.830  0.00  0.00    +0.000 N 
ATOM     12  N   UNL     1       4.995  17.159  18.938  0.00  0.00    +0.000 NA
ATOM     13  C   UNL     1       6.049  16.493  18.570  0.00  0.00    +0.000 A 
ATOM     14  C   UNL     1       6.041  15.120  18.026  0.00  0.00    +0.000 A 
ATOM     15  C   UNL     1       4.867  14.494  17.983  0.00  0.00    +0.000 A 
ATOM     16  C   UNL     1       3.629  15.174  18.431  0.00  0.00    +0.000 A 
ATOM     17  O   UNL     1       2.572  14.553  18.406  0.00  0.00    +0.000 OA
BRANCH  11  19
ATOM     18  C   UNL     1       2.519  17.415  20.754  0.00  0.00    +0.000 C 
ATOM     19  C   UNL     1       2.590  17.247  19.245  0.00  0.00    +0.000 C 
ENDBRANCH  11  19
ENDBRANCH   7  13
ENDBRANCH   1   9
BRANCH   5  20
ATOM     20  C   UNL     1      11.595  14.094  19.726  0.00  0.00    +0.000 C 
BRANCH  20  21
ATOM     21  C   UNL     1      10.486  13.486  20.563  0.00  0.00    +0.000 A 
ATOM     22  C   UNL     1      10.012  14.251  21.651  0.00  0.00    +0.000 A 
ATOM     23  C   UNL     1       9.110  13.725  22.577  0.00  0.00    +0.000 A 
ATOM     24  C   UNL     1       8.636  12.432  22.421  0.00  0.00    +0.000 A 
ATOM     25  C   UNL     1       9.035  11.682  21.317  0.00  0.00    +0.000 A 
ATOM     26  C   UNL     1       9.956  12.190  20.370  0.00  0.00    +0.000 A 
BRANCH  26  27
ATOM     27  C   UNL     1      10.313  11.263  19.230  0.00  0.00    +0.000 C 
ATOM     28  F   UNL     1      11.641  11.066  19.025  0.00  0.00    +0.000 F 
ATOM     29  F   UNL     1       9.783  10.017  19.398  0.00  0.00    +0.000 F 
ATOM     30  F   UNL     1       9.826  11.708  18.036  0.00  0.00    +0.000 F 
ENDBRANCH  26  27
ENDBRANCH  20  21
ENDBRANCH   5  20
TORSDOF 6
ENDMDL
MODEL 7
REMARK VINA RESULT:      -7.2      2.110      2.960
REMARK  Name = 
REMARK  7 active torsions:
REMARK  status: ('A' for Active; 'I' for Inactive)
REMARK    1  A    between atoms: C_1  and  C_2
REMARK    2  A    between atoms: C_2  and  N_3
REMARK    3  A    between atoms: C_5  and  C_6
REMARK    4  A    between atoms: N_8  and  C_9
REMARK    5  A    between atoms: N_13  and  C_14
REMARK    6  A    between atoms: C_14  and  C_15
REMARK    7  A    between atoms: C_20  and  C_21
REMARK                            x       y       z     vdW  Elec       q    Type
REMARK                         _______ _______ _______ _____ _____    ______ ____
ROOT
ATOM      1  C   UNL     1       4.888   4.669  18.070  0.00  0.00    +0.000 C 
ATOM      2  C   UNL     1       3.615   3.854  18.294  0.00  0.00    +0.000 C 
ATOM      3  C   UNL     1       2.542   4.862  17.951  0.00  0.00    +0.000 C 
ATOM      4  O   UNL     1       1.425   4.592  17.544  0.00  0.00    +0.000 OA
ATOM      5  N   UNL     1       3.059   6.121  18.209  0.00  0.00    +0.000 N 
ATOM      6  C   UNL     1       4.457   6.057  18.575  0.00  0.00    +0.000 C 
ENDROOT
BRANCH   1   9
ATOM      7  C   UNL     1       6.559   4.525  16.222  0.00  0.00    +0.000 C 
ATOM      8  O   UNL     1       7.533   4.479  16.957  0.00  0.00    +0.000 OA
ATOM      9  N   UNL     1       5.259   4.648  16.649  0.00  0.00    +0.000 N 
ATOM     10  H   UNL     1       4.547   4.507  15.934  0.00  0.00    +0.000 HD
BRANCH   7  13
ATOM     11  N   UNL     1       6.261   3.573  12.643  0.00  0.00    +0.000 N 
ATOM     12  N   UNL     1       6.042   3.600  14.016  0.00  0.00    +0.000 NA
ATOM     13  C   UNL     1       6.736   4.461  14.700  0.00  0.00    +0.000 A 
ATOM     14  C   UNL     1       7.706   5.416  14.128  0.00  0.00    +0.000 A 
ATOM     15  C   UNL     1       7.937   5.333  12.820  0.00  0.00    +0.000 A 
ATOM     16  C   UNL     1       7.216   4.344  11.985  0.00  0.00    +0.000 A 
ATOM     17  O   UNL     1       7.479   4.276  10.788  0.00  0.00    +0.000 OA
BRANCH  11  19
ATOM     18  C   UNL     1       4.146   3.172  11.425  0.00  0.00    +0.000 C 
ATOM     19  C   UNL     1       5.482   2.606  11.875  0.00  0.00    +0.000 C 
ENDBRANCH  11  19
ENDBRANCH   7  13
ENDBRANCH   1   9
BRANCH   5  20
ATOM     20  C   UNL     1       2.341   7.366  18.038  0.00  0.00    +0.000 C 
BRANCH  20  21
ATOM     21  C   UNL     1       1.797   7.961  19.323  0.00  0.00    +0.000 A 
ATOM     22  C   UNL     1       1.852   7.150  20.477  0.00  0.00    +0.000 A 
ATOM     23  C   UNL     1       1.240   7.535  21.670  0.00  0.00    +0.000 A 
ATOM     24  C   UNL     1       0.583   8.753  21.749  0.00  0.00    +0.000 A 
ATOM     25  C   UNL     1       0.575   9.601  20.643  0.00  0.00    +0.000 A 
ATOM     26  C   UNL     1       1.181   9.229  19.419  0.00  0.00    +0.000 A 
BRANCH  26  27
ATOM     27  C   UNL     1       1.083  10.240  18.298  0.00  0.00    +0.000 C 
ATOM     28  F   UNL     1       2.212  10.415  17.565  0.00  0.00    +0.000 F 
ATOM     29  F   UNL     1       0.112   9.913  17.398  0.00  0.00    +0.000 F 
ATOM     30  F   UNL     1       0.754  11.482  18.756  0.00  0.00    +0.000 F 
ENDBRANCH  26  27
ENDBRANCH  20  21
ENDBRANCH   5  20
TORSDOF 6
ENDMDL
MODEL 8
REMARK VINA RESULT:      -7.1      5.728      8.279
REMARK  Name = 
REMARK  7 active torsions:
REMARK  status: ('A' for Active; 'I' for Inactive)
REMARK    1  A    between atoms: C_1  and  C_2
REMARK    2  A    between atoms: C_2  and  N_3
REMARK    3  A    between atoms: C_5  and  C_6
REMARK    4  A    between atoms: N_8  and  C_9
REMARK    5  A    between atoms: N_13  and  C_14
REMARK    6  A    between atoms: C_14  and  C_15
REMARK    7  A    between atoms: C_20  and  C_21
REMARK                            x       y       z     vdW  Elec       q    Type
REMARK                         _______ _______ _______ _____ _____    ______ ____
ROOT
ATOM      1  C   UNL     1       0.964  10.096  18.419  0.00  0.00    +0.000 C 
ATOM      2  C   UNL     1       0.093   9.729  19.619  0.00  0.00    +0.000 C 
ATOM      3  C   UNL     1       0.983   8.756  20.358  0.00  0.00    +0.000 C 
ATOM      4  O   UNL     1       0.947   8.537  21.556  0.00  0.00    +0.000 OA
ATOM      5  N   UNL     1       1.812   8.159  19.421  0.00  0.00    +0.000 N 
ATOM      6  C   UNL     1       1.646   8.752  18.112  0.00  0.00    +0.000 C 
ENDROOT
BRANCH   1   9
ATOM      7  C   UNL     1       1.555  12.493  18.784  0.00  0.00    +0.000 C 
ATOM      8  O   UNL     1       0.469  12.929  18.432  0.00  0.00    +0.000 OA
ATOM      9  N   UNL     1       1.904  11.164  18.785  0.00  0.00    +0.000 N 
ATOM     10  H   UNL     1       2.779  10.941  19.256  0.00  0.00    +0.000 HD
BRANCH   7  13
ATOM     11  N   UNL     1       4.492  14.766  18.875  0.00  0.00    +0.000 N 
ATOM     12  N   UNL     1       3.503  13.920  18.387  0.00  0.00    +0.000 NA
ATOM     13  C   UNL     1       2.656  13.452  19.255  0.00  0.00    +0.000 A 
ATOM     14  C   UNL     1       2.653  13.771  20.696  0.00  0.00    +0.000 A 
ATOM     15  C   UNL     1       3.641  14.540  21.147  0.00  0.00    +0.000 A 
ATOM     16  C   UNL     1       4.669  15.072  20.223  0.00  0.00    +0.000 A 
ATOM     17  O   UNL     1       5.583  15.750  20.681  0.00  0.00    +0.000 OA
BRANCH  11  19
ATOM     18  C   UNL     1       6.631  14.363  17.703  0.00  0.00    +0.000 C 
ATOM     19  C   UNL     1       5.444  15.291  17.901  0.00  0.00    +0.000 C 
ENDBRANCH  11  19
ENDBRANCH   7  13
ENDBRANCH   1   9
BRANCH   5  20
ATOM     20  C   UNL     1       2.800   7.144  19.713  0.00  0.00    +0.000 C 
BRANCH  20  21
ATOM     21  C   UNL     1       2.337   5.722  19.455  0.00  0.00    +0.000 A 
ATOM     22  C   UNL     1       1.310   5.223  20.285  0.00  0.00    +0.000 A 
ATOM     23  C   UNL     1       0.920   3.884  20.240  0.00  0.00    +0.000 A 
ATOM     24  C   UNL     1       1.525   3.018  19.343  0.00  0.00    +0.000 A 
ATOM     25  C   UNL     1       2.493   3.503  18.466  0.00  0.00    +0.000 A 
ATOM     26  C   UNL     1       2.912   4.854  18.499  0.00  0.00    +0.000 A 
BRANCH  26  27
ATOM     27  C   UNL     1       3.980   5.241  17.501  0.00  0.00    +0.000 C 
ATOM     28  F   UNL     1       4.179   4.365  16.483  0.00  0.00    +0.000 F 
ATOM     29  F   UNL     1       3.714   6.438  16.904  0.00  0.00    +0.000 F 
ATOM     30  F   UNL     1       5.202   5.391  18.090  0.00  0.00    +0.000 F 
ENDBRANCH  26  27
ENDBRANCH  20  21
ENDBRANCH   5  20
TORSDOF 6
ENDMDL
MODEL 9
REMARK VINA RESULT:      -7.1      5.828      8.568
REMARK  Name = 
REMARK  7 active torsions:
REMARK  status: ('A' for Active; 'I' for Inactive)
REMARK    1  A    between atoms: C_1  and  C_2
REMARK    2  A    between atoms: C_2  and  N_3
REMARK    3  A    between atoms: C_5  and  C_6
REMARK    4  A    between atoms: N_8  and  C_9
REMARK    5  A    between atoms: N_13  and  C_14
REMARK    6  A    between atoms: C_14  and  C_15
REMARK    7  A    between atoms: C_20  and  C_21
REMARK                            x       y       z     vdW  Elec       q    Type
REMARK                         _______ _______ _______ _____ _____    ______ ____
ROOT
ATOM      1  C   UNL     1       0.953   9.976  18.213  0.00  0.00    +0.000 C 
ATOM      2  C   UNL     1       0.280   9.533  19.511  0.00  0.00    +0.000 C 
ATOM      3  C   UNL     1       1.317   8.598  20.090  0.00  0.00    +0.000 C 
ATOM      4  O   UNL     1       1.462   8.351  21.275  0.00  0.00    +0.000 OA
ATOM      5  N   UNL     1       2.037   8.070  19.029  0.00  0.00    +0.000 N 
ATOM      6  C   UNL     1       1.657   8.680  17.775  0.00  0.00    +0.000 C 
ENDROOT
BRANCH   1   9
ATOM      7  C   UNL     1       1.446  12.381  18.663  0.00  0.00    +0.000 C 
ATOM      8  O   UNL     1       0.285  12.750  18.576  0.00  0.00    +0.000 OA
ATOM      9  N   UNL     1       1.875  11.089  18.476  0.00  0.00    +0.000 N 
ATOM     10  H   UNL     1       2.842  10.904  18.741  0.00  0.00    +0.000 HD
BRANCH   7  13
ATOM     11  N   UNL     1       3.897  14.518  20.459  0.00  0.00    +0.000 N 
ATOM     12  N   UNL     1       2.902  13.576  20.225  0.00  0.00    +0.000 NA
ATOM     13  C   UNL     1       2.555  13.390  18.986  0.00  0.00    +0.000 A 
ATOM     14  C   UNL     1       3.153  14.078  17.824  0.00  0.00    +0.000 A 
ATOM     15  C   UNL     1       4.065  15.013  18.079  0.00  0.00    +0.000 A 
ATOM     16  C   UNL     1       4.475  15.312  19.471  0.00  0.00    +0.000 A 
ATOM     17  O   UNL     1       5.295  16.203  19.668  0.00  0.00    +0.000 OA
BRANCH  11  19
ATOM     18  C   UNL     1       3.348  15.687  22.568  0.00  0.00    +0.000 C 
ATOM     19  C   UNL     1       4.285  14.729  21.851  0.00  0.00    +0.000 C 
ENDBRANCH  11  19
ENDBRANCH   7  13
ENDBRANCH   1   9
BRANCH   5  20
ATOM     20  C   UNL     1       3.110   7.107  19.150  0.00  0.00    +0.000 C 
BRANCH  20  21
ATOM     21  C   UNL     1       2.813   5.753  18.536  0.00  0.00    +0.000 A 
ATOM     22  C   UNL     1       1.734   5.025  19.082  0.00  0.00    +0.000 A 
ATOM     23  C   UNL     1       1.473   3.708  18.701  0.00  0.00    +0.000 A 
ATOM     24  C   UNL     1       2.266   3.096  17.742  0.00  0.00    +0.000 A 
ATOM     25  C   UNL     1       3.294   3.818  17.139  0.00  0.00    +0.000 A 
ATOM     26  C   UNL     1       3.583   5.151  17.515  0.00  0.00    +0.000 A 
BRANCH  26  27
ATOM     27  C   UNL     1       4.736   5.808  16.789  0.00  0.00    +0.000 C 
ATOM     28  F   UNL     1       4.461   7.007  16.214  0.00  0.00    +0.000 F 
ATOM     29  F   UNL     1       5.798   6.035  17.614  0.00  0.00    +0.000 F 
ATOM     30  F   UNL     1       5.218   5.026  15.779  0.00  0.00    +0.000 F 
ENDBRANCH  26  27
ENDBRANCH  20  21
ENDBRANCH   5  20
TORSDOF 6
ENDMDL
