MODEL 1
REMARK VINA RESULT:      -9.1      0.000      0.000
REMARK  Name = 
REMARK  6 active torsions:
REMARK  status: ('A' for Active; 'I' for Inactive)
REMARK    1  A    between atoms: C_1  and  N_2
REMARK    2  A    between atoms: C_6  and  C_7
REMARK    3  A    between atoms: C_7  and  C_8
REMARK    4  A    between atoms: C_8  and  C_9
REMARK    5  A    between atoms: C_13  and  N_14
REMARK    6  A    between atoms: C_22  and  C_23
REMARK                            x       y       z     vdW  Elec       q    Type
REMARK                         _______ _______ _______ _____ _____    ______ ____
ROOT
ATOM      1  N   UNL     1       4.162   4.471  19.163  0.00  0.00    +0.000 N 
ATOM      2  C   UNL     1       5.496   5.110  19.264  0.00  0.00    +0.000 C 
ATOM      3  C   UNL     1       6.005   4.984  17.857  0.00  0.00    +0.000 A 
ATOM      4  C   UNL     1       5.390   3.862  17.289  0.00  0.00    +0.000 A 
ATOM      5  C   UNL     1       5.495   3.531  15.955  0.00  0.00    +0.000 A 
ATOM      6  C   UNL     1       6.240   4.395  15.167  0.00  0.00    +0.000 A 
ATOM      7  F   UNL     1       6.301   4.185  13.845  0.00  0.00    +0.000 F 
ATOM      8  C   UNL     1       6.858   5.536  15.701  0.00  0.00    +0.000 A 
ATOM      9  C   UNL     1       6.751   5.856  17.071  0.00  0.00    +0.000 A 
ATOM     10  C   UNL     1       4.315   3.432  18.214  0.00  0.00    +0.000 C 
ATOM     11  O   UNL     1       3.585   2.478  18.007  0.00  0.00    +0.000 OA
ENDROOT
BRANCH   1  16
ATOM     12  C   UNL     1       1.871   7.189  19.970  0.00  0.00    +0.000 A 
ATOM     13  C   UNL     1       2.328   8.113  19.022  0.00  0.00    +0.000 A 
ATOM     14  C   UNL     1       3.015   7.686  17.891  0.00  0.00    +0.000 A 
ATOM     15  C   UNL     1       3.365   6.347  17.763  0.00  0.00    +0.000 A 
ATOM     16  C   UNL     1       3.150   5.474  18.842  0.00  0.00    +0.000 A 
ATOM     17  C   UNL     1       2.266   5.853  19.857  0.00  0.00    +0.000 A 
BRANCH  12  18
ATOM     18  C   UNL     1       1.068   7.649  21.164  0.00  0.00    +0.000 C 
BRANCH  18  19
ATOM     19  C   UNL     1       1.594   8.969  21.724  0.00  0.00    +0.000 C 
BRANCH  19  25
ATOM     20  C   UNL     1       0.126  11.031  19.935  0.00  0.00    +0.000 C 
ATOM     21  N   UNL     1      -0.128  10.782  21.329  0.00  0.00    +0.000 N 
ATOM     22  C   UNL     1      -1.038  11.429  22.104  0.00  0.00    +0.000 A 
ATOM     23  N   UNL     1      -0.999  10.945  23.322  0.00  0.00    +0.000 NA
ATOM     24  N   UNL     1      -0.034   9.967  23.348  0.00  0.00    +0.000 NA
ATOM     25  C   UNL     1       0.486   9.870  22.145  0.00  0.00    +0.000 A 
ENDBRANCH  19  25
ENDBRANCH  18  19
ENDBRANCH  12  18
ENDBRANCH   1  16
BRANCH   9  26
ATOM     26  C   UNL     1       7.331   7.155  17.570  0.00  0.00    +0.000 C 
ATOM     27  F   UNL     1       8.026   7.044  18.733  0.00  0.00    +0.000 F 
ATOM     28  F   UNL     1       8.194   7.706  16.675  0.00  0.00    +0.000 F 
ATOM     29  F   UNL     1       6.372   8.095  17.795  0.00  0.00    +0.000 F 
ENDBRANCH   9  26
TORSDOF 5
ENDMDL
MODEL 2
REMARK VINA RESULT:      -8.9      4.483      6.578
REMARK  Name = 
REMARK  6 active torsions:
REMARK  status: ('A' for Active; 'I' for Inactive)
REMARK    1  A    between atoms: C_1  and  N_2
REMARK    2  A    between atoms: C_6  and  C_7
REMARK    3  A    between atoms: C_7  and  C_8
REMARK    4  A    between atoms: C_8  and  C_9
REMARK    5  A    between atoms: C_13  and  N_14
REMARK    6  A    between atoms: C_22  and  C_23
REMARK                            x       y       z     vdW  Elec       q    Type
REMARK                         _______ _______ _______ _____ _____    ______ ____
ROOT
ATOM      1  N   UNL     1       6.026   5.314  15.584  0.00  0.00    +0.000 N 
ATOM      2  C   UNL     1       4.847   6.182  15.818  0.00  0.00    +0.000 C 
ATOM      3  C   UNL     1       4.093   5.405  16.857  0.00  0.00    +0.000 A 
ATOM      4  C   UNL     1       4.417   4.053  16.684  0.00  0.00    +0.000 A 
ATOM      5  C   UNL     1       4.036   3.062  17.563  0.00  0.00    +0.000 A 
ATOM      6  C   UNL     1       3.315   3.472  18.674  0.00  0.00    +0.000 A 
ATOM      7  F   UNL     1       2.998   2.574  19.615  0.00  0.00    +0.000 F 
ATOM      8  C   UNL     1       2.986   4.820  18.885  0.00  0.00    +0.000 A 
ATOM      9  C   UNL     1       3.373   5.822  17.972  0.00  0.00    +0.000 A 
ATOM     10  C   UNL     1       5.551   3.989  15.733  0.00  0.00    +0.000 C 
ATOM     11  O   UNL     1       6.075   2.949  15.372  0.00  0.00    +0.000 OA
ENDROOT
BRANCH   1  16
ATOM     12  C   UNL     1       7.814   7.621  17.769  0.00  0.00    +0.000 A 
ATOM     13  C   UNL     1       7.878   6.801  18.902  0.00  0.00    +0.000 A 
ATOM     14  C   UNL     1       7.764   5.420  18.783  0.00  0.00    +0.000 A 
ATOM     15  C   UNL     1       7.452   4.858  17.550  0.00  0.00    +0.000 A 
ATOM     16  C   UNL     1       7.115   5.698  16.478  0.00  0.00    +0.000 A 
ATOM     17  C   UNL     1       7.455   7.053  16.542  0.00  0.00    +0.000 A 
BRANCH  12  18
ATOM     18  C   UNL     1       8.003   9.114  17.891  0.00  0.00    +0.000 C 
BRANCH  18  19
ATOM     19  C   UNL     1       8.971   9.470  19.018  0.00  0.00    +0.000 C 
BRANCH  19  25
ATOM     20  C   UNL     1       9.081  11.537  21.325  0.00  0.00    +0.000 C 
ATOM     21  N   UNL     1       9.460  11.770  19.957  0.00  0.00    +0.000 N 
ATOM     22  C   UNL     1       9.905  12.945  19.439  0.00  0.00    +0.000 A 
ATOM     23  N   UNL     1      10.155  12.794  18.160  0.00  0.00    +0.000 NA
ATOM     24  N   UNL     1       9.857  11.494  17.831  0.00  0.00    +0.000 NA
ATOM     25  C   UNL     1       9.441  10.879  18.917  0.00  0.00    +0.000 A 
ENDBRANCH  19  25
ENDBRANCH  18  19
ENDBRANCH  12  18
ENDBRANCH   1  16
BRANCH   9  26
ATOM     26  C   UNL     1       3.101   7.267  18.305  0.00  0.00    +0.000 C 
ATOM     27  F   UNL     1       2.072   7.816  17.607  0.00  0.00    +0.000 F 
ATOM     28  F   UNL     1       2.789   7.437  19.619  0.00  0.00    +0.000 F 
ATOM     29  F   UNL     1       4.180   8.063  18.071  0.00  0.00    +0.000 F 
ENDBRANCH   9  26
TORSDOF 5
ENDMDL
MODEL 3
REMARK VINA RESULT:      -8.8      0.901      1.069
REMARK  Name = 
REMARK  6 active torsions:
REMARK  status: ('A' for Active; 'I' for Inactive)
REMARK    1  A    between atoms: C_1  and  N_2
REMARK    2  A    between atoms: C_6  and  C_7
REMARK    3  A    between atoms: C_7  and  C_8
REMARK    4  A    between atoms: C_8  and  C_9
REMARK    5  A    between atoms: C_13  and  N_14
REMARK    6  A    between atoms: C_22  and  C_23
REMARK                            x       y       z     vdW  Elec       q    Type
REMARK                         _______ _______ _______ _____ _____    ______ ____
ROOT
ATOM      1  N   UNL     1       4.042   4.565  19.233  0.00  0.00    +0.000 N 
ATOM      2  C   UNL     1       5.393   5.169  19.334  0.00  0.00    +0.000 C 
ATOM      3  C   UNL     1       5.911   5.000  17.936  0.00  0.00    +0.000 A 
ATOM      4  C   UNL     1       5.271   3.883  17.385  0.00  0.00    +0.000 A 
ATOM      5  C   UNL     1       5.380   3.523  16.058  0.00  0.00    +0.000 A 
ATOM      6  C   UNL     1       6.154   4.349  15.260  0.00  0.00    +0.000 A 
ATOM      7  F   UNL     1       6.222   4.110  13.944  0.00  0.00    +0.000 F 
ATOM      8  C   UNL     1       6.799   5.484  15.777  0.00  0.00    +0.000 A 
ATOM      9  C   UNL     1       6.687   5.835  17.138  0.00  0.00    +0.000 A 
ATOM     10  C   UNL     1       4.177   3.502  18.307  0.00  0.00    +0.000 C 
ATOM     11  O   UNL     1       3.422   2.564  18.114  0.00  0.00    +0.000 OA
ENDROOT
BRANCH   1  16
ATOM     12  C   UNL     1       2.040   7.543  19.875  0.00  0.00    +0.000 A 
ATOM     13  C   UNL     1       2.431   8.282  18.751  0.00  0.00    +0.000 A 
ATOM     14  C   UNL     1       2.942   7.643  17.627  0.00  0.00    +0.000 A 
ATOM     15  C   UNL     1       3.192   6.276  17.665  0.00  0.00    +0.000 A 
ATOM     16  C   UNL     1       3.062   5.588  18.882  0.00  0.00    +0.000 A 
ATOM     17  C   UNL     1       2.337   6.177  19.923  0.00  0.00    +0.000 A 
BRANCH  12  18
ATOM     18  C   UNL     1       1.424   8.231  21.069  0.00  0.00    +0.000 C 
BRANCH  18  19
ATOM     19  C   UNL     1       0.143   8.974  20.694  0.00  0.00    +0.000 C 
BRANCH  19  25
ATOM     20  C   UNL     1      -0.984  11.067  18.705  0.00  0.00    +0.000 C 
ATOM     21  N   UNL     1      -0.183  11.345  19.867  0.00  0.00    +0.000 N 
ATOM     22  C   UNL     1       0.237  12.571  20.275  0.00  0.00    +0.000 A 
ATOM     23  N   UNL     1       0.946  12.449  21.371  0.00  0.00    +0.000 NA
ATOM     24  N   UNL     1       1.000  11.112  21.683  0.00  0.00    +0.000 NA
ATOM     25  C   UNL     1       0.317  10.450  20.776  0.00  0.00    +0.000 A 
ENDBRANCH  19  25
ENDBRANCH  18  19
ENDBRANCH  12  18
ENDBRANCH   1  16
BRANCH   9  26
ATOM     26  C   UNL     1       7.297   7.129  17.617  0.00  0.00    +0.000 C 
ATOM     27  F   UNL     1       7.995   7.019  18.778  0.00  0.00    +0.000 F 
ATOM     28  F   UNL     1       8.168   7.648  16.710  0.00  0.00    +0.000 F 
ATOM     29  F   UNL     1       6.361   8.092  17.831  0.00  0.00    +0.000 F 
ENDBRANCH   9  26
TORSDOF 5
ENDMDL
MODEL 4
REMARK VINA RESULT:      -8.6      0.790      1.320
REMARK  Name = 
REMARK  6 active torsions:
REMARK  status: ('A' for Active; 'I' for Inactive)
REMARK    1  A    between atoms: C_1  and  N_2
REMARK    2  A    between atoms: C_6  and  C_7
REMARK    3  A    between atoms: C_7  and  C_8
REMARK    4  A    between atoms: C_8  and  C_9
REMARK    5  A    between atoms: C_13  and  N_14
REMARK    6  A    between atoms: C_22  and  C_23
REMARK                            x       y       z     vdW  Elec       q    Type
REMARK                         _______ _______ _______ _____ _____    ______ ____
ROOT
ATOM      1  N   UNL     1       3.865   4.457  19.262  0.00  0.00    +0.000 N 
ATOM      2  C   UNL     1       5.234   5.020  19.348  0.00  0.00    +0.000 C 
ATOM      3  C   UNL     1       5.715   4.880  17.934  0.00  0.00    +0.000 A 
ATOM      4  C   UNL     1       5.031   3.799  17.364  0.00  0.00    +0.000 A 
ATOM      5  C   UNL     1       5.098   3.477  16.025  0.00  0.00    +0.000 A 
ATOM      6  C   UNL     1       5.878   4.307  15.234  0.00  0.00    +0.000 A 
ATOM      7  F   UNL     1       5.908   4.107  13.910  0.00  0.00    +0.000 F 
ATOM      8  C   UNL     1       6.566   5.407  15.770  0.00  0.00    +0.000 A 
ATOM      9  C   UNL     1       6.496   5.718  17.143  0.00  0.00    +0.000 A 
ATOM     10  C   UNL     1       3.948   3.420  18.301  0.00  0.00    +0.000 C 
ATOM     11  O   UNL     1       3.163   2.510  18.097  0.00  0.00    +0.000 OA
ENDROOT
BRANCH   1  16
ATOM     12  C   UNL     1       2.007   7.500  20.019  0.00  0.00    +0.000 A 
ATOM     13  C   UNL     1       2.368   8.233  18.881  0.00  0.00    +0.000 A 
ATOM     14  C   UNL     1       2.799   7.584  17.729  0.00  0.00    +0.000 A 
ATOM     15  C   UNL     1       3.001   6.209  17.748  0.00  0.00    +0.000 A 
ATOM     16  C   UNL     1       2.906   5.517  18.965  0.00  0.00    +0.000 A 
ATOM     17  C   UNL     1       2.256   6.124  20.044  0.00  0.00    +0.000 A 
BRANCH  12  18
ATOM     18  C   UNL     1       1.476   8.202  21.246  0.00  0.00    +0.000 C 
BRANCH  18  19
ATOM     19  C   UNL     1      -0.034   8.417  21.165  0.00  0.00    +0.000 C 
BRANCH  19  25
ATOM     20  C   UNL     1      -0.926  10.682  23.082  0.00  0.00    +0.000 C 
ATOM     21  N   UNL     1      -0.779  10.787  21.656  0.00  0.00    +0.000 N 
ATOM     22  C   UNL     1      -1.032  11.890  20.903  0.00  0.00    +0.000 A 
ATOM     23  N   UNL     1      -0.791  11.625  19.642  0.00  0.00    +0.000 NA
ATOM     24  N   UNL     1      -0.380  10.317  19.565  0.00  0.00    +0.000 NA
ATOM     25  C   UNL     1      -0.371   9.815  20.780  0.00  0.00    +0.000 A 
ENDBRANCH  19  25
ENDBRANCH  18  19
ENDBRANCH  12  18
ENDBRANCH   1  16
BRANCH   9  26
ATOM     26  C   UNL     1       7.153   6.978  17.646  0.00  0.00    +0.000 C 
ATOM     27  F   UNL     1       7.820   6.828  18.822  0.00  0.00    +0.000 F 
ATOM     28  F   UNL     1       8.067   7.464  16.763  0.00  0.00    +0.000 F 
ATOM     29  F   UNL     1       6.257   7.982  17.849  0.00  0.00    +0.000 F 
ENDBRANCH   9  26
TORSDOF 5
ENDMDL
MODEL 5
REMARK VINA RESULT:      -8.5      4.513      6.694
REMARK  Name = 
REMARK  6 active torsions:
REMARK  status: ('A' for Active; 'I' for Inactive)
REMARK    1  A    between atoms: C_1  and  N_2
REMARK    2  A    between atoms: C_6  and  C_7
REMARK    3  A    between atoms: C_7  and  C_8
REMARK    4  A    between atoms: C_8  and  C_9
REMARK    5  A    between atoms: C_13  and  N_14
REMARK    6  A    between atoms: C_22  and  C_23
REMARK                            x       y       z     vdW  Elec       q    Type
REMARK                         _______ _______ _______ _____ _____    ______ ____
ROOT
ATOM      1  N   UNL     1       6.042   5.366  15.649  0.00  0.00    +0.000 N 
ATOM      2  C   UNL     1       4.835   6.207  15.833  0.00  0.00    +0.000 C 
ATOM      3  C   UNL     1       4.108   5.471  16.920  0.00  0.00    +0.000 A 
ATOM      4  C   UNL     1       4.475   4.123  16.829  0.00  0.00    +0.000 A 
ATOM      5  C   UNL     1       4.127   3.176  17.769  0.00  0.00    +0.000 A 
ATOM      6  C   UNL     1       3.394   3.630  18.854  0.00  0.00    +0.000 A 
ATOM      7  F   UNL     1       3.107   2.781  19.850  0.00  0.00    +0.000 F 
ATOM      8  C   UNL     1       3.021   4.977  18.983  0.00  0.00    +0.000 A 
ATOM      9  C   UNL     1       3.375   5.933  18.009  0.00  0.00    +0.000 A 
ATOM     10  C   UNL     1       5.610   4.038  15.881  0.00  0.00    +0.000 C 
ATOM     11  O   UNL     1       6.167   2.995  15.583  0.00  0.00    +0.000 OA
ENDROOT
BRANCH   1  16
ATOM     12  C   UNL     1       7.710   7.830  17.755  0.00  0.00    +0.000 A 
ATOM     13  C   UNL     1       7.848   7.039  18.903  0.00  0.00    +0.000 A 
ATOM     14  C   UNL     1       7.824   5.652  18.813  0.00  0.00    +0.000 A 
ATOM     15  C   UNL     1       7.529   5.045  17.598  0.00  0.00    +0.000 A 
ATOM     16  C   UNL     1       7.118   5.839  16.515  0.00  0.00    +0.000 A 
ATOM     17  C   UNL     1       7.369   7.214  16.547  0.00  0.00    +0.000 A 
BRANCH  12  18
ATOM     18  C   UNL     1       7.802   9.335  17.845  0.00  0.00    +0.000 C 
BRANCH  18  19
ATOM     19  C   UNL     1       9.024   9.779  18.646  0.00  0.00    +0.000 C 
BRANCH  19  25
ATOM     20  C   UNL     1      11.444  11.328  19.808  0.00  0.00    +0.000 C 
ATOM     21  N   UNL     1      10.426  11.866  18.947  0.00  0.00    +0.000 N 
ATOM     22  C   UNL     1      10.338  13.153  18.518  0.00  0.00    +0.000 A 
ATOM     23  N   UNL     1       9.284  13.288  17.749  0.00  0.00    +0.000 NA
ATOM     24  N   UNL     1       8.662  12.064  17.680  0.00  0.00    +0.000 NA
ATOM     25  C   UNL     1       9.354  11.210  18.401  0.00  0.00    +0.000 A 
ENDBRANCH  19  25
ENDBRANCH  18  19
ENDBRANCH  12  18
ENDBRANCH   1  16
BRANCH   9  26
ATOM     26  C   UNL     1       3.056   7.386  18.254  0.00  0.00    +0.000 C 
ATOM     27  F   UNL     1       2.653   7.662  19.523  0.00  0.00    +0.000 F 
ATOM     28  F   UNL     1       4.130   8.190  18.025  0.00  0.00    +0.000 F 
ATOM     29  F   UNL     1       2.067   7.842  17.439  0.00  0.00    +0.000 F 
ENDBRANCH   9  26
TORSDOF 5
ENDMDL
MODEL 6
REMARK VINA RESULT:      -8.5      4.348      6.319
REMARK  Name = 
REMARK  6 active torsions:
REMARK  status: ('A' for Active; 'I' for Inactive)
REMARK    1  A    between atoms: C_1  and  N_2
REMARK    2  A    between atoms: C_6  and  C_7
REMARK    3  A    between atoms: C_7  and  C_8
REMARK    4  A    between atoms: C_8  and  C_9
REMARK    5  A    between atoms: C_13  and  N_14
REMARK    6  A    between atoms: C_22  and  C_23
REMARK                            x       y       z     vdW  Elec       q    Type
REMARK                         _______ _______ _______ _____ _____    ______ ____
ROOT
ATOM      1  N   UNL     1       6.043   5.354  15.645  0.00  0.00    +0.000 N 
ATOM      2  C   UNL     1       4.863   6.234  15.824  0.00  0.00    +0.000 C 
ATOM      3  C   UNL     1       4.093   5.505  16.886  0.00  0.00    +0.000 A 
ATOM      4  C   UNL     1       4.415   4.147  16.777  0.00  0.00    +0.000 A 
ATOM      5  C   UNL     1       4.019   3.196  17.695  0.00  0.00    +0.000 A 
ATOM      6  C   UNL     1       3.284   3.657  18.776  0.00  0.00    +0.000 A 
ATOM      7  F   UNL     1       2.952   2.802  19.751  0.00  0.00    +0.000 F 
ATOM      8  C   UNL     1       2.956   5.014  18.923  0.00  0.00    +0.000 A 
ATOM      9  C   UNL     1       3.359   5.973  17.971  0.00  0.00    +0.000 A 
ATOM     10  C   UNL     1       5.561   4.038  15.846  0.00  0.00    +0.000 C 
ATOM     11  O   UNL     1       6.087   2.981  15.538  0.00  0.00    +0.000 OA
ENDROOT
BRANCH   1  16
ATOM     12  C   UNL     1       7.742   7.709  17.848  0.00  0.00    +0.000 A 
ATOM     13  C   UNL     1       7.852   6.878  18.969  0.00  0.00    +0.000 A 
ATOM     14  C   UNL     1       7.799   5.496  18.832  0.00  0.00    +0.000 A 
ATOM     15  C   UNL     1       7.504   4.936  17.595  0.00  0.00    +0.000 A 
ATOM     16  C   UNL     1       7.121   5.774  16.536  0.00  0.00    +0.000 A 
ATOM     17  C   UNL     1       7.400   7.142  16.616  0.00  0.00    +0.000 A 
BRANCH  12  18
ATOM     18  C   UNL     1       7.866   9.208  17.988  0.00  0.00    +0.000 C 
BRANCH  18  19
ATOM     19  C   UNL     1       9.261   9.618  18.456  0.00  0.00    +0.000 C 
BRANCH  19  25
ATOM     20  C   UNL     1       9.225  12.631  17.731  0.00  0.00    +0.000 C 
ATOM     21  N   UNL     1       9.211  12.077  19.058  0.00  0.00    +0.000 N 
ATOM     22  C   UNL     1       9.208  12.782  20.220  0.00  0.00    +0.000 A 
ATOM     23  N   UNL     1       9.196  11.952  21.236  0.00  0.00    +0.000 NA
ATOM     24  N   UNL     1       9.202  10.676  20.728  0.00  0.00    +0.000 NA
ATOM     25  C   UNL     1       9.209  10.754  19.416  0.00  0.00    +0.000 A 
ENDBRANCH  19  25
ENDBRANCH  18  19
ENDBRANCH  12  18
ENDBRANCH   1  16
BRANCH   9  26
ATOM     26  C   UNL     1       3.087   7.433  18.236  0.00  0.00    +0.000 C 
ATOM     27  F   UNL     1       2.127   7.974  17.440  0.00  0.00    +0.000 F 
ATOM     28  F   UNL     1       2.671   7.650  19.514  0.00  0.00    +0.000 F 
ATOM     29  F   UNL     1       4.195   8.204  18.066  0.00  0.00    +0.000 F 
ENDBRANCH   9  26
TORSDOF 5
ENDMDL
MODEL 7
REMARK VINA RESULT:      -8.4      4.685      6.500
REMARK  Name = 
REMARK  6 active torsions:
REMARK  status: ('A' for Active; 'I' for Inactive)
REMARK    1  A    between atoms: C_1  and  N_2
REMARK    2  A    between atoms: C_6  and  C_7
REMARK    3  A    between atoms: C_7  and  C_8
REMARK    4  A    between atoms: C_8  and  C_9
REMARK    5  A    between atoms: C_13  and  N_14
REMARK    6  A    between atoms: C_22  and  C_23
REMARK                            x       y       z     vdW  Elec       q    Type
REMARK                         _______ _______ _______ _____ _____    ______ ____
ROOT
ATOM      1  N   UNL     1       5.805   5.858  15.816  0.00  0.00    +0.000 N 
ATOM      2  C   UNL     1       4.646   6.348  16.600  0.00  0.00    +0.000 C 
ATOM      3  C   UNL     1       4.097   5.073  17.170  0.00  0.00    +0.000 A 
ATOM      4  C   UNL     1       4.440   4.040  16.289  0.00  0.00    +0.000 A 
ATOM      5  C   UNL     1       4.242   2.704  16.569  0.00  0.00    +0.000 A 
ATOM      6  C   UNL     1       3.692   2.414  17.808  0.00  0.00    +0.000 A 
ATOM      7  F   UNL     1       3.564   1.134  18.181  0.00  0.00    +0.000 F 
ATOM      8  C   UNL     1       3.350   3.424  18.721  0.00  0.00    +0.000 A 
ATOM      9  C   UNL     1       3.548   4.786  18.416  0.00  0.00    +0.000 A 
ATOM     10  C   UNL     1       5.410   4.594  15.316  0.00  0.00    +0.000 C 
ATOM     11  O   UNL     1       5.909   3.945  14.412  0.00  0.00    +0.000 OA
ENDROOT
BRANCH   1  16
ATOM     12  C   UNL     1       8.025   7.225  18.363  0.00  0.00    +0.000 A 
ATOM     13  C   UNL     1       8.105   6.089  19.178  0.00  0.00    +0.000 A 
ATOM     14  C   UNL     1       7.832   4.827  18.661  0.00  0.00    +0.000 A 
ATOM     15  C   UNL     1       7.349   4.704  17.364  0.00  0.00    +0.000 A 
ATOM     16  C   UNL     1       7.007   5.860  16.645  0.00  0.00    +0.000 A 
ATOM     17  C   UNL     1       7.496   7.098  17.075  0.00  0.00    +0.000 A 
BRANCH  12  18
ATOM     18  C   UNL     1       8.386   8.586  18.908  0.00  0.00    +0.000 C 
BRANCH  18  19
ATOM     19  C   UNL     1       8.466   9.635  17.800  0.00  0.00    +0.000 C 
BRANCH  19  25
ATOM     20  C   UNL     1       7.647  12.545  17.118  0.00  0.00    +0.000 C 
ATOM     21  N   UNL     1       8.768  12.146  17.925  0.00  0.00    +0.000 N 
ATOM     22  C   UNL     1       9.674  12.977  18.504  0.00  0.00    +0.000 A 
ATOM     23  N   UNL     1      10.559  12.269  19.164  0.00  0.00    +0.000 NA
ATOM     24  N   UNL     1      10.231  10.945  19.007  0.00  0.00    +0.000 NA
ATOM     25  C   UNL     1       9.150  10.874  18.262  0.00  0.00    +0.000 A 
ENDBRANCH  19  25
ENDBRANCH  18  19
ENDBRANCH  12  18
ENDBRANCH   1  16
BRANCH   9  26
ATOM     26  C   UNL     1       3.278   5.824  19.476  0.00  0.00    +0.000 C 
ATOM     27  F   UNL     1       2.657   5.340  20.584  0.00  0.00    +0.000 F 
ATOM     28  F   UNL     1       4.423   6.409  19.920  0.00  0.00    +0.000 F 
ATOM     29  F   UNL     1       2.493   6.836  19.018  0.00  0.00    +0.000 F 
ENDBRANCH   9  26
TORSDOF 5
ENDMDL
MODEL 8
REMARK VINA RESULT:      -8.3      1.027      1.210
REMARK  Name = 
REMARK  6 active torsions:
REMARK  status: ('A' for Active; 'I' for Inactive)
REMARK    1  A    between atoms: C_1  and  N_2
REMARK    2  A    between atoms: C_6  and  C_7
REMARK    3  A    between atoms: C_7  and  C_8
REMARK    4  A    between atoms: C_8  and  C_9
REMARK    5  A    between atoms: C_13  and  N_14
REMARK    6  A    between atoms: C_22  and  C_23
REMARK                            x       y       z     vdW  Elec       q    Type
REMARK                         _______ _______ _______ _____ _____    ______ ____
ROOT
ATOM      1  N   UNL     1       2.934   3.953  19.101  0.00  0.00    +0.000 N 
ATOM      2  C   UNL     1       4.343   4.139  19.523  0.00  0.00    +0.000 C 
ATOM      3  C   UNL     1       5.064   4.131  18.207  0.00  0.00    +0.000 A 
ATOM      4  C   UNL     1       4.300   3.366  17.317  0.00  0.00    +0.000 A 
ATOM      5  C   UNL     1       4.571   3.272  15.968  0.00  0.00    +0.000 A 
ATOM      6  C   UNL     1       5.652   4.008  15.509  0.00  0.00    +0.000 A 
ATOM      7  F   UNL     1       5.910   4.037  14.195  0.00  0.00    +0.000 F 
ATOM      8  C   UNL     1       6.430   4.796  16.370  0.00  0.00    +0.000 A 
ATOM      9  C   UNL     1       6.147   4.874  17.750  0.00  0.00    +0.000 A 
ATOM     10  C   UNL     1       2.993   3.109  17.965  0.00  0.00    +0.000 C 
ATOM     11  O   UNL     1       2.093   2.469  17.448  0.00  0.00    +0.000 OA
ENDROOT
BRANCH   1  16
ATOM     12  C   UNL     1       1.962   7.325  20.089  0.00  0.00    +0.000 A 
ATOM     13  C   UNL     1       2.517   8.011  19.001  0.00  0.00    +0.000 A 
ATOM     14  C   UNL     1       2.766   7.352  17.803  0.00  0.00    +0.000 A 
ATOM     15  C   UNL     1       2.588   5.976  17.723  0.00  0.00    +0.000 A 
ATOM     16  C   UNL     1       2.300   5.251  18.890  0.00  0.00    +0.000 A 
ATOM     17  C   UNL     1       1.829   5.934  20.016  0.00  0.00    +0.000 A 
BRANCH  12  18
ATOM     18  C   UNL     1       1.631   8.055  21.369  0.00  0.00    +0.000 C 
BRANCH  18  19
ATOM     19  C   UNL     1       0.125   8.257  21.530  0.00  0.00    +0.000 C 
BRANCH  19  25
ATOM     20  C   UNL     1      -0.666  10.608  19.673  0.00  0.00    +0.000 C 
ATOM     21  N   UNL     1      -0.533  10.664  21.104  0.00  0.00    +0.000 N 
ATOM     22  C   UNL     1      -0.706  11.765  21.882  0.00  0.00    +0.000 A 
ATOM     23  N   UNL     1      -0.505  11.450  23.139  0.00  0.00    +0.000 NA
ATOM     24  N   UNL     1      -0.183  10.115  23.184  0.00  0.00    +0.000 NA
ATOM     25  C   UNL     1      -0.203   9.644  21.957  0.00  0.00    +0.000 A 
ENDBRANCH  19  25
ENDBRANCH  18  19
ENDBRANCH  12  18
ENDBRANCH   1  16
BRANCH   9  26
ATOM     26  C   UNL     1       6.937   5.828  18.610  0.00  0.00    +0.000 C 
ATOM     27  F   UNL     1       6.523   5.885  19.903  0.00  0.00    +0.000 F 
ATOM     28  F   UNL     1       8.256   5.499  18.658  0.00  0.00    +0.000 F 
ATOM     29  F   UNL     1       6.886   7.106  18.143  0.00  0.00    +0.000 F 
ENDBRANCH   9  26
TORSDOF 5
ENDMDL
MODEL 9
REMARK VINA RESULT:      -8.3      3.740      5.113
REMARK  Name = 
REMARK  6 active torsions:
REMARK  status: ('A' for Active; 'I' for Inactive)
REMARK    1  A    between atoms: C_1  and  N_2
REMARK    2  A    between atoms: C_6  and  C_7
REMARK    3  A    between atoms: C_7  and  C_8
REMARK    4  A    between atoms: C_8  and  C_9
REMARK    5  A    between atoms: C_13  and  N_14
REMARK    6  A    between atoms: C_22  and  C_23
REMARK                            x       y       z     vdW  Elec       q    Type
REMARK                         _______ _______ _______ _____ _____    ______ ____
ROOT
ATOM      1  N   UNL     1       2.858   5.908  17.457  0.00  0.00    +0.000 N 
ATOM      2  C   UNL     1       1.824   4.883  17.737  0.00  0.00    +0.000 C 
ATOM      3  C   UNL     1       2.583   3.902  18.583  0.00  0.00    +0.000 A 
ATOM      4  C   UNL     1       3.932   3.998  18.224  0.00  0.00    +0.000 A 
ATOM      5  C   UNL     1       4.947   3.361  18.907  0.00  0.00    +0.000 A 
ATOM      6  C   UNL     1       4.568   2.616  20.012  0.00  0.00    +0.000 A 
ATOM      7  F   UNL     1       5.514   2.052  20.774  0.00  0.00    +0.000 F 
ATOM      8  C   UNL     1       3.226   2.510  20.408  0.00  0.00    +0.000 A 
ATOM      9  C   UNL     1       2.197   3.159  19.694  0.00  0.00    +0.000 A 
ATOM     10  C   UNL     1       4.076   5.193  17.361  0.00  0.00    +0.000 C 
ATOM     11  O   UNL     1       5.135   5.559  16.879  0.00  0.00    +0.000 OA
ENDROOT
BRANCH   1  16
ATOM     12  C   UNL     1       1.664   9.034  18.901  0.00  0.00    +0.000 A 
ATOM     13  C   UNL     1       1.278   8.534  20.150  0.00  0.00    +0.000 A 
ATOM     14  C   UNL     1       1.822   7.351  20.637  0.00  0.00    +0.000 A 
ATOM     15  C   UNL     1       2.655   6.590  19.824  0.00  0.00    +0.000 A 
ATOM     16  C   UNL     1       2.817   6.951  18.477  0.00  0.00    +0.000 A 
ATOM     17  C   UNL     1       2.464   8.242  18.072  0.00  0.00    +0.000 A 
BRANCH  12  18
ATOM     18  C   UNL     1       1.122  10.353  18.402  0.00  0.00    +0.000 C 
BRANCH  18  19
ATOM     19  C   UNL     1      -0.128  10.777  19.171  0.00  0.00    +0.000 C 
BRANCH  19  25
ATOM     20  C   UNL     1      -2.788  12.305  19.612  0.00  0.00    +0.000 C 
ATOM     21  N   UNL     1      -2.519  11.352  18.568  0.00  0.00    +0.000 N 
ATOM     22  C   UNL     1      -3.395  10.941  17.614  0.00  0.00    +0.000 A 
ATOM     23  N   UNL     1      -2.811  10.067  16.830  0.00  0.00    +0.000 NA
ATOM     24  N   UNL     1      -1.527   9.894  17.287  0.00  0.00    +0.000 NA
ATOM     25  C   UNL     1      -1.354  10.672  18.333  0.00  0.00    +0.000 A 
ENDBRANCH  19  25
ENDBRANCH  18  19
ENDBRANCH  12  18
ENDBRANCH   1  16
BRANCH   9  26
ATOM     26  C   UNL     1       0.789   3.114  20.230  0.00  0.00    +0.000 C 
ATOM     27  F   UNL     1      -0.091   2.456  19.429  0.00  0.00    +0.000 F 
ATOM     28  F   UNL     1       0.722   2.493  21.439  0.00  0.00    +0.000 F 
ATOM     29  F   UNL     1       0.268   4.357  20.417  0.00  0.00    +0.000 F 
ENDBRANCH   9  26
TORSDOF 5
ENDMDL
