MODEL 1
REMARK VINA RESULT:      -9.5      0.000      0.000
REMARK  Name = 
REMARK  4 active torsions:
REMARK  status: ('A' for Active; 'I' for Inactive)
REMARK    1  A    between atoms: C_4  and  C_5
REMARK    2  A    between atoms: N_7  and  C_8
REMARK    3  A    between atoms: C_13  and  O_14
REMARK    4  A    between atoms: O_14  and  C_15
REMARK                            x       y       z     vdW  Elec       q    Type
REMARK                         _______ _______ _______ _____ _____    ______ ____
ROOT
ATOM      1  C   UNL     1       4.306   4.921  17.192  0.00  0.00    +0.000 C 
ATOM      2  O   UNL     1       3.232   4.524  16.739  0.00  0.00    +0.000 OA
ATOM      3  N   UNL     1       4.461   6.025  18.012  0.00  0.00    +0.000 N 
ATOM      4  H   UNL     1       5.366   6.471  17.933  0.00  0.00    +0.000 HD
ENDROOT
BRANCH   1   8
ATOM      5  O   UNL     1       7.718   6.790  18.161  0.00  0.00    +0.000 OA
ATOM      6  C   UNL     1       7.365   5.913  17.380  0.00  0.00    +0.000 C 
ATOM      7  C   UNL     1       6.709   4.630  17.829  0.00  0.00    +0.000 C 
ATOM      8  C   UNL     1       5.611   4.182  16.869  0.00  0.00    +0.000 C 
ATOM      9  C   UNL     1       6.059   4.283  15.419  0.00  0.00    +0.000 A 
ATOM     10  C   UNL     1       5.459   3.512  14.414  0.00  0.00    +0.000 A 
ATOM     11  C   UNL     1       5.900   3.617  13.093  0.00  0.00    +0.000 A 
ATOM     12  C   UNL     1       6.937   4.485  12.775  0.00  0.00    +0.000 A 
ATOM     13  F   UNL     1       7.366   4.575  11.509  0.00  0.00    +0.000 F 
ATOM     14  C   UNL     1       7.534   5.272  13.752  0.00  0.00    +0.000 A 
ATOM     15  C   UNL     1       7.087   5.171  15.070  0.00  0.00    +0.000 A 
ATOM     16  N   UNL     1       7.631   6.012  16.041  0.00  0.00    +0.000 N 
ATOM     17  H   UNL     1       8.229   6.786  15.772  0.00  0.00    +0.000 HD
ENDBRANCH   1   8
BRANCH   3  18
ATOM     18  C   UNL     1       3.404   6.890  18.373  0.00  0.00    +0.000 A 
ATOM     19  C   UNL     1       3.230   8.004  17.536  0.00  0.00    +0.000 A 
ATOM     20  C   UNL     1       2.228   8.941  17.786  0.00  0.00    +0.000 A 
ATOM     21  C   UNL     1       1.381   8.773  18.873  0.00  0.00    +0.000 A 
ATOM     22  C   UNL     1       1.542   7.673  19.714  0.00  0.00    +0.000 A 
ATOM     23  C   UNL     1       2.589   6.753  19.512  0.00  0.00    +0.000 A 
BRANCH  23  24
ATOM     24  O   UNL     1       2.865   5.766  20.449  0.00  0.00    +0.000 OA
BRANCH  24  25
ATOM     25  C   UNL     1       2.643   4.450  20.078  0.00  0.00    +0.000 A 
ATOM     26  C   UNL     1       3.718   3.559  20.162  0.00  0.00    +0.000 A 
ATOM     27  C   UNL     1       3.551   2.246  19.723  0.00  0.00    +0.000 A 
ATOM     28  F   UNL     1       4.585   1.395  19.776  0.00  0.00    +0.000 F 
ATOM     29  C   UNL     1       2.342   1.803  19.198  0.00  0.00    +0.000 A 
ATOM     30  C   UNL     1       1.272   2.685  19.161  0.00  0.00    +0.000 A 
ATOM     31  F   UNL     1       0.104   2.283  18.642  0.00  0.00    +0.000 F 
ATOM     32  C   UNL     1       1.398   3.993  19.623  0.00  0.00    +0.000 A 
ENDBRANCH  24  25
ENDBRANCH  23  24
ENDBRANCH   3  18
TORSDOF 4
ENDMDL
MODEL 2
REMARK VINA RESULT:      -9.2      2.246      3.921
REMARK  Name = 
REMARK  4 active torsions:
REMARK  status: ('A' for Active; 'I' for Inactive)
REMARK    1  A    between atoms: C_4  and  C_5
REMARK    2  A    between atoms: N_7  and  C_8
REMARK    3  A    between atoms: C_13  and  O_14
REMARK    4  A    between atoms: O_14  and  C_15
REMARK                            x       y       z     vdW  Elec       q    Type
REMARK                         _______ _______ _______ _____ _____    ______ ____
ROOT
ATOM      1  C   UNL     1       4.743   4.008  17.065  0.00  0.00    +0.000 C 
ATOM      2  O   UNL     1       4.082   4.902  16.538  0.00  0.00    +0.000 OA
ATOM      3  N   UNL     1       4.279   3.152  18.048  0.00  0.00    +0.000 N 
ATOM      4  H   UNL     1       5.002   2.807  18.667  0.00  0.00    +0.000 HD
ENDROOT
BRANCH   1   8
ATOM      5  O   UNL     1       7.413   6.814  18.101  0.00  0.00    +0.000 OA
ATOM      6  C   UNL     1       7.322   5.929  17.257  0.00  0.00    +0.000 C 
ATOM      7  C   UNL     1       7.141   4.473  17.611  0.00  0.00    +0.000 C 
ATOM      8  C   UNL     1       6.198   3.762  16.646  0.00  0.00    +0.000 C 
ATOM      9  C   UNL     1       6.512   4.108  15.199  0.00  0.00    +0.000 A 
ATOM     10  C   UNL     1       6.142   3.259  14.147  0.00  0.00    +0.000 A 
ATOM     11  C   UNL     1       6.455   3.598  12.828  0.00  0.00    +0.000 A 
ATOM     12  C   UNL     1       7.137   4.778  12.559  0.00  0.00    +0.000 A 
ATOM     13  F   UNL     1       7.446   5.095  11.295  0.00  0.00    +0.000 F 
ATOM     14  C   UNL     1       7.497   5.644  13.585  0.00  0.00    +0.000 A 
ATOM     15  C   UNL     1       7.178   5.307  14.899  0.00  0.00    +0.000 A 
ATOM     16  N   UNL     1       7.470   6.207  15.925  0.00  0.00    +0.000 N 
ATOM     17  H   UNL     1       7.771   7.151  15.708  0.00  0.00    +0.000 HD
ENDBRANCH   1   8
BRANCH   3  18
ATOM     18  C   UNL     1       2.996   3.249  18.633  0.00  0.00    +0.000 A 
ATOM     19  C   UNL     1       2.114   2.205  18.315  0.00  0.00    +0.000 A 
ATOM     20  C   UNL     1       0.814   2.184  18.819  0.00  0.00    +0.000 A 
ATOM     21  C   UNL     1       0.381   3.204  19.656  0.00  0.00    +0.000 A 
ATOM     22  C   UNL     1       1.246   4.249  19.979  0.00  0.00    +0.000 A 
ATOM     23  C   UNL     1       2.539   4.317  19.427  0.00  0.00    +0.000 A 
BRANCH  23  24
ATOM     24  O   UNL     1       3.331   5.444  19.598  0.00  0.00    +0.000 OA
BRANCH  24  25
ATOM     25  C   UNL     1       2.710   6.681  19.530  0.00  0.00    +0.000 A 
ATOM     26  C   UNL     1       2.061   7.147  20.678  0.00  0.00    +0.000 A 
ATOM     27  C   UNL     1       1.358   8.350  20.622  0.00  0.00    +0.000 A 
ATOM     28  F   UNL     1       0.711   8.790  21.711  0.00  0.00    +0.000 F 
ATOM     29  C   UNL     1       1.285   9.096  19.450  0.00  0.00    +0.000 A 
ATOM     30  C   UNL     1       1.970   8.643  18.332  0.00  0.00    +0.000 A 
ATOM     31  F   UNL     1       1.896   9.337  17.188  0.00  0.00    +0.000 F 
ATOM     32  C   UNL     1       2.707   7.462  18.366  0.00  0.00    +0.000 A 
ENDBRANCH  24  25
ENDBRANCH  23  24
ENDBRANCH   3  18
TORSDOF 4
ENDMDL
MODEL 3
REMARK VINA RESULT:      -9.2      2.277      3.963
REMARK  Name = 
REMARK  4 active torsions:
REMARK  status: ('A' for Active; 'I' for Inactive)
REMARK    1  A    between atoms: C_4  and  C_5
REMARK    2  A    between atoms: N_7  and  C_8
REMARK    3  A    between atoms: C_13  and  O_14
REMARK    4  A    between atoms: O_14  and  C_15
REMARK                            x       y       z     vdW  Elec       q    Type
REMARK                         _______ _______ _______ _____ _____    ______ ____
ROOT
ATOM      1  C   UNL     1       4.745   3.955  17.056  0.00  0.00    +0.000 C 
ATOM      2  O   UNL     1       4.043   4.779  16.471  0.00  0.00    +0.000 OA
ATOM      3  N   UNL     1       4.322   3.149  18.097  0.00  0.00    +0.000 N 
ATOM      4  H   UNL     1       5.060   2.880  18.735  0.00  0.00    +0.000 HD
ENDROOT
BRANCH   1   8
ATOM      5  O   UNL     1       7.337   6.813  18.144  0.00  0.00    +0.000 OA
ATOM      6  C   UNL     1       7.275   5.934  17.292  0.00  0.00    +0.000 C 
ATOM      7  C   UNL     1       7.126   4.471  17.631  0.00  0.00    +0.000 C 
ATOM      8  C   UNL     1       6.210   3.747  16.649  0.00  0.00    +0.000 C 
ATOM      9  C   UNL     1       6.530   4.115  15.208  0.00  0.00    +0.000 A 
ATOM     10  C   UNL     1       6.190   3.267  14.145  0.00  0.00    +0.000 A 
ATOM     11  C   UNL     1       6.508   3.627  12.833  0.00  0.00    +0.000 A 
ATOM     12  C   UNL     1       7.164   4.824  12.582  0.00  0.00    +0.000 A 
ATOM     13  F   UNL     1       7.478   5.161  11.324  0.00  0.00    +0.000 F 
ATOM     14  C   UNL     1       7.493   5.689  13.619  0.00  0.00    +0.000 A 
ATOM     15  C   UNL     1       7.169   5.332  14.927  0.00  0.00    +0.000 A 
ATOM     16  N   UNL     1       7.430   6.228  15.964  0.00  0.00    +0.000 N 
ATOM     17  H   UNL     1       7.711   7.181  15.758  0.00  0.00    +0.000 HD
ENDBRANCH   1   8
BRANCH   3  18
ATOM     18  C   UNL     1       3.036   3.227  18.678  0.00  0.00    +0.000 A 
ATOM     19  C   UNL     1       2.194   2.134  18.417  0.00  0.00    +0.000 A 
ATOM     20  C   UNL     1       0.896   2.090  18.924  0.00  0.00    +0.000 A 
ATOM     21  C   UNL     1       0.424   3.135  19.707  0.00  0.00    +0.000 A 
ATOM     22  C   UNL     1       1.248   4.227  19.974  0.00  0.00    +0.000 A 
ATOM     23  C   UNL     1       2.538   4.316  19.417  0.00  0.00    +0.000 A 
BRANCH  23  24
ATOM     24  O   UNL     1       3.287   5.480  19.528  0.00  0.00    +0.000 OA
BRANCH  24  25
ATOM     25  C   UNL     1       2.602   6.685  19.522  0.00  0.00    +0.000 A 
ATOM     26  C   UNL     1       2.602   7.427  18.337  0.00  0.00    +0.000 A 
ATOM     27  C   UNL     1       1.990   8.681  18.318  0.00  0.00    +0.000 A 
ATOM     28  F   UNL     1       2.010   9.409  17.193  0.00  0.00    +0.000 F 
ATOM     29  C   UNL     1       1.385   9.211  19.452  0.00  0.00    +0.000 A 
ATOM     30  C   UNL     1       1.355   8.445  20.608  0.00  0.00    +0.000 A 
ATOM     31  F   UNL     1       0.793   8.946  21.717  0.00  0.00    +0.000 F 
ATOM     32  C   UNL     1       1.929   7.176  20.648  0.00  0.00    +0.000 A 
ENDBRANCH  24  25
ENDBRANCH  23  24
ENDBRANCH   3  18
TORSDOF 4
ENDMDL
MODEL 4
REMARK VINA RESULT:      -9.1      1.027      1.034
REMARK  Name = 
REMARK  4 active torsions:
REMARK  status: ('A' for Active; 'I' for Inactive)
REMARK    1  A    between atoms: C_4  and  C_5
REMARK    2  A    between atoms: N_7  and  C_8
REMARK    3  A    between atoms: C_13  and  O_14
REMARK    4  A    between atoms: O_14  and  C_15
REMARK                            x       y       z     vdW  Elec       q    Type
REMARK                         _______ _______ _______ _____ _____    ______ ____
ROOT
ATOM      1  C   UNL     1       4.328   4.951  17.280  0.00  0.00    +0.000 C 
ATOM      2  O   UNL     1       3.246   4.506  16.895  0.00  0.00    +0.000 OA
ATOM      3  N   UNL     1       4.492   6.109  18.018  0.00  0.00    +0.000 N 
ATOM      4  H   UNL     1       5.384   6.564  17.876  0.00  0.00    +0.000 HD
ENDROOT
BRANCH   1   8
ATOM      5  O   UNL     1       7.737   6.853  18.190  0.00  0.00    +0.000 OA
ATOM      6  C   UNL     1       7.382   5.961  17.427  0.00  0.00    +0.000 C 
ATOM      7  C   UNL     1       6.737   4.683  17.903  0.00  0.00    +0.000 C 
ATOM      8  C   UNL     1       5.634   4.214  16.959  0.00  0.00    +0.000 C 
ATOM      9  C   UNL     1       6.070   4.292  15.504  0.00  0.00    +0.000 A 
ATOM     10  C   UNL     1       5.466   3.502  14.517  0.00  0.00    +0.000 A 
ATOM     11  C   UNL     1       5.896   3.587  13.190  0.00  0.00    +0.000 A 
ATOM     12  C   UNL     1       6.926   4.454  12.850  0.00  0.00    +0.000 A 
ATOM     13  F   UNL     1       7.344   4.526  11.579  0.00  0.00    +0.000 F 
ATOM     14  C   UNL     1       7.526   5.261  13.809  0.00  0.00    +0.000 A 
ATOM     15  C   UNL     1       7.090   5.180  15.131  0.00  0.00    +0.000 A 
ATOM     16  N   UNL     1       7.637   6.040  16.084  0.00  0.00    +0.000 N 
ATOM     17  H   UNL     1       8.229   6.812  15.797  0.00  0.00    +0.000 HD
ENDBRANCH   1   8
BRANCH   3  18
ATOM     18  C   UNL     1       3.432   6.980  18.360  0.00  0.00    +0.000 A 
ATOM     19  C   UNL     1       3.244   8.064  17.489  0.00  0.00    +0.000 A 
ATOM     20  C   UNL     1       2.238   9.003  17.716  0.00  0.00    +0.000 A 
ATOM     21  C   UNL     1       1.401   8.866  18.815  0.00  0.00    +0.000 A 
ATOM     22  C   UNL     1       1.576   7.794  19.690  0.00  0.00    +0.000 A 
ATOM     23  C   UNL     1       2.627   6.875  19.509  0.00  0.00    +0.000 A 
BRANCH  23  24
ATOM     24  O   UNL     1       2.917   5.921  20.476  0.00  0.00    +0.000 OA
BRANCH  24  25
ATOM     25  C   UNL     1       2.223   4.723  20.422  0.00  0.00    +0.000 A 
ATOM     26  C   UNL     1       2.271   3.892  21.546  0.00  0.00    +0.000 A 
ATOM     27  C   UNL     1       1.650   2.644  21.498  0.00  0.00    +0.000 A 
ATOM     28  F   UNL     1       1.715   1.832  22.563  0.00  0.00    +0.000 F 
ATOM     29  C   UNL     1       0.987   2.205  20.357  0.00  0.00    +0.000 A 
ATOM     30  C   UNL     1       0.911   3.058  19.265  0.00  0.00    +0.000 A 
ATOM     31  F   UNL     1       0.294   2.646  18.149  0.00  0.00    +0.000 F 
ATOM     32  C   UNL     1       1.493   4.322  19.294  0.00  0.00    +0.000 A 
ENDBRANCH  24  25
ENDBRANCH  23  24
ENDBRANCH   3  18
TORSDOF 4
ENDMDL
MODEL 5
REMARK VINA RESULT:      -9.1      0.071      1.501
REMARK  Name = 
REMARK  4 active torsions:
REMARK  status: ('A' for Active; 'I' for Inactive)
REMARK    1  A    between atoms: C_4  and  C_5
REMARK    2  A    between atoms: N_7  and  C_8
REMARK    3  A    between atoms: C_13  and  O_14
REMARK    4  A    between atoms: O_14  and  C_15
REMARK                            x       y       z     vdW  Elec       q    Type
REMARK                         _______ _______ _______ _____ _____    ______ ____
ROOT
ATOM      1  C   UNL     1       4.329   4.978  17.184  0.00  0.00    +0.000 C 
ATOM      2  O   UNL     1       3.266   4.590  16.700  0.00  0.00    +0.000 OA
ATOM      3  N   UNL     1       4.466   6.065  18.029  0.00  0.00    +0.000 N 
ATOM      4  H   UNL     1       5.372   6.512  17.979  0.00  0.00    +0.000 HD
ENDROOT
BRANCH   1   8
ATOM      5  O   UNL     1       7.723   6.899  18.112  0.00  0.00    +0.000 OA
ATOM      6  C   UNL     1       7.378   6.003  17.349  0.00  0.00    +0.000 C 
ATOM      7  C   UNL     1       6.735   4.723  17.824  0.00  0.00    +0.000 C 
ATOM      8  C   UNL     1       5.640   4.246  16.874  0.00  0.00    +0.000 C 
ATOM      9  C   UNL     1       6.086   4.323  15.422  0.00  0.00    +0.000 A 
ATOM     10  C   UNL     1       5.493   3.527  14.432  0.00  0.00    +0.000 A 
ATOM     11  C   UNL     1       5.932   3.611  13.109  0.00  0.00    +0.000 A 
ATOM     12  C   UNL     1       6.960   4.482  12.773  0.00  0.00    +0.000 A 
ATOM     13  F   UNL     1       7.387   4.552  11.505  0.00  0.00    +0.000 F 
ATOM     14  C   UNL     1       7.550   5.294  13.734  0.00  0.00    +0.000 A 
ATOM     15  C   UNL     1       7.106   5.214  15.054  0.00  0.00    +0.000 A 
ATOM     16  N   UNL     1       7.642   6.079  16.008  0.00  0.00    +0.000 N 
ATOM     17  H   UNL     1       8.232   6.853  15.723  0.00  0.00    +0.000 HD
ENDBRANCH   1   8
BRANCH   3  18
ATOM     18  C   UNL     1       3.401   6.923  18.386  0.00  0.00    +0.000 A 
ATOM     19  C   UNL     1       3.239   8.048  17.563  0.00  0.00    +0.000 A 
ATOM     20  C   UNL     1       2.231   8.980  17.809  0.00  0.00    +0.000 A 
ATOM     21  C   UNL     1       1.366   8.794  18.879  0.00  0.00    +0.000 A 
ATOM     22  C   UNL     1       1.515   7.681  19.706  0.00  0.00    +0.000 A 
ATOM     23  C   UNL     1       2.567   6.766  19.508  0.00  0.00    +0.000 A 
BRANCH  23  24
ATOM     24  O   UNL     1       2.830   5.766  20.434  0.00  0.00    +0.000 OA
BRANCH  24  25
ATOM     25  C   UNL     1       2.722   4.452  20.007  0.00  0.00    +0.000 A 
ATOM     26  C   UNL     1       1.485   4.028  19.512  0.00  0.00    +0.000 A 
ATOM     27  C   UNL     1       1.320   2.692  19.148  0.00  0.00    +0.000 A 
ATOM     28  F   UNL     1       0.128   2.272  18.698  0.00  0.00    +0.000 F 
ATOM     29  C   UNL     1       2.355   1.771  19.268  0.00  0.00    +0.000 A 
ATOM     30  C   UNL     1       3.589   2.217  19.719  0.00  0.00    +0.000 A 
ATOM     31  F   UNL     1       4.594   1.342  19.860  0.00  0.00    +0.000 F 
ATOM     32  C   UNL     1       3.794   3.551  20.060  0.00  0.00    +0.000 A 
ENDBRANCH  24  25
ENDBRANCH  23  24
ENDBRANCH   3  18
TORSDOF 4
ENDMDL
MODEL 6
REMARK VINA RESULT:      -8.8      1.062      1.081
REMARK  Name = 
REMARK  4 active torsions:
REMARK  status: ('A' for Active; 'I' for Inactive)
REMARK    1  A    between atoms: C_4  and  C_5
REMARK    2  A    between atoms: N_7  and  C_8
REMARK    3  A    between atoms: C_13  and  O_14
REMARK    4  A    between atoms: O_14  and  C_15
REMARK                            x       y       z     vdW  Elec       q    Type
REMARK                         _______ _______ _______ _____ _____    ______ ____
ROOT
ATOM      1  C   UNL     1       4.417   5.963  17.551  0.00  0.00    +0.000 C 
ATOM      2  O   UNL     1       5.018   7.006  17.293  0.00  0.00    +0.000 OA
ATOM      3  N   UNL     1       3.183   5.891  18.171  0.00  0.00    +0.000 N 
ATOM      4  H   UNL     1       3.036   5.039  18.696  0.00  0.00    +0.000 HD
ENDROOT
BRANCH   1   8
ATOM      5  O   UNL     1       8.116   5.208  18.900  0.00  0.00    +0.000 OA
ATOM      6  C   UNL     1       7.393   4.812  17.992  0.00  0.00    +0.000 C 
ATOM      7  C   UNL     1       6.042   4.186  18.234  0.00  0.00    +0.000 C 
ATOM      8  C   UNL     1       5.021   4.603  17.180  0.00  0.00    +0.000 C 
ATOM      9  C   UNL     1       5.601   4.523  15.776  0.00  0.00    +0.000 A 
ATOM     10  C   UNL     1       4.777   4.382  14.652  0.00  0.00    +0.000 A 
ATOM     11  C   UNL     1       5.339   4.300  13.376  0.00  0.00    +0.000 A 
ATOM     12  C   UNL     1       6.718   4.355  13.221  0.00  0.00    +0.000 A 
ATOM     13  F   UNL     1       7.256   4.264  11.998  0.00  0.00    +0.000 F 
ATOM     14  C   UNL     1       7.554   4.513  14.320  0.00  0.00    +0.000 A 
ATOM     15  C   UNL     1       6.990   4.602  15.593  0.00  0.00    +0.000 A 
ATOM     16  N   UNL     1       7.818   4.836  16.691  0.00  0.00    +0.000 N 
ATOM     17  H   UNL     1       8.791   5.087  16.555  0.00  0.00    +0.000 HD
ENDBRANCH   1   8
BRANCH   3  18
ATOM     18  C   UNL     1       2.483   7.017  18.662  0.00  0.00    +0.000 A 
ATOM     19  C   UNL     1       2.342   8.077  17.753  0.00  0.00    +0.000 A 
ATOM     20  C   UNL     1       1.680   9.250  18.113  0.00  0.00    +0.000 A 
ATOM     21  C   UNL     1       1.143   9.376  19.388  0.00  0.00    +0.000 A 
ATOM     22  C   UNL     1       1.276   8.332  20.302  0.00  0.00    +0.000 A 
ATOM     23  C   UNL     1       1.997   7.168  19.974  0.00  0.00    +0.000 A 
BRANCH  23  24
ATOM     24  O   UNL     1       2.289   6.212  20.937  0.00  0.00    +0.000 OA
BRANCH  24  25
ATOM     25  C   UNL     1       2.177   4.879  20.572  0.00  0.00    +0.000 A 
ATOM     26  C   UNL     1       3.314   4.074  20.692  0.00  0.00    +0.000 A 
ATOM     27  C   UNL     1       3.259   2.749  20.260  0.00  0.00    +0.000 A 
ATOM     28  F   UNL     1       4.354   1.979  20.347  0.00  0.00    +0.000 F 
ATOM     29  C   UNL     1       2.101   2.211  19.709  0.00  0.00    +0.000 A 
ATOM     30  C   UNL     1       0.969   3.009  19.636  0.00  0.00    +0.000 A 
ATOM     31  F   UNL     1      -0.152   2.515  19.092  0.00  0.00    +0.000 F 
ATOM     32  C   UNL     1       0.983   4.326  20.090  0.00  0.00    +0.000 A 
ENDBRANCH  24  25
ENDBRANCH  23  24
ENDBRANCH   3  18
TORSDOF 4
ENDMDL
MODEL 7
REMARK VINA RESULT:      -8.8      1.095      1.515
REMARK  Name = 
REMARK  4 active torsions:
REMARK  status: ('A' for Active; 'I' for Inactive)
REMARK    1  A    between atoms: C_4  and  C_5
REMARK    2  A    between atoms: N_7  and  C_8
REMARK    3  A    between atoms: C_13  and  O_14
REMARK    4  A    between atoms: O_14  and  C_15
REMARK                            x       y       z     vdW  Elec       q    Type
REMARK                         _______ _______ _______ _____ _____    ______ ____
ROOT
ATOM      1  C   UNL     1       4.389   4.903  17.175  0.00  0.00    +0.000 C 
ATOM      2  O   UNL     1       3.310   4.445  16.800  0.00  0.00    +0.000 OA
ATOM      3  N   UNL     1       4.545   6.057  17.922  0.00  0.00    +0.000 N 
ATOM      4  H   UNL     1       5.429   6.527  17.773  0.00  0.00    +0.000 HD
ENDROOT
BRANCH   1   8
ATOM      5  O   UNL     1       7.781   6.842  18.077  0.00  0.00    +0.000 OA
ATOM      6  C   UNL     1       7.431   5.956  17.305  0.00  0.00    +0.000 C 
ATOM      7  C   UNL     1       6.809   4.661  17.769  0.00  0.00    +0.000 C 
ATOM      8  C   UNL     1       5.702   4.189  16.830  0.00  0.00    +0.000 C 
ATOM      9  C   UNL     1       6.122   4.295  15.372  0.00  0.00    +0.000 A 
ATOM     10  C   UNL     1       5.519   3.510  14.380  0.00  0.00    +0.000 A 
ATOM     11  C   UNL     1       5.934   3.620  13.051  0.00  0.00    +0.000 A 
ATOM     12  C   UNL     1       6.947   4.507  12.712  0.00  0.00    +0.000 A 
ATOM     13  F   UNL     1       7.351   4.602  11.438  0.00  0.00    +0.000 F 
ATOM     14  C   UNL     1       7.546   5.309  13.676  0.00  0.00    +0.000 A 
ATOM     15  C   UNL     1       7.125   5.202  15.002  0.00  0.00    +0.000 A 
ATOM     16  N   UNL     1       7.670   6.057  15.961  0.00  0.00    +0.000 N 
ATOM     17  H   UNL     1       8.248   6.841  15.679  0.00  0.00    +0.000 HD
ENDBRANCH   1   8
BRANCH   3  18
ATOM     18  C   UNL     1       3.477   6.908  18.286  0.00  0.00    +0.000 A 
ATOM     19  C   UNL     1       3.236   7.976  17.408  0.00  0.00    +0.000 A 
ATOM     20  C   UNL     1       2.217   8.894  17.655  0.00  0.00    +0.000 A 
ATOM     21  C   UNL     1       1.417   8.752  18.781  0.00  0.00    +0.000 A 
ATOM     22  C   UNL     1       1.645   7.698  19.664  0.00  0.00    +0.000 A 
ATOM     23  C   UNL     1       2.711   6.800  19.462  0.00  0.00    +0.000 A 
BRANCH  23  24
ATOM     24  O   UNL     1       3.053   5.866  20.431  0.00  0.00    +0.000 OA
BRANCH  24  25
ATOM     25  C   UNL     1       2.353   4.670  20.444  0.00  0.00    +0.000 A 
ATOM     26  C   UNL     1       1.722   4.272  19.262  0.00  0.00    +0.000 A 
ATOM     27  C   UNL     1       0.944   3.115  19.261  0.00  0.00    +0.000 A 
ATOM     28  F   UNL     1       0.314   2.742  18.137  0.00  0.00    +0.000 F 
ATOM     29  C   UNL     1       0.777   2.350  20.410  0.00  0.00    +0.000 A 
ATOM     30  C   UNL     1       1.444   2.733  21.565  0.00  0.00    +0.000 A 
ATOM     31  F   UNL     1       1.282   2.020  22.687  0.00  0.00    +0.000 F 
ATOM     32  C   UNL     1       2.255   3.866  21.588  0.00  0.00    +0.000 A 
ENDBRANCH  24  25
ENDBRANCH  23  24
ENDBRANCH   3  18
TORSDOF 4
ENDMDL
MODEL 8
REMARK VINA RESULT:      -8.7      3.383      7.717
REMARK  Name = 
REMARK  4 active torsions:
REMARK  status: ('A' for Active; 'I' for Inactive)
REMARK    1  A    between atoms: C_4  and  C_5
REMARK    2  A    between atoms: N_7  and  C_8
REMARK    3  A    between atoms: C_13  and  O_14
REMARK    4  A    between atoms: O_14  and  C_15
REMARK                            x       y       z     vdW  Elec       q    Type
REMARK                         _______ _______ _______ _____ _____    ______ ____
ROOT
ATOM      1  C   UNL     1       1.376   7.460  20.652  0.00  0.00    +0.000 C 
ATOM      2  O   UNL     1       0.377   6.976  21.182  0.00  0.00    +0.000 OA
ATOM      3  N   UNL     1       2.384   6.732  20.045  0.00  0.00    +0.000 N 
ATOM      4  H   UNL     1       3.288   7.186  20.065  0.00  0.00    +0.000 HD
ENDROOT
BRANCH   1   8
ATOM      5  O   UNL     1       0.235   9.502  23.908  0.00  0.00    +0.000 OA
ATOM      6  C   UNL     1       0.426   9.739  22.721  0.00  0.00    +0.000 C 
ATOM      7  C   UNL     1       1.753   9.508  22.041  0.00  0.00    +0.000 C 
ATOM      8  C   UNL     1       1.584   8.979  20.620  0.00  0.00    +0.000 C 
ATOM      9  C   UNL     1       0.519   9.753  19.858  0.00  0.00    +0.000 A 
ATOM     10  C   UNL     1       0.510   9.797  18.457  0.00  0.00    +0.000 A 
ATOM     11  C   UNL     1      -0.475  10.526  17.784  0.00  0.00    +0.000 A 
ATOM     12  C   UNL     1      -1.444  11.210  18.506  0.00  0.00    +0.000 A 
ATOM     13  F   UNL     1      -2.380  11.917  17.859  0.00  0.00    +0.000 F 
ATOM     14  C   UNL     1      -1.466  11.164  19.894  0.00  0.00    +0.000 A 
ATOM     15  C   UNL     1      -0.487  10.431  20.563  0.00  0.00    +0.000 A 
ATOM     16  N   UNL     1      -0.547  10.321  21.953  0.00  0.00    +0.000 N 
ATOM     17  H   UNL     1      -1.368  10.638  22.457  0.00  0.00    +0.000 HD
ENDBRANCH   1   8
BRANCH   3  18
ATOM     18  C   UNL     1       2.431   5.320  20.026  0.00  0.00    +0.000 A 
ATOM     19  C   UNL     1       2.172   4.696  21.256  0.00  0.00    +0.000 A 
ATOM     20  C   UNL     1       2.195   3.307  21.377  0.00  0.00    +0.000 A 
ATOM     21  C   UNL     1       2.471   2.522  20.265  0.00  0.00    +0.000 A 
ATOM     22  C   UNL     1       2.731   3.127  19.037  0.00  0.00    +0.000 A 
ATOM     23  C   UNL     1       2.774   4.529  18.913  0.00  0.00    +0.000 A 
BRANCH  23  24
ATOM     24  O   UNL     1       3.213   5.131  17.742  0.00  0.00    +0.000 OA
BRANCH  24  25
ATOM     25  C   UNL     1       4.552   4.992  17.413  0.00  0.00    +0.000 A 
ATOM     26  C   UNL     1       4.862   4.401  16.184  0.00  0.00    +0.000 A 
ATOM     27  C   UNL     1       6.198   4.173  15.856  0.00  0.00    +0.000 A 
ATOM     28  F   UNL     1       6.501   3.582  14.691  0.00  0.00    +0.000 F 
ATOM     29  C   UNL     1       7.229   4.516  16.724  0.00  0.00    +0.000 A 
ATOM     30  C   UNL     1       6.909   5.141  17.920  0.00  0.00    +0.000 A 
ATOM     31  F   UNL     1       7.887   5.463  18.778  0.00  0.00    +0.000 F 
ATOM     32  C   UNL     1       5.586   5.411  18.261  0.00  0.00    +0.000 A 
ENDBRANCH  24  25
ENDBRANCH  23  24
ENDBRANCH   3  18
TORSDOF 4
ENDMDL
MODEL 9
REMARK VINA RESULT:      -8.6      3.415      7.696
REMARK  Name = 
REMARK  4 active torsions:
REMARK  status: ('A' for Active; 'I' for Inactive)
REMARK    1  A    between atoms: C_4  and  C_5
REMARK    2  A    between atoms: N_7  and  C_8
REMARK    3  A    between atoms: C_13  and  O_14
REMARK    4  A    between atoms: O_14  and  C_15
REMARK                            x       y       z     vdW  Elec       q    Type
REMARK                         _______ _______ _______ _____ _____    ______ ____
ROOT
ATOM      1  C   UNL     1       1.368   7.487  20.687  0.00  0.00    +0.000 C 
ATOM      2  O   UNL     1       0.351   7.002  21.183  0.00  0.00    +0.000 OA
ATOM      3  N   UNL     1       2.391   6.761  20.105  0.00  0.00    +0.000 N 
ATOM      4  H   UNL     1       3.296   7.211  20.157  0.00  0.00    +0.000 HD
ENDROOT
BRANCH   1   8
ATOM      5  O   UNL     1       0.257   9.488  23.979  0.00  0.00    +0.000 OA
ATOM      6  C   UNL     1       0.441   9.741  22.793  0.00  0.00    +0.000 C 
ATOM      7  C   UNL     1       1.763   9.515  22.101  0.00  0.00    +0.000 C 
ATOM      8  C   UNL     1       1.581   9.006  20.674  0.00  0.00    +0.000 C 
ATOM      9  C   UNL     1       0.514   9.793  19.930  0.00  0.00    +0.000 A 
ATOM     10  C   UNL     1       0.496   9.857  18.530  0.00  0.00    +0.000 A 
ATOM     11  C   UNL     1      -0.490  10.598  17.874  0.00  0.00    +0.000 A 
ATOM     12  C   UNL     1      -1.452  11.277  18.611  0.00  0.00    +0.000 A 
ATOM     13  F   UNL     1      -2.390  11.996  17.981  0.00  0.00    +0.000 F 
ATOM     14  C   UNL     1      -1.465  11.212  19.999  0.00  0.00    +0.000 A 
ATOM     15  C   UNL     1      -0.484  10.466  20.651  0.00  0.00    +0.000 A 
ATOM     16  N   UNL     1      -0.535  10.337  22.040  0.00  0.00    +0.000 N 
ATOM     17  H   UNL     1      -1.351  10.651  22.554  0.00  0.00    +0.000 HD
ENDBRANCH   1   8
BRANCH   3  18
ATOM     18  C   UNL     1       2.434   5.348  20.075  0.00  0.00    +0.000 A 
ATOM     19  C   UNL     1       2.152   4.715  21.296  0.00  0.00    +0.000 A 
ATOM     20  C   UNL     1       2.169   3.326  21.406  0.00  0.00    +0.000 A 
ATOM     21  C   UNL     1       2.461   2.548  20.293  0.00  0.00    +0.000 A 
ATOM     22  C   UNL     1       2.745   3.163  19.074  0.00  0.00    +0.000 A 
ATOM     23  C   UNL     1       2.795   4.566  18.963  0.00  0.00    +0.000 A 
BRANCH  23  24
ATOM     24  O   UNL     1       3.257   5.176  17.804  0.00  0.00    +0.000 OA
BRANCH  24  25
ATOM     25  C   UNL     1       4.559   4.907  17.414  0.00  0.00    +0.000 A 
ATOM     26  C   UNL     1       5.591   5.314  18.266  0.00  0.00    +0.000 A 
ATOM     27  C   UNL     1       6.915   5.131  17.869  0.00  0.00    +0.000 A 
ATOM     28  F   UNL     1       7.909   5.543  18.669  0.00  0.00    +0.000 F 
ATOM     29  C   UNL     1       7.233   4.557  16.643  0.00  0.00    +0.000 A 
ATOM     30  C   UNL     1       6.200   4.119  15.827  0.00  0.00    +0.000 A 
ATOM     31  F   UNL     1       6.485   3.580  14.634  0.00  0.00    +0.000 F 
ATOM     32  C   UNL     1       4.868   4.258  16.211  0.00  0.00    +0.000 A 
ENDBRANCH  24  25
ENDBRANCH  23  24
ENDBRANCH   3  18
TORSDOF 4
ENDMDL
