MODEL 1
REMARK VINA RESULT:      -8.4      0.000      0.000
REMARK  Name = 
REMARK  6 active torsions:
REMARK  status: ('A' for Active; 'I' for Inactive)
REMARK    1  A    between atoms: C_1  and  C_2
REMARK    2  A    between atoms: C_6  and  S_7
REMARK    3  A    between atoms: S_7  and  N_10
REMARK    4  A    between atoms: C_14  and  C_15
REMARK    5  A    between atoms: N_17  and  C_18
REMARK    6  A    between atoms: C_20  and  C_21
REMARK                            x       y       z     vdW  Elec       q    Type
REMARK                         _______ _______ _______ _____ _____    ______ ____
ROOT
ATOM      1  N   UNL     1      -0.035  10.489  20.715  0.00  0.00    +0.000 NA
ATOM      2  C   UNL     1       0.874  11.634  20.525  0.00  0.00    +0.000 C 
ATOM      3  C   UNL     1       0.141  12.917  20.158  0.00  0.00    +0.000 C 
ATOM      4  C   UNL     1      -0.811  12.737  18.984  0.00  0.00    +0.000 C 
ATOM      5  C   UNL     1      -1.793  11.590  19.242  0.00  0.00    +0.000 C 
ATOM      6  C   UNL     1      -1.105  10.293  19.698  0.00  0.00    +0.000 C 
ENDROOT
BRANCH   5   7
ATOM      7  C   UNL     1      -2.710  11.331  18.048  0.00  0.00    +0.000 A 
ATOM      8  N   UNL     1      -2.170  10.864  16.905  0.00  0.00    +0.000 NA
ATOM      9  N   UNL     1      -3.196  10.799  16.046  0.00  0.00    +0.000 N 
ATOM     10  C   UNL     1      -3.020  10.328  14.693  0.00  0.00    +0.000 C 
ATOM     11  C   UNL     1      -4.378  11.204  16.585  0.00  0.00    +0.000 A 
ATOM     12  C   UNL     1      -4.124  11.525  17.907  0.00  0.00    +0.000 A 
BRANCH  12  13
ATOM     13  C   UNL     1      -5.122  11.994  18.857  0.00  0.00    +0.000 C 
ATOM     14  N   UNL     1      -6.289  11.281  18.883  0.00  0.00    +0.000 N 
ATOM     15  O   UNL     1      -4.960  12.941  19.617  0.00  0.00    +0.000 OA
ATOM     16  H   UNL     1      -6.351  10.362  18.471  0.00  0.00    +0.000 HD
ATOM     17  H   UNL     1      -6.966  11.540  19.582  0.00  0.00    +0.000 HD
ENDBRANCH  12  13
ENDBRANCH   5   7
BRANCH   1  18
ATOM     18  S   UNL     1       0.709   9.032  21.277  0.00  0.00    +0.000 S 
ATOM     19  O   UNL     1      -0.403   8.147  21.590  0.00  0.00    +0.000 OA
ATOM     20  O   UNL     1       1.670   9.348  22.313  0.00  0.00    +0.000 OA
BRANCH  18  26
ATOM     21  C   UNL     1       3.668   2.994  20.142  0.00  0.00    +0.000 C 
ATOM     22  C   UNL     1       3.036   4.341  20.005  0.00  0.00    +0.000 A 
ATOM     23  C   UNL     1       2.111   4.808  20.918  0.00  0.00    +0.000 A 
ATOM     24  N   UNL     1       1.602   6.063  20.914  0.00  0.00    +0.000 NA
ATOM     25  C   UNL     1       1.964   6.923  19.941  0.00  0.00    +0.000 A 
ATOM     26  C   UNL     1       1.561   8.266  19.904  0.00  0.00    +0.000 A 
ATOM     27  C   UNL     1       1.803   9.065  18.767  0.00  0.00    +0.000 A 
ATOM     28  C   UNL     1       2.520   8.566  17.688  0.00  0.00    +0.000 A 
ATOM     29  C   UNL     1       3.047   7.286  17.762  0.00  0.00    +0.000 A 
ATOM     30  C   UNL     1       2.784   6.474  18.878  0.00  0.00    +0.000 A 
ATOM     31  C   UNL     1       3.345   5.189  18.946  0.00  0.00    +0.000 A 
ENDBRANCH  18  26
ENDBRANCH   1  18
TORSDOF 4
ENDMDL
MODEL 2
REMARK VINA RESULT:      -8.0      4.840      7.306
REMARK  Name = 
REMARK  6 active torsions:
REMARK  status: ('A' for Active; 'I' for Inactive)
REMARK    1  A    between atoms: C_1  and  C_2
REMARK    2  A    between atoms: C_6  and  S_7
REMARK    3  A    between atoms: S_7  and  N_10
REMARK    4  A    between atoms: C_14  and  C_15
REMARK    5  A    between atoms: N_17  and  C_18
REMARK    6  A    between atoms: C_20  and  C_21
REMARK                            x       y       z     vdW  Elec       q    Type
REMARK                         _______ _______ _______ _____ _____    ______ ____
ROOT
ATOM      1  N   UNL     1       2.882   3.401  19.012  0.00  0.00    +0.000 NA
ATOM      2  C   UNL     1       2.031   2.553  19.867  0.00  0.00    +0.000 C 
ATOM      3  C   UNL     1       0.631   3.120  20.058  0.00  0.00    +0.000 C 
ATOM      4  C   UNL     1       0.641   4.572  20.516  0.00  0.00    +0.000 C 
ATOM      5  C   UNL     1       1.469   5.443  19.566  0.00  0.00    +0.000 C 
ATOM      6  C   UNL     1       2.863   4.867  19.274  0.00  0.00    +0.000 C 
ENDROOT
BRANCH   5   7
ATOM      7  C   UNL     1       1.565   6.891  20.042  0.00  0.00    +0.000 A 
ATOM      8  N   UNL     1       1.197   7.184  21.305  0.00  0.00    +0.000 NA
ATOM      9  N   UNL     1       1.335   8.513  21.399  0.00  0.00    +0.000 N 
ATOM     10  C   UNL     1       1.041   9.219  22.624  0.00  0.00    +0.000 C 
ATOM     11  C   UNL     1       1.776   9.094  20.250  0.00  0.00    +0.000 A 
ATOM     12  C   UNL     1       1.982   8.071  19.341  0.00  0.00    +0.000 A 
BRANCH  12  13
ATOM     13  C   UNL     1       2.469   8.250  17.982  0.00  0.00    +0.000 C 
ATOM     14  N   UNL     1       3.592   7.538  17.661  0.00  0.00    +0.000 N 
ATOM     15  O   UNL     1       1.928   8.960  17.142  0.00  0.00    +0.000 OA
ATOM     16  H   UNL     1       3.901   6.764  18.229  0.00  0.00    +0.000 HD
ATOM     17  H   UNL     1       3.907   7.588  16.706  0.00  0.00    +0.000 HD
ENDBRANCH  12  13
ENDBRANCH   5   7
BRANCH   1  18
ATOM     18  S   UNL     1       4.438   2.750  18.628  0.00  0.00    +0.000 S 
ATOM     19  O   UNL     1       4.156   1.479  17.978  0.00  0.00    +0.000 OA
ATOM     20  O   UNL     1       5.273   2.765  19.811  0.00  0.00    +0.000 OA
BRANCH  18  26
ATOM     21  C   UNL     1       8.554   8.187  18.604  0.00  0.00    +0.000 C 
ATOM     22  C   UNL     1       7.761   6.974  18.239  0.00  0.00    +0.000 A 
ATOM     23  C   UNL     1       7.454   5.997  19.166  0.00  0.00    +0.000 A 
ATOM     24  N   UNL     1       6.637   4.944  18.923  0.00  0.00    +0.000 NA
ATOM     25  C   UNL     1       6.110   4.783  17.693  0.00  0.00    +0.000 A 
ATOM     26  C   UNL     1       5.185   3.778  17.371  0.00  0.00    +0.000 A 
ATOM     27  C   UNL     1       4.819   3.532  16.032  0.00  0.00    +0.000 A 
ATOM     28  C   UNL     1       5.301   4.332  15.005  0.00  0.00    +0.000 A 
ATOM     29  C   UNL     1       6.107   5.417  15.316  0.00  0.00    +0.000 A 
ATOM     30  C   UNL     1       6.500   5.650  16.645  0.00  0.00    +0.000 A 
ATOM     31  C   UNL     1       7.297   6.766  16.944  0.00  0.00    +0.000 A 
ENDBRANCH  18  26
ENDBRANCH   1  18
TORSDOF 4
ENDMDL
MODEL 3
REMARK VINA RESULT:      -8.0      3.130      4.543
REMARK  Name = 
REMARK  6 active torsions:
REMARK  status: ('A' for Active; 'I' for Inactive)
REMARK    1  A    between atoms: C_1  and  C_2
REMARK    2  A    between atoms: C_6  and  S_7
REMARK    3  A    between atoms: S_7  and  N_10
REMARK    4  A    between atoms: C_14  and  C_15
REMARK    5  A    between atoms: N_17  and  C_18
REMARK    6  A    between atoms: C_20  and  C_21
REMARK                            x       y       z     vdW  Elec       q    Type
REMARK                         _______ _______ _______ _____ _____    ______ ____
ROOT
ATOM      1  N   UNL     1      -0.203  10.906  21.170  0.00  0.00    +0.000 NA
ATOM      2  C   UNL     1      -1.090  10.977  19.995  0.00  0.00    +0.000 C 
ATOM      3  C   UNL     1      -1.539  12.397  19.677  0.00  0.00    +0.000 C 
ATOM      4  C   UNL     1      -2.125  13.115  20.885  0.00  0.00    +0.000 C 
ATOM      5  C   UNL     1      -1.150  13.092  22.066  0.00  0.00    +0.000 C 
ATOM      6  C   UNL     1      -0.601  11.689  22.373  0.00  0.00    +0.000 C 
ENDROOT
BRANCH   5   7
ATOM      7  C   UNL     1      -1.740  13.734  23.319  0.00  0.00    +0.000 A 
ATOM      8  N   UNL     1      -1.014  14.658  23.978  0.00  0.00    +0.000 NA
ATOM      9  N   UNL     1      -1.760  14.982  25.042  0.00  0.00    +0.000 N 
ATOM     10  C   UNL     1      -1.321  15.966  26.003  0.00  0.00    +0.000 C 
ATOM     11  C   UNL     1      -2.941  14.306  25.100  0.00  0.00    +0.000 A 
ATOM     12  C   UNL     1      -2.996  13.505  23.974  0.00  0.00    +0.000 A 
BRANCH  12  13
ATOM     13  C   UNL     1      -4.101  12.621  23.634  0.00  0.00    +0.000 C 
ATOM     14  N   UNL     1      -4.589  11.866  24.666  0.00  0.00    +0.000 N 
ATOM     15  O   UNL     1      -4.606  12.542  22.521  0.00  0.00    +0.000 OA
ATOM     16  H   UNL     1      -4.377  12.094  25.626  0.00  0.00    +0.000 HD
ATOM     17  H   UNL     1      -5.399  11.301  24.475  0.00  0.00    +0.000 HD
ENDBRANCH  12  13
ENDBRANCH   5   7
BRANCH   1  18
ATOM     18  S   UNL     1       0.466   9.347  21.507  0.00  0.00    +0.000 S 
ATOM     19  O   UNL     1      -0.689   8.480  21.681  0.00  0.00    +0.000 OA
ATOM     20  O   UNL     1       1.433   9.457  22.579  0.00  0.00    +0.000 OA
BRANCH  18  26
ATOM     21  C   UNL     1       3.739   3.637  19.718  0.00  0.00    +0.000 C 
ATOM     22  C   UNL     1       3.016   4.946  19.727  0.00  0.00    +0.000 A 
ATOM     23  C   UNL     1       2.112   5.272  20.720  0.00  0.00    +0.000 A 
ATOM     24  N   UNL     1       1.525   6.486  20.847  0.00  0.00    +0.000 NA
ATOM     25  C   UNL     1       1.781   7.446  19.937  0.00  0.00    +0.000 A 
ATOM     26  C   UNL     1       1.292   8.757  20.034  0.00  0.00    +0.000 A 
ATOM     27  C   UNL     1       1.422   9.661  18.960  0.00  0.00    +0.000 A 
ATOM     28  C   UNL     1       2.113   9.303  17.809  0.00  0.00    +0.000 A 
ATOM     29  C   UNL     1       2.722   8.060  17.748  0.00  0.00    +0.000 A 
ATOM     30  C   UNL     1       2.570   7.143  18.802  0.00  0.00    +0.000 A 
ATOM     31  C   UNL     1       3.214   5.897  18.732  0.00  0.00    +0.000 A 
ENDBRANCH  18  26
ENDBRANCH   1  18
TORSDOF 4
ENDMDL
MODEL 4
REMARK VINA RESULT:      -7.9      1.480      2.381
REMARK  Name = 
REMARK  6 active torsions:
REMARK  status: ('A' for Active; 'I' for Inactive)
REMARK    1  A    between atoms: C_1  and  C_2
REMARK    2  A    between atoms: C_6  and  S_7
REMARK    3  A    between atoms: S_7  and  N_10
REMARK    4  A    between atoms: C_14  and  C_15
REMARK    5  A    between atoms: N_17  and  C_18
REMARK    6  A    between atoms: C_20  and  C_21
REMARK                            x       y       z     vdW  Elec       q    Type
REMARK                         _______ _______ _______ _____ _____    ______ ____
ROOT
ATOM      1  N   UNL     1      -0.220  11.047  21.490  0.00  0.00    +0.000 NA
ATOM      2  C   UNL     1       0.673  12.185  21.207  0.00  0.00    +0.000 C 
ATOM      3  C   UNL     1      -0.061  13.518  21.160  0.00  0.00    +0.000 C 
ATOM      4  C   UNL     1      -1.271  13.492  20.237  0.00  0.00    +0.000 C 
ATOM      5  C   UNL     1      -2.220  12.346  20.603  0.00  0.00    +0.000 C 
ATOM      6  C   UNL     1      -1.508  10.991  20.746  0.00  0.00    +0.000 C 
ENDROOT
BRANCH   5   7
ATOM      7  C   UNL     1      -3.404  12.243  19.644  0.00  0.00    +0.000 A 
ATOM      8  N   UNL     1      -4.622  12.625  20.075  0.00  0.00    +0.000 NA
ATOM      9  N   UNL     1      -5.442  12.365  19.048  0.00  0.00    +0.000 N 
ATOM     10  C   UNL     1      -6.856  12.650  19.118  0.00  0.00    +0.000 C 
ATOM     11  C   UNL     1      -4.806  11.831  17.970  0.00  0.00    +0.000 A 
ATOM     12  C   UNL     1      -3.462  11.768  18.291  0.00  0.00    +0.000 A 
BRANCH  12  13
ATOM     13  C   UNL     1      -2.417  11.268  17.410  0.00  0.00    +0.000 C 
ATOM     14  N   UNL     1      -1.516  12.203  16.979  0.00  0.00    +0.000 N 
ATOM     15  O   UNL     1      -2.300  10.097  17.072  0.00  0.00    +0.000 OA
ATOM     16  H   UNL     1      -1.430  13.098  17.437  0.00  0.00    +0.000 HD
ATOM     17  H   UNL     1      -0.741  11.871  16.428  0.00  0.00    +0.000 HD
ENDBRANCH  12  13
ENDBRANCH   5   7
BRANCH   1  18
ATOM     18  S   UNL     1       0.563   9.519  21.705  0.00  0.00    +0.000 S 
ATOM     19  O   UNL     1      -0.516   8.590  21.999  0.00  0.00    +0.000 OA
ATOM     20  O   UNL     1       1.649   9.661  22.652  0.00  0.00    +0.000 OA
BRANCH  18  26
ATOM     21  C   UNL     1       3.811   3.993  19.377  0.00  0.00    +0.000 C 
ATOM     22  C   UNL     1       3.046   5.270  19.510  0.00  0.00    +0.000 A 
ATOM     23  C   UNL     1       2.256   5.535  20.611  0.00  0.00    +0.000 A 
ATOM     24  N   UNL     1       1.643   6.721  20.842  0.00  0.00    +0.000 NA
ATOM     25  C   UNL     1       1.751   7.712  19.936  0.00  0.00    +0.000 A 
ATOM     26  C   UNL     1       1.228   9.000  20.128  0.00  0.00    +0.000 A 
ATOM     27  C   UNL     1       1.195   9.934  19.073  0.00  0.00    +0.000 A 
ATOM     28  C   UNL     1       1.756   9.632  17.839  0.00  0.00    +0.000 A 
ATOM     29  C   UNL     1       2.400   8.417  17.670  0.00  0.00    +0.000 A 
ATOM     30  C   UNL     1       2.410   7.469  18.707  0.00  0.00    +0.000 A 
ATOM     31  C   UNL     1       3.088   6.253  18.526  0.00  0.00    +0.000 A 
ENDBRANCH  18  26
ENDBRANCH   1  18
TORSDOF 4
ENDMDL
MODEL 5
REMARK VINA RESULT:      -7.8      4.285      8.925
REMARK  Name = 
REMARK  6 active torsions:
REMARK  status: ('A' for Active; 'I' for Inactive)
REMARK    1  A    between atoms: C_1  and  C_2
REMARK    2  A    between atoms: C_6  and  S_7
REMARK    3  A    between atoms: S_7  and  N_10
REMARK    4  A    between atoms: C_14  and  C_15
REMARK    5  A    between atoms: N_17  and  C_18
REMARK    6  A    between atoms: C_20  and  C_21
REMARK                            x       y       z     vdW  Elec       q    Type
REMARK                         _______ _______ _______ _____ _____    ______ ____
ROOT
ATOM      1  N   UNL     1       2.817   4.021  19.585  0.00  0.00    +0.000 NA
ATOM      2  C   UNL     1       2.088   2.934  18.907  0.00  0.00    +0.000 C 
ATOM      3  C   UNL     1       3.014   1.911  18.264  0.00  0.00    +0.000 C 
ATOM      4  C   UNL     1       4.062   2.549  17.363  0.00  0.00    +0.000 C 
ATOM      5  C   UNL     1       4.856   3.621  18.116  0.00  0.00    +0.000 C 
ATOM      6  C   UNL     1       3.964   4.631  18.854  0.00  0.00    +0.000 C 
ENDROOT
BRANCH   5   7
ATOM      7  C   UNL     1       5.863   4.336  17.217  0.00  0.00    +0.000 A 
ATOM      8  N   UNL     1       5.790   4.147  15.885  0.00  0.00    +0.000 NA
ATOM      9  N   UNL     1       6.820   4.844  15.387  0.00  0.00    +0.000 N 
ATOM     10  C   UNL     1       7.080   4.899  13.967  0.00  0.00    +0.000 C 
ATOM     11  C   UNL     1       7.557   5.476  16.341  0.00  0.00    +0.000 A 
ATOM     12  C   UNL     1       6.949   5.210  17.555  0.00  0.00    +0.000 A 
BRANCH  12  13
ATOM     13  C   UNL     1       7.408   5.707  18.843  0.00  0.00    +0.000 C 
ATOM     14  N   UNL     1       8.183   6.834  18.796  0.00  0.00    +0.000 N 
ATOM     15  O   UNL     1       7.124   5.198  19.920  0.00  0.00    +0.000 OA
ATOM     16  H   UNL     1       8.215   7.413  17.970  0.00  0.00    +0.000 HD
ATOM     17  H   UNL     1       8.452   7.240  19.677  0.00  0.00    +0.000 HD
ENDBRANCH  12  13
ENDBRANCH   5   7
BRANCH   1  18
ATOM     18  S   UNL     1       1.837   5.142  20.465  0.00  0.00    +0.000 S 
ATOM     19  O   UNL     1       2.519   5.309  21.739  0.00  0.00    +0.000 OA
ATOM     20  O   UNL     1       0.461   4.692  20.456  0.00  0.00    +0.000 OA
BRANCH  18  26
ATOM     21  C   UNL     1      -0.342  11.452  21.859  0.00  0.00    +0.000 C 
ATOM     22  C   UNL     1       0.360  10.257  21.301  0.00  0.00    +0.000 A 
ATOM     23  C   UNL     1       0.574   9.119  22.054  0.00  0.00    +0.000 A 
ATOM     24  N   UNL     1       1.090   7.966  21.564  0.00  0.00    +0.000 NA
ATOM     25  C   UNL     1       1.474   7.906  20.274  0.00  0.00    +0.000 A 
ATOM     26  C   UNL     1       1.935   6.734  19.655  0.00  0.00    +0.000 A 
ATOM     27  C   UNL     1       2.509   6.771  18.368  0.00  0.00    +0.000 A 
ATOM     28  C   UNL     1       2.557   7.956  17.645  0.00  0.00    +0.000 A 
ATOM     29  C   UNL     1       1.983   9.097  18.182  0.00  0.00    +0.000 A 
ATOM     30  C   UNL     1       1.437   9.075  19.477  0.00  0.00    +0.000 A 
ATOM     31  C   UNL     1       0.839  10.235  19.995  0.00  0.00    +0.000 A 
ENDBRANCH  18  26
ENDBRANCH   1  18
TORSDOF 4
ENDMDL
MODEL 6
REMARK VINA RESULT:      -7.8      6.067      9.942
REMARK  Name = 
REMARK  6 active torsions:
REMARK  status: ('A' for Active; 'I' for Inactive)
REMARK    1  A    between atoms: C_1  and  C_2
REMARK    2  A    between atoms: C_6  and  S_7
REMARK    3  A    between atoms: S_7  and  N_10
REMARK    4  A    between atoms: C_14  and  C_15
REMARK    5  A    between atoms: N_17  and  C_18
REMARK    6  A    between atoms: C_20  and  C_21
REMARK                            x       y       z     vdW  Elec       q    Type
REMARK                         _______ _______ _______ _____ _____    ______ ____
ROOT
ATOM      1  N   UNL     1       5.304   4.427  17.442  0.00  0.00    +0.000 NA
ATOM      2  C   UNL     1       6.548   4.919  18.062  0.00  0.00    +0.000 C 
ATOM      3  C   UNL     1       7.300   5.908  17.181  0.00  0.00    +0.000 C 
ATOM      4  C   UNL     1       7.528   5.385  15.770  0.00  0.00    +0.000 C 
ATOM      5  C   UNL     1       6.209   4.953  15.122  0.00  0.00    +0.000 C 
ATOM      6  C   UNL     1       5.373   4.019  16.011  0.00  0.00    +0.000 C 
ENDROOT
BRANCH   5   7
ATOM      7  C   UNL     1       6.414   4.348  13.735  0.00  0.00    +0.000 A 
ATOM      8  N   UNL     1       5.691   3.266  13.386  0.00  0.00    +0.000 NA
ATOM      9  N   UNL     1       6.131   2.944  12.162  0.00  0.00    +0.000 N 
ATOM     10  C   UNL     1       5.586   1.823  11.433  0.00  0.00    +0.000 C 
ATOM     11  C   UNL     1       7.109   3.772  11.704  0.00  0.00    +0.000 A 
ATOM     12  C   UNL     1       7.304   4.735  12.678  0.00  0.00    +0.000 A 
BRANCH  12  13
ATOM     13  C   UNL     1       8.257   5.831  12.587  0.00  0.00    +0.000 C 
ATOM     14  N   UNL     1       8.057   6.700  11.550  0.00  0.00    +0.000 N 
ATOM     15  O   UNL     1       9.176   6.015  13.377  0.00  0.00    +0.000 OA
ATOM     16  H   UNL     1       7.180   6.727  11.052  0.00  0.00    +0.000 HD
ATOM     17  H   UNL     1       8.658   7.506  11.507  0.00  0.00    +0.000 HD
ENDBRANCH  12  13
ENDBRANCH   5   7
BRANCH   1  18
ATOM     18  S   UNL     1       4.322   3.414  18.441  0.00  0.00    +0.000 S 
ATOM     19  O   UNL     1       5.235   2.889  19.445  0.00  0.00    +0.000 OA
ATOM     20  O   UNL     1       3.581   2.488  17.611  0.00  0.00    +0.000 OA
BRANCH  18  26
ATOM     21  C   UNL     1       2.198   9.876  17.952  0.00  0.00    +0.000 C 
ATOM     22  C   UNL     1       2.348   8.425  18.279  0.00  0.00    +0.000 A 
ATOM     23  C   UNL     1       2.970   7.544  17.416  0.00  0.00    +0.000 A 
ATOM     24  N   UNL     1       3.243   6.251  17.714  0.00  0.00    +0.000 NA
ATOM     25  C   UNL     1       2.854   5.746  18.901  0.00  0.00    +0.000 A 
ATOM     26  C   UNL     1       3.169   4.449  19.334  0.00  0.00    +0.000 A 
ATOM     27  C   UNL     1       2.573   3.906  20.490  0.00  0.00    +0.000 A 
ATOM     28  C   UNL     1       1.722   4.670  21.278  0.00  0.00    +0.000 A 
ATOM     29  C   UNL     1       1.506   5.998  20.944  0.00  0.00    +0.000 A 
ATOM     30  C   UNL     1       2.072   6.537  19.777  0.00  0.00    +0.000 A 
ATOM     31  C   UNL     1       1.861   7.890  19.467  0.00  0.00    +0.000 A 
ENDBRANCH  18  26
ENDBRANCH   1  18
TORSDOF 4
ENDMDL
MODEL 7
REMARK VINA RESULT:      -7.7      2.534      3.213
REMARK  Name = 
REMARK  6 active torsions:
REMARK  status: ('A' for Active; 'I' for Inactive)
REMARK    1  A    between atoms: C_1  and  C_2
REMARK    2  A    between atoms: C_6  and  S_7
REMARK    3  A    between atoms: S_7  and  N_10
REMARK    4  A    between atoms: C_14  and  C_15
REMARK    5  A    between atoms: N_17  and  C_18
REMARK    6  A    between atoms: C_20  and  C_21
REMARK                            x       y       z     vdW  Elec       q    Type
REMARK                         _______ _______ _______ _____ _____    ______ ____
ROOT
ATOM      1  N   UNL     1       0.167  11.155  21.900  0.00  0.00    +0.000 NA
ATOM      2  C   UNL     1       0.972  12.082  21.084  0.00  0.00    +0.000 C 
ATOM      3  C   UNL     1       0.527  13.531  21.219  0.00  0.00    +0.000 C 
ATOM      4  C   UNL     1      -0.967  13.713  20.990  0.00  0.00    +0.000 C 
ATOM      5  C   UNL     1      -1.780  12.793  21.907  0.00  0.00    +0.000 C 
ATOM      6  C   UNL     1      -1.312  11.330  21.869  0.00  0.00    +0.000 C 
ENDROOT
BRANCH   5   7
ATOM      7  C   UNL     1      -3.282  12.893  21.645  0.00  0.00    +0.000 A 
ATOM      8  N   UNL     1      -3.714  12.967  20.371  0.00  0.00    +0.000 NA
ATOM      9  N   UNL     1      -5.043  13.103  20.471  0.00  0.00    +0.000 N 
ATOM     10  C   UNL     1      -5.883  13.207  19.301  0.00  0.00    +0.000 C 
ATOM     11  C   UNL     1      -5.490  13.120  21.757  0.00  0.00    +0.000 A 
ATOM     12  C   UNL     1      -4.381  12.945  22.566  0.00  0.00    +0.000 A 
BRANCH  12  13
ATOM     13  C   UNL     1      -4.411  12.888  24.019  0.00  0.00    +0.000 C 
ATOM     14  N   UNL     1      -4.202  14.080  24.658  0.00  0.00    +0.000 N 
ATOM     15  O   UNL     1      -4.628  11.871  24.667  0.00  0.00    +0.000 OA
ATOM     16  H   UNL     1      -4.281  14.958  24.168  0.00  0.00    +0.000 HD
ATOM     17  H   UNL     1      -4.290  14.082  25.661  0.00  0.00    +0.000 HD
ENDBRANCH  12  13
ENDBRANCH   5   7
BRANCH   1  18
ATOM     18  S   UNL     1       0.706   9.512  21.913  0.00  0.00    +0.000 S 
ATOM     19  O   UNL     1      -0.495   8.732  22.173  0.00  0.00    +0.000 OA
ATOM     20  O   UNL     1       1.837   9.381  22.807  0.00  0.00    +0.000 OA
BRANCH  18  26
ATOM     21  C   UNL     1       3.780   4.150  19.031  0.00  0.00    +0.000 C 
ATOM     22  C   UNL     1       3.014   5.406  19.296  0.00  0.00    +0.000 A 
ATOM     23  C   UNL     1       2.335   5.609  20.482  0.00  0.00    +0.000 A 
ATOM     24  N   UNL     1       1.732   6.772  20.825  0.00  0.00    +0.000 NA
ATOM     25  C   UNL     1       1.735   7.803  19.957  0.00  0.00    +0.000 A 
ATOM     26  C   UNL     1       1.216   9.072  20.257  0.00  0.00    +0.000 A 
ATOM     27  C   UNL     1       1.064  10.049  19.252  0.00  0.00    +0.000 A 
ATOM     28  C   UNL     1       1.502   9.810  17.956  0.00  0.00    +0.000 A 
ATOM     29  C   UNL     1       2.143   8.615  17.670  0.00  0.00    +0.000 A 
ATOM     30  C   UNL     1       2.270   7.625  18.659  0.00  0.00    +0.000 A 
ATOM     31  C   UNL     1       2.943   6.430  18.357  0.00  0.00    +0.000 A 
ENDBRANCH  18  26
ENDBRANCH   1  18
TORSDOF 4
ENDMDL
MODEL 8
REMARK VINA RESULT:      -7.7      3.832      8.861
REMARK  Name = 
REMARK  6 active torsions:
REMARK  status: ('A' for Active; 'I' for Inactive)
REMARK    1  A    between atoms: C_1  and  C_2
REMARK    2  A    between atoms: C_6  and  S_7
REMARK    3  A    between atoms: S_7  and  N_10
REMARK    4  A    between atoms: C_14  and  C_15
REMARK    5  A    between atoms: N_17  and  C_18
REMARK    6  A    between atoms: C_20  and  C_21
REMARK                            x       y       z     vdW  Elec       q    Type
REMARK                         _______ _______ _______ _____ _____    ______ ____
ROOT
ATOM      1  N   UNL     1       2.442   7.274  18.409  0.00  0.00    +0.000 NA
ATOM      2  C   UNL     1       1.484   6.161  18.540  0.00  0.00    +0.000 C 
ATOM      3  C   UNL     1       2.162   4.819  18.781  0.00  0.00    +0.000 C 
ATOM      4  C   UNL     1       3.255   4.520  17.765  0.00  0.00    +0.000 C 
ATOM      5  C   UNL     1       4.278   5.658  17.705  0.00  0.00    +0.000 C 
ATOM      6  C   UNL     1       3.636   7.045  17.547  0.00  0.00    +0.000 C 
ENDROOT
BRANCH   5   7
ATOM      7  C   UNL     1       5.344   5.425  16.637  0.00  0.00    +0.000 A 
ATOM      8  N   UNL     1       5.051   4.626  15.592  0.00  0.00    +0.000 NA
ATOM      9  N   UNL     1       6.182   4.573  14.877  0.00  0.00    +0.000 N 
ATOM     10  C   UNL     1       6.269   3.810  13.654  0.00  0.00    +0.000 C 
ATOM     11  C   UNL     1       7.197   5.303  15.415  0.00  0.00    +0.000 A 
ATOM     12  C   UNL     1       6.690   5.915  16.547  0.00  0.00    +0.000 A 
BRANCH  12  13
ATOM     13  C   UNL     1       7.441   6.804  17.422  0.00  0.00    +0.000 C 
ATOM     14  N   UNL     1       7.823   6.264  18.619  0.00  0.00    +0.000 N 
ATOM     15  O   UNL     1       7.752   7.953  17.135  0.00  0.00    +0.000 OA
ATOM     16  H   UNL     1       7.813   5.267  18.771  0.00  0.00    +0.000 HD
ATOM     17  H   UNL     1       8.406   6.834  19.211  0.00  0.00    +0.000 HD
ENDBRANCH  12  13
ENDBRANCH   5   7
BRANCH   1  18
ATOM     18  S   UNL     1       1.743   8.850  18.280  0.00  0.00    +0.000 S 
ATOM     19  O   UNL     1       0.625   8.684  17.363  0.00  0.00    +0.000 OA
ATOM     20  O   UNL     1       2.777   9.813  17.963  0.00  0.00    +0.000 OA
BRANCH  18  26
ATOM     21  C   UNL     1      -2.392  13.770  20.561  0.00  0.00    +0.000 C 
ATOM     22  C   UNL     1      -1.589  12.521  20.392  0.00  0.00    +0.000 A 
ATOM     23  C   UNL     1      -1.294  12.007  19.145  0.00  0.00    +0.000 A 
ATOM     24  N   UNL     1      -0.469  10.954  18.929  0.00  0.00    +0.000 NA
ATOM     25  C   UNL     1       0.079  10.314  19.981  0.00  0.00    +0.000 A 
ATOM     26  C   UNL     1       1.012   9.274  19.856  0.00  0.00    +0.000 A 
ATOM     27  C   UNL     1       1.402   8.510  20.976  0.00  0.00    +0.000 A 
ATOM     28  C   UNL     1       0.934   8.822  22.246  0.00  0.00    +0.000 A 
ATOM     29  C   UNL     1       0.120   9.931  22.411  0.00  0.00    +0.000 A 
ATOM     30  C   UNL     1      -0.296  10.678  21.296  0.00  0.00    +0.000 A 
ATOM     31  C   UNL     1      -1.103  11.812  21.486  0.00  0.00    +0.000 A 
ENDBRANCH  18  26
ENDBRANCH   1  18
TORSDOF 4
ENDMDL
MODEL 9
REMARK VINA RESULT:      -7.6      3.394      5.240
REMARK  Name = 
REMARK  6 active torsions:
REMARK  status: ('A' for Active; 'I' for Inactive)
REMARK    1  A    between atoms: C_1  and  C_2
REMARK    2  A    between atoms: C_6  and  S_7
REMARK    3  A    between atoms: S_7  and  N_10
REMARK    4  A    between atoms: C_14  and  C_15
REMARK    5  A    between atoms: N_17  and  C_18
REMARK    6  A    between atoms: C_20  and  C_21
REMARK                            x       y       z     vdW  Elec       q    Type
REMARK                         _______ _______ _______ _____ _____    ______ ____
ROOT
ATOM      1  N   UNL     1       0.120  10.692  21.413  0.00  0.00    +0.000 NA
ATOM      2  C   UNL     1      -0.945  11.124  22.336  0.00  0.00    +0.000 C 
ATOM      3  C   UNL     1      -1.411  12.551  22.078  0.00  0.00    +0.000 C 
ATOM      4  C   UNL     1      -0.260  13.546  22.021  0.00  0.00    +0.000 C 
ATOM      5  C   UNL     1       0.794  13.111  20.998  0.00  0.00    +0.000 C 
ATOM      6  C   UNL     1       1.235  11.648  21.165  0.00  0.00    +0.000 C 
ENDROOT
BRANCH   5   7
ATOM      7  C   UNL     1       2.001  14.047  20.975  0.00  0.00    +0.000 A 
ATOM      8  N   UNL     1       2.306  14.738  22.090  0.00  0.00    +0.000 NA
ATOM      9  N   UNL     1       3.353  15.498  21.743  0.00  0.00    +0.000 N 
ATOM     10  C   UNL     1       3.987  16.390  22.685  0.00  0.00    +0.000 C 
ATOM     11  C   UNL     1       3.739  15.327  20.449  0.00  0.00    +0.000 A 
ATOM     12  C   UNL     1       2.912  14.357  19.911  0.00  0.00    +0.000 A 
BRANCH  12  13
ATOM     13  C   UNL     1       2.989  13.859  18.546  0.00  0.00    +0.000 C 
ATOM     14  N   UNL     1       3.453  14.753  17.620  0.00  0.00    +0.000 N 
ATOM     15  O   UNL     1       2.693  12.719  18.209  0.00  0.00    +0.000 OA
ATOM     16  H   UNL     1       3.942  15.590  17.900  0.00  0.00    +0.000 HD
ATOM     17  H   UNL     1       3.585  14.411  16.682  0.00  0.00    +0.000 HD
ENDBRANCH  12  13
ENDBRANCH   5   7
BRANCH   1  18
ATOM     18  S   UNL     1       0.598   9.036  21.548  0.00  0.00    +0.000 S 
ATOM     19  O   UNL     1      -0.652   8.296  21.624  0.00  0.00    +0.000 OA
ATOM     20  O   UNL     1       1.564   8.898  22.617  0.00  0.00    +0.000 OA
BRANCH  18  26
ATOM     21  C   UNL     1       4.136   3.621  19.387  0.00  0.00    +0.000 C 
ATOM     22  C   UNL     1       3.324   4.872  19.481  0.00  0.00    +0.000 A 
ATOM     23  C   UNL     1       2.471   5.110  20.542  0.00  0.00    +0.000 A 
ATOM     24  N   UNL     1       1.809   6.275  20.742  0.00  0.00    +0.000 NA
ATOM     25  C   UNL     1       1.931   7.270  19.841  0.00  0.00    +0.000 A 
ATOM     26  C   UNL     1       1.358   8.540  20.007  0.00  0.00    +0.000 A 
ATOM     27  C   UNL     1       1.348   9.474  18.951  0.00  0.00    +0.000 A 
ATOM     28  C   UNL     1       1.979   9.193  17.747  0.00  0.00    +0.000 A 
ATOM     29  C   UNL     1       2.670   7.999  17.611  0.00  0.00    +0.000 A 
ATOM     30  C   UNL     1       2.659   7.050  18.647  0.00  0.00    +0.000 A 
ATOM     31  C   UNL     1       3.383   5.857  18.501  0.00  0.00    +0.000 A 
ENDBRANCH  18  26
ENDBRANCH   1  18
TORSDOF 4
ENDMDL
