MODEL 1
REMARK VINA RESULT:      -8.2      0.000      0.000
REMARK  Name = 
REMARK  5 active torsions:
REMARK  status: ('A' for Active; 'I' for Inactive)
REMARK    1  A    between atoms: C_1  and  N_2
REMARK    2  A    between atoms: C_6  and  C_7
REMARK    3  A    between atoms: C_7  and  C_8
REMARK    4  A    between atoms: C_8  and  C_9
REMARK    5  A    between atoms: C_13  and  N_14
REMARK                            x       y       z     vdW  Elec       q    Type
REMARK                         _______ _______ _______ _____ _____    ______ ____
ROOT
ATOM      1  C   UNL     1       5.357   6.112  18.048  0.00  0.00    +0.000 A 
ATOM      2  C   UNL     1       4.623   7.130  17.414  0.00  0.00    +0.000 A 
ATOM      3  C   UNL     1       3.230   7.158  17.451  0.00  0.00    +0.000 A 
ATOM      4  C   UNL     1       2.526   6.160  18.128  0.00  0.00    +0.000 A 
ATOM      5  C   UNL     1       3.200   5.128  18.782  0.00  0.00    +0.000 A 
ATOM      6  C   UNL     1       4.604   5.142  18.748  0.00  0.00    +0.000 A 
ENDROOT
BRANCH   5   7
ATOM      7  N   UNL     1       2.512   4.057  19.415  0.00  0.00    +0.000 N 
ATOM      8  C   UNL     1       1.930   2.965  18.662  0.00  0.00    +0.000 C 
ATOM      9  C   UNL     1       1.154   2.228  19.694  0.00  0.00    +0.000 C 
ATOM     10  C   UNL     1       1.331   2.775  20.892  0.00  0.00    +0.000 C 
ATOM     11  F   UNL     1       0.781   2.397  22.051  0.00  0.00    +0.000 F 
ATOM     12  C   UNL     1       2.214   3.947  20.778  0.00  0.00    +0.000 C 
ATOM     13  O   UNL     1       2.562   4.633  21.723  0.00  0.00    +0.000 OA
ENDBRANCH   5   7
BRANCH   1  14
ATOM     14  C   UNL     1       6.959   6.011  17.946  0.00  0.00    +0.000 C 
ATOM     15  C   UNL     1       7.741   7.300  17.557  0.00  0.00    +0.000 C 
ATOM     16  O   UNL     1       8.464   7.313  18.805  0.00  0.00    +0.000 OA
ATOM     17  C   UNL     1       7.723   6.180  19.292  0.00  0.00    +0.000 C 
BRANCH  14  18
ATOM     18  C   UNL     1       7.387   4.736  17.192  0.00  0.00    +0.000 C 
BRANCH  18  24
ATOM     19  C   UNL     1       4.954   3.290  15.769  0.00  0.00    +0.000 C 
ATOM     20  N   UNL     1       5.992   4.075  15.149  0.00  0.00    +0.000 N 
ATOM     21  C   UNL     1       6.117   4.276  13.808  0.00  0.00    +0.000 A 
ATOM     22  N   UNL     1       7.153   5.044  13.576  0.00  0.00    +0.000 NA
ATOM     23  N   UNL     1       7.731   5.335  14.787  0.00  0.00    +0.000 NA
ATOM     24  C   UNL     1       7.037   4.738  15.737  0.00  0.00    +0.000 A 
ENDBRANCH  18  24
ENDBRANCH  14  18
ENDBRANCH   1  14
TORSDOF 4
ENDMDL
MODEL 2
REMARK VINA RESULT:      -8.0      3.219      6.787
REMARK  Name = 
REMARK  5 active torsions:
REMARK  status: ('A' for Active; 'I' for Inactive)
REMARK    1  A    between atoms: C_1  and  N_2
REMARK    2  A    between atoms: C_6  and  C_7
REMARK    3  A    between atoms: C_7  and  C_8
REMARK    4  A    between atoms: C_8  and  C_9
REMARK    5  A    between atoms: C_13  and  N_14
REMARK                            x       y       z     vdW  Elec       q    Type
REMARK                         _______ _______ _______ _____ _____    ______ ____
ROOT
ATOM      1  C   UNL     1       4.440   5.640  17.747  0.00  0.00    +0.000 A 
ATOM      2  C   UNL     1       5.510   5.446  18.639  0.00  0.00    +0.000 A 
ATOM      3  C   UNL     1       6.754   4.995  18.201  0.00  0.00    +0.000 A 
ATOM      4  C   UNL     1       6.964   4.720  16.849  0.00  0.00    +0.000 A 
ATOM      5  C   UNL     1       5.943   4.900  15.916  0.00  0.00    +0.000 A 
ATOM      6  C   UNL     1       4.709   5.381  16.384  0.00  0.00    +0.000 A 
ENDROOT
BRANCH   5   7
ATOM      7  N   UNL     1       6.101   4.558  14.545  0.00  0.00    +0.000 N 
ATOM      8  C   UNL     1       5.177   3.678  13.860  0.00  0.00    +0.000 C 
ATOM      9  C   UNL     1       5.847   3.446  12.553  0.00  0.00    +0.000 C 
ATOM     10  C   UNL     1       6.964   4.159  12.467  0.00  0.00    +0.000 C 
ATOM     11  F   UNL     1       7.835   4.193  11.453  0.00  0.00    +0.000 F 
ATOM     12  C   UNL     1       7.170   4.913  13.715  0.00  0.00    +0.000 C 
ATOM     13  O   UNL     1       8.108   5.668  13.909  0.00  0.00    +0.000 OA
ENDBRANCH   5   7
BRANCH   1  14
ATOM     14  C   UNL     1       2.973   6.077  18.240  0.00  0.00    +0.000 C 
ATOM     15  C   UNL     1       2.844   6.699  19.662  0.00  0.00    +0.000 C 
ATOM     16  O   UNL     1       2.337   7.944  19.139  0.00  0.00    +0.000 OA
ATOM     17  C   UNL     1       2.512   7.493  17.785  0.00  0.00    +0.000 C 
BRANCH  14  18
ATOM     18  C   UNL     1       1.930   4.991  17.907  0.00  0.00    +0.000 C 
BRANCH  18  24
ATOM     19  C   UNL     1       3.323   2.153  18.087  0.00  0.00    +0.000 C 
ATOM     20  N   UNL     1       2.363   2.718  19.002  0.00  0.00    +0.000 N 
ATOM     21  C   UNL     1       1.854   2.074  20.088  0.00  0.00    +0.000 A 
ATOM     22  N   UNL     1       1.019   2.868  20.715  0.00  0.00    +0.000 NA
ATOM     23  N   UNL     1       0.965   4.047  20.014  0.00  0.00    +0.000 NA
ATOM     24  C   UNL     1       1.767   3.951  18.971  0.00  0.00    +0.000 A 
ENDBRANCH  18  24
ENDBRANCH  14  18
ENDBRANCH   1  14
TORSDOF 4
ENDMDL
MODEL 3
REMARK VINA RESULT:      -7.9      3.230      6.630
REMARK  Name = 
REMARK  5 active torsions:
REMARK  status: ('A' for Active; 'I' for Inactive)
REMARK    1  A    between atoms: C_1  and  N_2
REMARK    2  A    between atoms: C_6  and  C_7
REMARK    3  A    between atoms: C_7  and  C_8
REMARK    4  A    between atoms: C_8  and  C_9
REMARK    5  A    between atoms: C_13  and  N_14
REMARK                            x       y       z     vdW  Elec       q    Type
REMARK                         _______ _______ _______ _____ _____    ______ ____
ROOT
ATOM      1  C   UNL     1       4.503   5.591  17.714  0.00  0.00    +0.000 A 
ATOM      2  C   UNL     1       5.585   5.419  18.596  0.00  0.00    +0.000 A 
ATOM      3  C   UNL     1       6.835   4.997  18.145  0.00  0.00    +0.000 A 
ATOM      4  C   UNL     1       7.039   4.730  16.790  0.00  0.00    +0.000 A 
ATOM      5  C   UNL     1       6.005   4.889  15.867  0.00  0.00    +0.000 A 
ATOM      6  C   UNL     1       4.765   5.342  16.348  0.00  0.00    +0.000 A 
ENDROOT
BRANCH   5   7
ATOM      7  N   UNL     1       6.158   4.555  14.493  0.00  0.00    +0.000 N 
ATOM      8  C   UNL     1       5.236   3.672  13.809  0.00  0.00    +0.000 C 
ATOM      9  C   UNL     1       5.900   3.451  12.498  0.00  0.00    +0.000 C 
ATOM     10  C   UNL     1       7.013   4.171  12.410  0.00  0.00    +0.000 C 
ATOM     11  F   UNL     1       7.878   4.215  11.391  0.00  0.00    +0.000 F 
ATOM     12  C   UNL     1       7.220   4.921  13.659  0.00  0.00    +0.000 C 
ATOM     13  O   UNL     1       8.154   5.680  13.852  0.00  0.00    +0.000 OA
ENDBRANCH   5   7
BRANCH   1  14
ATOM     14  C   UNL     1       3.032   5.994  18.222  0.00  0.00    +0.000 C 
ATOM     15  C   UNL     1       2.879   6.452  19.703  0.00  0.00    +0.000 C 
ATOM     16  O   UNL     1       2.403   7.757  19.316  0.00  0.00    +0.000 OA
ATOM     17  C   UNL     1       2.602   7.460  17.922  0.00  0.00    +0.000 C 
BRANCH  14  18
ATOM     18  C   UNL     1       1.981   4.972  17.744  0.00  0.00    +0.000 C 
BRANCH  18  24
ATOM     19  C   UNL     1       0.853   3.617  20.375  0.00  0.00    +0.000 C 
ATOM     20  N   UNL     1       1.735   3.032  19.397  0.00  0.00    +0.000 N 
ATOM     21  C   UNL     1       2.276   1.786  19.486  0.00  0.00    +0.000 A 
ATOM     22  N   UNL     1       3.019   1.555  18.431  0.00  0.00    +0.000 NA
ATOM     23  N   UNL     1       2.980   2.679  17.645  0.00  0.00    +0.000 NA
ATOM     24  C   UNL     1       2.214   3.578  18.235  0.00  0.00    +0.000 A 
ENDBRANCH  18  24
ENDBRANCH  14  18
ENDBRANCH   1  14
TORSDOF 4
ENDMDL
MODEL 4
REMARK VINA RESULT:      -7.9      2.111      3.327
REMARK  Name = 
REMARK  5 active torsions:
REMARK  status: ('A' for Active; 'I' for Inactive)
REMARK    1  A    between atoms: C_1  and  N_2
REMARK    2  A    between atoms: C_6  and  C_7
REMARK    3  A    between atoms: C_7  and  C_8
REMARK    4  A    between atoms: C_8  and  C_9
REMARK    5  A    between atoms: C_13  and  N_14
REMARK                            x       y       z     vdW  Elec       q    Type
REMARK                         _______ _______ _______ _____ _____    ______ ____
ROOT
ATOM      1  C   UNL     1       4.781   5.540  16.651  0.00  0.00    +0.000 A 
ATOM      2  C   UNL     1       4.419   6.896  16.732  0.00  0.00    +0.000 A 
ATOM      3  C   UNL     1       3.387   7.328  17.565  0.00  0.00    +0.000 A 
ATOM      4  C   UNL     1       2.682   6.408  18.344  0.00  0.00    +0.000 A 
ATOM      5  C   UNL     1       3.002   5.051  18.310  0.00  0.00    +0.000 A 
ATOM      6  C   UNL     1       4.063   4.650  17.482  0.00  0.00    +0.000 A 
ENDROOT
BRANCH   5   7
ATOM      7  N   UNL     1       2.256   4.080  19.033  0.00  0.00    +0.000 N 
ATOM      8  C   UNL     1       1.400   3.117  18.370  0.00  0.00    +0.000 C 
ATOM      9  C   UNL     1       0.683   2.477  19.503  0.00  0.00    +0.000 C 
ATOM     10  C   UNL     1       1.123   2.949  20.664  0.00  0.00    +0.000 C 
ATOM     11  F   UNL     1       0.703   2.623  21.890  0.00  0.00    +0.000 F 
ATOM     12  C   UNL     1       2.155   3.972  20.425  0.00  0.00    +0.000 C 
ATOM     13  O   UNL     1       2.748   4.563  21.311  0.00  0.00    +0.000 OA
ENDBRANCH   5   7
BRANCH   1  14
ATOM     14  C   UNL     1       5.909   5.008  15.636  0.00  0.00    +0.000 C 
ATOM     15  C   UNL     1       5.908   3.490  15.285  0.00  0.00    +0.000 C 
ATOM     16  O   UNL     1       5.682   3.749  13.885  0.00  0.00    +0.000 OA
ATOM     17  C   UNL     1       5.570   5.163  14.124  0.00  0.00    +0.000 C 
BRANCH  14  18
ATOM     18  C   UNL     1       7.291   5.595  15.984  0.00  0.00    +0.000 C 
BRANCH  18  24
ATOM     19  C   UNL     1       7.775   8.190  17.734  0.00  0.00    +0.000 C 
ATOM     20  N   UNL     1       7.805   6.818  18.174  0.00  0.00    +0.000 N 
ATOM     21  C   UNL     1       8.108   6.415  19.439  0.00  0.00    +0.000 A 
ATOM     22  N   UNL     1       8.033   5.108  19.511  0.00  0.00    +0.000 NA
ATOM     23  N   UNL     1       7.694   4.645  18.264  0.00  0.00    +0.000 NA
ATOM     24  C   UNL     1       7.570   5.678  17.452  0.00  0.00    +0.000 A 
ENDBRANCH  18  24
ENDBRANCH  14  18
ENDBRANCH   1  14
TORSDOF 4
ENDMDL
MODEL 5
REMARK VINA RESULT:      -7.8      1.174      1.405
REMARK  Name = 
REMARK  5 active torsions:
REMARK  status: ('A' for Active; 'I' for Inactive)
REMARK    1  A    between atoms: C_1  and  N_2
REMARK    2  A    between atoms: C_6  and  C_7
REMARK    3  A    between atoms: C_7  and  C_8
REMARK    4  A    between atoms: C_8  and  C_9
REMARK    5  A    between atoms: C_13  and  N_14
REMARK                            x       y       z     vdW  Elec       q    Type
REMARK                         _______ _______ _______ _____ _____    ______ ____
ROOT
ATOM      1  C   UNL     1       5.382   6.299  18.139  0.00  0.00    +0.000 A 
ATOM      2  C   UNL     1       4.831   7.411  17.479  0.00  0.00    +0.000 A 
ATOM      3  C   UNL     1       3.455   7.632  17.443  0.00  0.00    +0.000 A 
ATOM      4  C   UNL     1       2.584   6.737  18.069  0.00  0.00    +0.000 A 
ATOM      5  C   UNL     1       3.074   5.619  18.745  0.00  0.00    +0.000 A 
ATOM      6  C   UNL     1       4.466   5.439  18.786  0.00  0.00    +0.000 A 
ENDROOT
BRANCH   5   7
ATOM      7  N   UNL     1       2.212   4.651  19.328  0.00  0.00    +0.000 N 
ATOM      8  C   UNL     1       2.121   4.466  20.762  0.00  0.00    +0.000 C 
ATOM      9  C   UNL     1       1.290   3.240  20.886  0.00  0.00    +0.000 C 
ATOM     10  C   UNL     1       0.892   2.821  19.690  0.00  0.00    +0.000 C 
ATOM     11  F   UNL     1       0.149   1.746  19.407  0.00  0.00    +0.000 F 
ATOM     12  C   UNL     1       1.438   3.704  18.647  0.00  0.00    +0.000 C 
ATOM     13  O   UNL     1       1.220   3.569  17.455  0.00  0.00    +0.000 OA
ENDBRANCH   5   7
BRANCH   1  14
ATOM     14  C   UNL     1       6.958   5.978  18.120  0.00  0.00    +0.000 C 
ATOM     15  C   UNL     1       7.931   7.151  17.801  0.00  0.00    +0.000 C 
ATOM     16  O   UNL     1       8.578   7.046  19.086  0.00  0.00    +0.000 OA
ATOM     17  C   UNL     1       7.662   6.021  19.508  0.00  0.00    +0.000 C 
BRANCH  14  18
ATOM     18  C   UNL     1       7.248   4.667  17.362  0.00  0.00    +0.000 C 
BRANCH  18  24
ATOM     19  C   UNL     1       4.700   3.473  15.908  0.00  0.00    +0.000 C 
ATOM     20  N   UNL     1       5.814   4.159  15.303  0.00  0.00    +0.000 N 
ATOM     21  C   UNL     1       5.969   4.359  13.965  0.00  0.00    +0.000 A 
ATOM     22  N   UNL     1       7.076   5.026  13.748  0.00  0.00    +0.000 NA
ATOM     23  N   UNL     1       7.669   5.250  14.965  0.00  0.00    +0.000 NA
ATOM     24  C   UNL     1       6.912   4.714  15.905  0.00  0.00    +0.000 A 
ENDBRANCH  18  24
ENDBRANCH  14  18
ENDBRANCH   1  14
TORSDOF 4
ENDMDL
MODEL 6
REMARK VINA RESULT:      -7.7      4.131      6.119
REMARK  Name = 
REMARK  5 active torsions:
REMARK  status: ('A' for Active; 'I' for Inactive)
REMARK    1  A    between atoms: C_1  and  N_2
REMARK    2  A    between atoms: C_6  and  C_7
REMARK    3  A    between atoms: C_7  and  C_8
REMARK    4  A    between atoms: C_8  and  C_9
REMARK    5  A    between atoms: C_13  and  N_14
REMARK                            x       y       z     vdW  Elec       q    Type
REMARK                         _______ _______ _______ _____ _____    ______ ____
ROOT
ATOM      1  C   UNL     1       2.567   7.287  18.600  0.00  0.00    +0.000 A 
ATOM      2  C   UNL     1       2.562   8.170  17.506  0.00  0.00    +0.000 A 
ATOM      3  C   UNL     1       1.958   9.425  17.583  0.00  0.00    +0.000 A 
ATOM      4  C   UNL     1       1.336   9.833  18.765  0.00  0.00    +0.000 A 
ATOM      5  C   UNL     1       1.315   9.002  19.885  0.00  0.00    +0.000 A 
ATOM      6  C   UNL     1       1.955   7.755  19.785  0.00  0.00    +0.000 A 
ENDROOT
BRANCH   5   7
ATOM      7  N   UNL     1       0.626   9.356  21.077  0.00  0.00    +0.000 N 
ATOM      8  C   UNL     1      -0.128   8.387  21.846  0.00  0.00    +0.000 C 
ATOM      9  C   UNL     1      -0.829   9.233  22.848  0.00  0.00    +0.000 C 
ATOM     10  C   UNL     1      -0.465  10.504  22.723  0.00  0.00    +0.000 C 
ATOM     11  F   UNL     1      -0.897  11.550  23.436  0.00  0.00    +0.000 F 
ATOM     12  C   UNL     1       0.489  10.642  21.611  0.00  0.00    +0.000 C 
ATOM     13  O   UNL     1       1.005  11.696  21.281  0.00  0.00    +0.000 OA
ENDBRANCH   5   7
BRANCH   1  14
ATOM     14  C   UNL     1       3.181   5.803  18.508  0.00  0.00    +0.000 C 
ATOM     15  C   UNL     1       4.150   5.494  17.329  0.00  0.00    +0.000 C 
ATOM     16  O   UNL     1       5.243   5.196  18.222  0.00  0.00    +0.000 OA
ATOM     17  C   UNL     1       4.454   5.555  19.370  0.00  0.00    +0.000 C 
BRANCH  14  18
ATOM     18  C   UNL     1       2.095   4.737  18.756  0.00  0.00    +0.000 C 
BRANCH  18  24
ATOM     19  C   UNL     1       3.568   1.953  19.088  0.00  0.00    +0.000 C 
ATOM     20  N   UNL     1       2.908   2.723  20.112  0.00  0.00    +0.000 N 
ATOM     21  C   UNL     1       2.768   2.332  21.409  0.00  0.00    +0.000 A 
ATOM     22  N   UNL     1       2.135   3.263  22.080  0.00  0.00    +0.000 NA
ATOM     23  N   UNL     1       1.835   4.275  21.202  0.00  0.00    +0.000 NA
ATOM     24  C   UNL     1       2.291   3.942  20.008  0.00  0.00    +0.000 A 
ENDBRANCH  18  24
ENDBRANCH  14  18
ENDBRANCH   1  14
TORSDOF 4
ENDMDL
MODEL 7
REMARK VINA RESULT:      -7.7      1.006      1.045
REMARK  Name = 
REMARK  5 active torsions:
REMARK  status: ('A' for Active; 'I' for Inactive)
REMARK    1  A    between atoms: C_1  and  N_2
REMARK    2  A    between atoms: C_6  and  C_7
REMARK    3  A    between atoms: C_7  and  C_8
REMARK    4  A    between atoms: C_8  and  C_9
REMARK    5  A    between atoms: C_13  and  N_14
REMARK                            x       y       z     vdW  Elec       q    Type
REMARK                         _______ _______ _______ _____ _____    ______ ____
ROOT
ATOM      1  C   UNL     1       5.405   6.094  18.128  0.00  0.00    +0.000 A 
ATOM      2  C   UNL     1       4.632   6.978  17.354  0.00  0.00    +0.000 A 
ATOM      3  C   UNL     1       3.240   6.986  17.426  0.00  0.00    +0.000 A 
ATOM      4  C   UNL     1       2.576   6.102  18.278  0.00  0.00    +0.000 A 
ATOM      5  C   UNL     1       3.290   5.206  19.074  0.00  0.00    +0.000 A 
ATOM      6  C   UNL     1       4.692   5.240  19.000  0.00  0.00    +0.000 A 
ENDROOT
BRANCH   5   7
ATOM      7  N   UNL     1       2.643   4.242  19.896  0.00  0.00    +0.000 N 
ATOM      8  C   UNL     1       1.291   4.430  20.382  0.00  0.00    +0.000 C 
ATOM      9  C   UNL     1       1.128   3.309  21.345  0.00  0.00    +0.000 C 
ATOM     10  C   UNL     1       2.208   2.536  21.352  0.00  0.00    +0.000 C 
ATOM     11  F   UNL     1       2.431   1.450  22.100  0.00  0.00    +0.000 F 
ATOM     12  C   UNL     1       3.212   3.077  20.421  0.00  0.00    +0.000 C 
ATOM     13  O   UNL     1       4.296   2.560  20.210  0.00  0.00    +0.000 OA
ENDBRANCH   5   7
BRANCH   1  14
ATOM     14  C   UNL     1       7.005   6.007  17.999  0.00  0.00    +0.000 C 
ATOM     15  C   UNL     1       7.770   7.304  17.600  0.00  0.00    +0.000 C 
ATOM     16  O   UNL     1       8.514   7.320  18.836  0.00  0.00    +0.000 OA
ATOM     17  C   UNL     1       7.791   6.180  19.332  0.00  0.00    +0.000 C 
BRANCH  14  18
ATOM     18  C   UNL     1       7.432   4.738  17.234  0.00  0.00    +0.000 C 
BRANCH  18  24
ATOM     19  C   UNL     1       4.904   3.366  15.909  0.00  0.00    +0.000 C 
ATOM     20  N   UNL     1       5.952   4.100  15.245  0.00  0.00    +0.000 N 
ATOM     21  C   UNL     1       6.043   4.275  13.898  0.00  0.00    +0.000 A 
ATOM     22  N   UNL     1       7.101   4.998  13.622  0.00  0.00    +0.000 NA
ATOM     23  N   UNL     1       7.726   5.285  14.810  0.00  0.00    +0.000 NA
ATOM     24  C   UNL     1       7.039   4.731  15.790  0.00  0.00    +0.000 A 
ENDBRANCH  18  24
ENDBRANCH  14  18
ENDBRANCH   1  14
TORSDOF 4
ENDMDL
MODEL 8
REMARK VINA RESULT:      -7.7      3.260      6.898
REMARK  Name = 
REMARK  5 active torsions:
REMARK  status: ('A' for Active; 'I' for Inactive)
REMARK    1  A    between atoms: C_1  and  N_2
REMARK    2  A    between atoms: C_6  and  C_7
REMARK    3  A    between atoms: C_7  and  C_8
REMARK    4  A    between atoms: C_8  and  C_9
REMARK    5  A    between atoms: C_13  and  N_14
REMARK                            x       y       z     vdW  Elec       q    Type
REMARK                         _______ _______ _______ _____ _____    ______ ____
ROOT
ATOM      1  C   UNL     1       5.006   5.555  17.949  0.00  0.00    +0.000 A 
ATOM      2  C   UNL     1       6.172   5.367  18.713  0.00  0.00    +0.000 A 
ATOM      3  C   UNL     1       7.366   4.945  18.132  0.00  0.00    +0.000 A 
ATOM      4  C   UNL     1       7.429   4.694  16.760  0.00  0.00    +0.000 A 
ATOM      5  C   UNL     1       6.307   4.869  15.950  0.00  0.00    +0.000 A 
ATOM      6  C   UNL     1       5.125   5.321  16.560  0.00  0.00    +0.000 A 
ENDROOT
BRANCH   5   7
ATOM      7  N   UNL     1       6.316   4.551  14.564  0.00  0.00    +0.000 N 
ATOM      8  C   UNL     1       5.340   3.659  13.973  0.00  0.00    +0.000 C 
ATOM      9  C   UNL     1       5.863   3.462  12.595  0.00  0.00    +0.000 C 
ATOM     10  C   UNL     1       6.949   4.201  12.396  0.00  0.00    +0.000 C 
ATOM     11  F   UNL     1       7.698   4.269  11.291  0.00  0.00    +0.000 F 
ATOM     12  C   UNL     1       7.278   4.942  13.625  0.00  0.00    +0.000 C 
ATOM     13  O   UNL     1       8.215   5.715  13.725  0.00  0.00    +0.000 OA
ENDBRANCH   5   7
BRANCH   1  14
ATOM     14  C   UNL     1       3.597   5.958  18.610  0.00  0.00    +0.000 C 
ATOM     15  C   UNL     1       3.041   7.383  18.314  0.00  0.00    +0.000 C 
ATOM     16  O   UNL     1       1.860   6.858  17.674  0.00  0.00    +0.000 OA
ATOM     17  C   UNL     1       2.336   5.508  17.815  0.00  0.00    +0.000 C 
BRANCH  14  18
ATOM     18  C   UNL     1       3.535   5.529  20.090  0.00  0.00    +0.000 C 
BRANCH  18  24
ATOM     19  C   UNL     1       4.212   2.449  19.794  0.00  0.00    +0.000 C 
ATOM     20  N   UNL     1       2.954   3.037  20.183  0.00  0.00    +0.000 N 
ATOM     21  C   UNL     1       1.816   2.336  20.440  0.00  0.00    +0.000 A 
ATOM     22  N   UNL     1       0.859   3.165  20.779  0.00  0.00    +0.000 NA
ATOM     23  N   UNL     1       1.375   4.436  20.724  0.00  0.00    +0.000 NA
ATOM     24  C   UNL     1       2.639   4.360  20.351  0.00  0.00    +0.000 A 
ENDBRANCH  18  24
ENDBRANCH  14  18
ENDBRANCH   1  14
TORSDOF 4
ENDMDL
MODEL 9
REMARK VINA RESULT:      -7.6      3.331      7.211
REMARK  Name = 
REMARK  5 active torsions:
REMARK  status: ('A' for Active; 'I' for Inactive)
REMARK    1  A    between atoms: C_1  and  N_2
REMARK    2  A    between atoms: C_6  and  C_7
REMARK    3  A    between atoms: C_7  and  C_8
REMARK    4  A    between atoms: C_8  and  C_9
REMARK    5  A    between atoms: C_13  and  N_14
REMARK                            x       y       z     vdW  Elec       q    Type
REMARK                         _______ _______ _______ _____ _____    ______ ____
ROOT
ATOM      1  C   UNL     1       5.176   4.679  17.748  0.00  0.00    +0.000 A 
ATOM      2  C   UNL     1       6.397   4.861  18.421  0.00  0.00    +0.000 A 
ATOM      3  C   UNL     1       7.608   4.927  17.733  0.00  0.00    +0.000 A 
ATOM      4  C   UNL     1       7.633   4.809  16.342  0.00  0.00    +0.000 A 
ATOM      5  C   UNL     1       6.452   4.634  15.620  0.00  0.00    +0.000 A 
ATOM      6  C   UNL     1       5.246   4.598  16.339  0.00  0.00    +0.000 A 
ENDROOT
BRANCH   5   7
ATOM      7  N   UNL     1       6.449   4.436  14.212  0.00  0.00    +0.000 N 
ATOM      8  C   UNL     1       5.513   3.541  13.563  0.00  0.00    +0.000 C 
ATOM      9  C   UNL     1       6.015   3.492  12.165  0.00  0.00    +0.000 C 
ATOM     10  C   UNL     1       7.051   4.310  12.011  0.00  0.00    +0.000 C 
ATOM     11  F   UNL     1       7.770   4.517  10.903  0.00  0.00    +0.000 F 
ATOM     12  C   UNL     1       7.364   4.963  13.293  0.00  0.00    +0.000 C 
ATOM     13  O   UNL     1       8.257   5.779  13.443  0.00  0.00    +0.000 OA
ENDBRANCH   5   7
BRANCH   1  14
ATOM     14  C   UNL     1       3.779   4.515  18.526  0.00  0.00    +0.000 C 
ATOM     15  C   UNL     1       3.502   5.469  19.726  0.00  0.00    +0.000 C 
ATOM     16  O   UNL     1       2.343   6.040  19.086  0.00  0.00    +0.000 OA
ATOM     17  C   UNL     1       2.572   5.269  17.893  0.00  0.00    +0.000 C 
BRANCH  14  18
ATOM     18  C   UNL     1       3.461   3.029  18.788  0.00  0.00    +0.000 C 
BRANCH  18  24
ATOM     19  C   UNL     1       0.351   2.896  19.374  0.00  0.00    +0.000 C 
ATOM     20  N   UNL     1       1.429   2.749  20.320  0.00  0.00    +0.000 N 
ATOM     21  C   UNL     1       1.267   2.578  21.661  0.00  0.00    +0.000 A 
ATOM     22  N   UNL     1       2.441   2.464  22.232  0.00  0.00    +0.000 NA
ATOM     23  N   UNL     1       3.392   2.584  21.250  0.00  0.00    +0.000 NA
ATOM     24  C   UNL     1       2.780   2.769  20.095  0.00  0.00    +0.000 A 
ENDBRANCH  18  24
ENDBRANCH  14  18
ENDBRANCH   1  14
TORSDOF 4
ENDMDL
