MODEL 1
REMARK VINA RESULT:      -9.5      0.000      0.000
REMARK  Name = 
REMARK  3 active torsions:
REMARK  status: ('A' for Active; 'I' for Inactive)
REMARK    1  A    between atoms: N_14  and  C_15
REMARK    2  A    between atoms: C_15  and  C_16
REMARK    3  A    between atoms: C_18  and  C_19
REMARK                            x       y       z     vdW  Elec       q    Type
REMARK                         _______ _______ _______ _____ _____    ______ ____
ROOT
ATOM      1  O   UNL     1       4.568   3.267  17.281  0.00  0.00    +0.000 OA
ATOM      2  S   UNL     1       5.026   4.201  18.277  0.00  0.00    +0.000 S 
ATOM      3  O   UNL     1       6.223   4.090  19.063  0.00  0.00    +0.000 OA
ATOM      4  C   UNL     1       3.841   3.837  19.539  0.00  0.00    +0.000 A 
ATOM      5  C   UNL     1       3.598   2.658  20.229  0.00  0.00    +0.000 A 
ATOM      6  C   UNL     1       2.555   2.685  21.165  0.00  0.00    +0.000 A 
ATOM      7  C   UNL     1       1.802   3.849  21.398  0.00  0.00    +0.000 A 
ATOM      8  C   UNL     1       2.081   5.035  20.689  0.00  0.00    +0.000 A 
ATOM      9  C   UNL     1       1.400   6.252  20.838  0.00  0.00    +0.000 A 
ATOM     10  C   UNL     1       1.769   7.366  20.069  0.00  0.00    +0.000 A 
ATOM     11  C   UNL     1       2.809   7.308  19.125  0.00  0.00    +0.000 A 
ATOM     12  C   UNL     1       3.465   6.088  18.967  0.00  0.00    +0.000 A 
ATOM     13  C   UNL     1       3.103   4.992  19.760  0.00  0.00    +0.000 A 
ATOM     14  N   UNL     1       4.515   5.787  18.016  0.00  0.00    +0.000 N 
ENDROOT
BRANCH  14  15
ATOM     15  C   UNL     1       5.238   6.708  17.158  0.00  0.00    +0.000 C 
BRANCH  15  16
ATOM     16  C   UNL     1       5.847   6.047  15.973  0.00  0.00    +0.000 A 
ATOM     17  N   UNL     1       5.262   5.440  14.968  0.00  0.00    +0.000 NA
ATOM     18  C   UNL     1       6.326   4.871  14.299  0.00  0.00    +0.000 A 
ATOM     19  N   UNL     1       7.521   5.155  14.845  0.00  0.00    +0.000 NA
ATOM     20  O   UNL     1       7.205   5.941  15.951  0.00  0.00    +0.000 OA
BRANCH  18  21
ATOM     21  C   UNL     1       6.137   3.987  13.155  0.00  0.00    +0.000 A 
ATOM     22  C   UNL     1       7.231   3.297  12.607  0.00  0.00    +0.000 A 
ATOM     23  C   UNL     1       7.061   2.436  11.520  0.00  0.00    +0.000 A 
ATOM     24  C   UNL     1       5.797   2.269  10.958  0.00  0.00    +0.000 A 
ATOM     25  C   UNL     1       4.712   2.970  11.478  0.00  0.00    +0.000 A 
ATOM     26 CL   UNL     1       3.156   2.783  10.765  0.00  0.00    +0.000 Cl
ATOM     27  C   UNL     1       4.873   3.823  12.570  0.00  0.00    +0.000 A 
ENDBRANCH  18  21
ENDBRANCH  15  16
ENDBRANCH  14  15
TORSDOF 3
ENDMDL
MODEL 2
REMARK VINA RESULT:      -8.8      0.971      1.343
REMARK  Name = 
REMARK  3 active torsions:
REMARK  status: ('A' for Active; 'I' for Inactive)
REMARK    1  A    between atoms: N_14  and  C_15
REMARK    2  A    between atoms: C_15  and  C_16
REMARK    3  A    between atoms: C_18  and  C_19
REMARK                            x       y       z     vdW  Elec       q    Type
REMARK                         _______ _______ _______ _____ _____    ______ ____
ROOT
ATOM      1  O   UNL     1       4.498   3.285  17.404  0.00  0.00    +0.000 OA
ATOM      2  S   UNL     1       4.946   4.188  18.432  0.00  0.00    +0.000 S 
ATOM      3  O   UNL     1       6.105   4.025  19.265  0.00  0.00    +0.000 OA
ATOM      4  C   UNL     1       3.697   3.849  19.640  0.00  0.00    +0.000 A 
ATOM      5  C   UNL     1       3.386   2.669  20.300  0.00  0.00    +0.000 A 
ATOM      6  C   UNL     1       2.307   2.719  21.193  0.00  0.00    +0.000 A 
ATOM      7  C   UNL     1       1.585   3.905  21.413  0.00  0.00    +0.000 A 
ATOM      8  C   UNL     1       1.933   5.090  20.734  0.00  0.00    +0.000 A 
ATOM      9  C   UNL     1       1.288   6.327  20.874  0.00  0.00    +0.000 A 
ATOM     10  C   UNL     1       1.726   7.439  20.137  0.00  0.00    +0.000 A 
ATOM     11  C   UNL     1       2.801   7.358  19.236  0.00  0.00    +0.000 A 
ATOM     12  C   UNL     1       3.422   6.118  19.087  0.00  0.00    +0.000 A 
ATOM     13  C   UNL     1       2.991   5.025  19.848  0.00  0.00    +0.000 A 
ATOM     14  N   UNL     1       4.499   5.795  18.175  0.00  0.00    +0.000 N 
ENDROOT
BRANCH  14  15
ATOM     15  C   UNL     1       5.289   6.702  17.362  0.00  0.00    +0.000 C 
BRANCH  15  16
ATOM     16  C   UNL     1       5.808   6.072  16.119  0.00  0.00    +0.000 A 
ATOM     17  N   UNL     1       5.151   5.484  15.147  0.00  0.00    +0.000 NA
ATOM     18  C   UNL     1       6.164   4.936  14.387  0.00  0.00    +0.000 A 
ATOM     19  N   UNL     1       7.396   5.214  14.848  0.00  0.00    +0.000 NA
ATOM     20  O   UNL     1       7.162   5.973  15.993  0.00  0.00    +0.000 OA
BRANCH  18  21
ATOM     21  C   UNL     1       5.892   4.078  13.241  0.00  0.00    +0.000 A 
ATOM     22  C   UNL     1       4.580   3.942  12.755  0.00  0.00    +0.000 A 
ATOM     23  C   UNL     1       4.309   3.133  11.648  0.00  0.00    +0.000 A 
ATOM     24  C   UNL     1       5.343   2.438  11.026  0.00  0.00    +0.000 A 
ATOM     25  C   UNL     1       6.642   2.545  11.519  0.00  0.00    +0.000 A 
ATOM     26 CL   UNL     1       7.915   1.664  10.765  0.00  0.00    +0.000 Cl
ATOM     27  C   UNL     1       6.922   3.360  12.616  0.00  0.00    +0.000 A 
ENDBRANCH  18  21
ENDBRANCH  15  16
ENDBRANCH  14  15
TORSDOF 3
ENDMDL
MODEL 3
REMARK VINA RESULT:      -8.4      5.713      7.916
REMARK  Name = 
REMARK  3 active torsions:
REMARK  status: ('A' for Active; 'I' for Inactive)
REMARK    1  A    between atoms: N_14  and  C_15
REMARK    2  A    between atoms: C_15  and  C_16
REMARK    3  A    between atoms: C_18  and  C_19
REMARK                            x       y       z     vdW  Elec       q    Type
REMARK                         _______ _______ _______ _____ _____    ______ ____
ROOT
ATOM      1  O   UNL     1       0.986  11.544  21.275  0.00  0.00    +0.000 OA
ATOM      2  S   UNL     1       0.773  12.084  19.957  0.00  0.00    +0.000 S 
ATOM      3  O   UNL     1       1.209  13.367  19.481  0.00  0.00    +0.000 OA
ATOM      4  C   UNL     1      -0.959  12.420  20.089  0.00  0.00    +0.000 A 
ATOM      5  C   UNL     1      -1.645  13.268  20.946  0.00  0.00    +0.000 A 
ATOM      6  C   UNL     1      -3.041  13.292  20.816  0.00  0.00    +0.000 A 
ATOM      7  C   UNL     1      -3.708  12.504  19.862  0.00  0.00    +0.000 A 
ATOM      8  C   UNL     1      -2.981  11.660  18.999  0.00  0.00    +0.000 A 
ATOM      9  C   UNL     1      -3.536  10.833  18.012  0.00  0.00    +0.000 A 
ATOM     10  C   UNL     1      -2.705  10.031  17.214  0.00  0.00    +0.000 A 
ATOM     11  C   UNL     1      -1.309  10.014  17.375  0.00  0.00    +0.000 A 
ATOM     12  C   UNL     1      -0.768  10.823  18.373  0.00  0.00    +0.000 A 
ATOM     13  C   UNL     1      -1.606  11.636  19.144  0.00  0.00    +0.000 A 
ATOM     14  N   UNL     1       0.627  10.912  18.752  0.00  0.00    +0.000 N 
ENDROOT
BRANCH  14  15
ATOM     15  C   UNL     1       1.778  10.341  18.077  0.00  0.00    +0.000 C 
BRANCH  15  16
ATOM     16  C   UNL     1       2.074   8.947  18.502  0.00  0.00    +0.000 A 
ATOM     17  N   UNL     1       2.424   7.912  17.775  0.00  0.00    +0.000 NA
ATOM     18  C   UNL     1       2.365   6.874  18.681  0.00  0.00    +0.000 A 
ATOM     19  N   UNL     1       2.035   7.260  19.925  0.00  0.00    +0.000 NA
ATOM     20  O   UNL     1       1.849   8.636  19.810  0.00  0.00    +0.000 OA
BRANCH  18  21
ATOM     21  C   UNL     1       2.571   5.487  18.281  0.00  0.00    +0.000 A 
ATOM     22  C   UNL     1       3.693   5.133  17.512  0.00  0.00    +0.000 A 
ATOM     23  C   UNL     1       3.910   3.804  17.134  0.00  0.00    +0.000 A 
ATOM     24  C   UNL     1       2.998   2.819  17.507  0.00  0.00    +0.000 A 
ATOM     25  C   UNL     1       1.869   3.167  18.246  0.00  0.00    +0.000 A 
ATOM     26 CL   UNL     1       0.729   1.953  18.682  0.00  0.00    +0.000 Cl
ATOM     27  C   UNL     1       1.652   4.489  18.636  0.00  0.00    +0.000 A 
ENDBRANCH  18  21
ENDBRANCH  15  16
ENDBRANCH  14  15
TORSDOF 3
ENDMDL
MODEL 4
REMARK VINA RESULT:      -8.4      1.171      1.293
REMARK  Name = 
REMARK  3 active torsions:
REMARK  status: ('A' for Active; 'I' for Inactive)
REMARK    1  A    between atoms: N_14  and  C_15
REMARK    2  A    between atoms: C_15  and  C_16
REMARK    3  A    between atoms: C_18  and  C_19
REMARK                            x       y       z     vdW  Elec       q    Type
REMARK                         _______ _______ _______ _____ _____    ______ ____
ROOT
ATOM      1  O   UNL     1       4.043   1.934  17.786  0.00  0.00    +0.000 OA
ATOM      2  S   UNL     1       4.544   2.770  18.846  0.00  0.00    +0.000 S 
ATOM      3  O   UNL     1       5.200   2.325  20.045  0.00  0.00    +0.000 OA
ATOM      4  C   UNL     1       2.994   3.253  19.551  0.00  0.00    +0.000 A 
ATOM      5  C   UNL     1       1.995   2.486  20.132  0.00  0.00    +0.000 A 
ATOM      6  C   UNL     1       0.859   3.174  20.579  0.00  0.00    +0.000 A 
ATOM      7  C   UNL     1       0.743   4.569  20.452  0.00  0.00    +0.000 A 
ATOM      8  C   UNL     1       1.781   5.322  19.867  0.00  0.00    +0.000 A 
ATOM      9  C   UNL     1       1.778   6.713  19.690  0.00  0.00    +0.000 A 
ATOM     10  C   UNL     1       2.873   7.351  19.087  0.00  0.00    +0.000 A 
ATOM     11  C   UNL     1       3.994   6.635  18.634  0.00  0.00    +0.000 A 
ATOM     12  C   UNL     1       3.980   5.250  18.794  0.00  0.00    +0.000 A 
ATOM     13  C   UNL     1       2.891   4.631  19.420  0.00  0.00    +0.000 A 
ATOM     14  N   UNL     1       4.992   4.317  18.346  0.00  0.00    +0.000 N 
ENDROOT
BRANCH  14  15
ATOM     15  C   UNL     1       6.309   4.612  17.810  0.00  0.00    +0.000 C 
BRANCH  15  16
ATOM     16  C   UNL     1       6.346   4.623  16.323  0.00  0.00    +0.000 A 
ATOM     17  N   UNL     1       5.707   3.858  15.469  0.00  0.00    +0.000 NA
ATOM     18  C   UNL     1       6.285   4.203  14.265  0.00  0.00    +0.000 A 
ATOM     19  N   UNL     1       7.211   5.173  14.368  0.00  0.00    +0.000 NA
ATOM     20  O   UNL     1       7.247   5.457  15.732  0.00  0.00    +0.000 OA
BRANCH  18  21
ATOM     21  C   UNL     1       5.958   3.511  13.024  0.00  0.00    +0.000 A 
ATOM     22  C   UNL     1       6.881   2.621  12.448  0.00  0.00    +0.000 A 
ATOM     23  C   UNL     1       6.574   1.941  11.266  0.00  0.00    +0.000 A 
ATOM     24  C   UNL     1       5.349   2.155  10.640  0.00  0.00    +0.000 A 
ATOM     25  C   UNL     1       4.440   3.056  11.190  0.00  0.00    +0.000 A 
ATOM     26 CL   UNL     1       2.937   3.340  10.401  0.00  0.00    +0.000 Cl
ATOM     27  C   UNL     1       4.735   3.730  12.376  0.00  0.00    +0.000 A 
ENDBRANCH  18  21
ENDBRANCH  15  16
ENDBRANCH  14  15
TORSDOF 3
ENDMDL
MODEL 5
REMARK VINA RESULT:      -8.3      5.700      7.911
REMARK  Name = 
REMARK  3 active torsions:
REMARK  status: ('A' for Active; 'I' for Inactive)
REMARK    1  A    between atoms: N_14  and  C_15
REMARK    2  A    between atoms: C_15  and  C_16
REMARK    3  A    between atoms: C_18  and  C_19
REMARK                            x       y       z     vdW  Elec       q    Type
REMARK                         _______ _______ _______ _____ _____    ______ ____
ROOT
ATOM      1  O   UNL     1       0.757  11.592  21.371  0.00  0.00    +0.000 OA
ATOM      2  S   UNL     1       0.570  12.155  20.059  0.00  0.00    +0.000 S 
ATOM      3  O   UNL     1       0.967  13.468  19.630  0.00  0.00    +0.000 OA
ATOM      4  C   UNL     1      -1.179  12.415  20.134  0.00  0.00    +0.000 A 
ATOM      5  C   UNL     1      -1.931  13.212  20.985  0.00  0.00    +0.000 A 
ATOM      6  C   UNL     1      -3.321  13.181  20.804  0.00  0.00    +0.000 A 
ATOM      7  C   UNL     1      -3.919  12.390  19.807  0.00  0.00    +0.000 A 
ATOM      8  C   UNL     1      -3.125  11.600  18.951  0.00  0.00    +0.000 A 
ATOM      9  C   UNL     1      -3.608  10.776  17.924  0.00  0.00    +0.000 A 
ATOM     10  C   UNL     1      -2.716  10.030  17.139  0.00  0.00    +0.000 A 
ATOM     11  C   UNL     1      -1.327  10.067  17.351  0.00  0.00    +0.000 A 
ATOM     12  C   UNL     1      -0.858  10.872  18.388  0.00  0.00    +0.000 A 
ATOM     13  C   UNL     1      -1.758  11.630  19.147  0.00  0.00    +0.000 A 
ATOM     14  N   UNL     1       0.517  11.010  18.821  0.00  0.00    +0.000 N 
ENDROOT
BRANCH  14  15
ATOM     15  C   UNL     1       1.715  10.505  18.176  0.00  0.00    +0.000 C 
BRANCH  15  16
ATOM     16  C   UNL     1       2.025   9.096  18.537  0.00  0.00    +0.000 A 
ATOM     17  N   UNL     1       2.481   8.125  17.781  0.00  0.00    +0.000 NA
ATOM     18  C   UNL     1       2.380   7.026  18.609  0.00  0.00    +0.000 A 
ATOM     19  N   UNL     1       1.921   7.317  19.839  0.00  0.00    +0.000 NA
ATOM     20  O   UNL     1       1.692   8.690  19.795  0.00  0.00    +0.000 OA
BRANCH  18  21
ATOM     21  C   UNL     1       2.676   5.677  18.142  0.00  0.00    +0.000 A 
ATOM     22  C   UNL     1       1.790   4.623  18.421  0.00  0.00    +0.000 A 
ATOM     23  C   UNL     1       2.055   3.327  17.967  0.00  0.00    +0.000 A 
ATOM     24  C   UNL     1       3.218   3.070  17.245  0.00  0.00    +0.000 A 
ATOM     25  C   UNL     1       4.115   4.104  16.988  0.00  0.00    +0.000 A 
ATOM     26 CL   UNL     1       5.565   3.778  16.118  0.00  0.00    +0.000 Cl
ATOM     27  C   UNL     1       3.851   5.402  17.428  0.00  0.00    +0.000 A 
ENDBRANCH  18  21
ENDBRANCH  15  16
ENDBRANCH  14  15
TORSDOF 3
ENDMDL
MODEL 6
REMARK VINA RESULT:      -8.3      5.678      8.052
REMARK  Name = 
REMARK  3 active torsions:
REMARK  status: ('A' for Active; 'I' for Inactive)
REMARK    1  A    between atoms: N_14  and  C_15
REMARK    2  A    between atoms: C_15  and  C_16
REMARK    3  A    between atoms: C_18  and  C_19
REMARK                            x       y       z     vdW  Elec       q    Type
REMARK                         _______ _______ _______ _____ _____    ______ ____
ROOT
ATOM      1  O   UNL     1       0.847  11.014  21.519  0.00  0.00    +0.000 OA
ATOM      2  S   UNL     1       0.767  11.653  20.231  0.00  0.00    +0.000 S 
ATOM      3  O   UNL     1       1.354  12.913  19.866  0.00  0.00    +0.000 OA
ATOM      4  C   UNL     1      -0.929  12.155  20.293  0.00  0.00    +0.000 A 
ATOM      5  C   UNL     1      -1.578  13.013  21.168  0.00  0.00    +0.000 A 
ATOM      6  C   UNL     1      -2.955  13.187  20.967  0.00  0.00    +0.000 A 
ATOM      7  C   UNL     1      -3.638  12.532  19.927  0.00  0.00    +0.000 A 
ATOM      8  C   UNL     1      -2.947  11.674  19.048  0.00  0.00    +0.000 A 
ATOM      9  C   UNL     1      -3.521  10.971  17.979  0.00  0.00    +0.000 A 
ATOM     10  C   UNL     1      -2.726  10.140  17.173  0.00  0.00    +0.000 A 
ATOM     11  C   UNL     1      -1.351   9.971  17.407  0.00  0.00    +0.000 A 
ATOM     12  C   UNL     1      -0.793  10.656  18.485  0.00  0.00    +0.000 A 
ATOM     13  C   UNL     1      -1.593  11.502  19.264  0.00  0.00    +0.000 A 
ATOM     14  N   UNL     1       0.578  10.580  18.943  0.00  0.00    +0.000 N 
ENDROOT
BRANCH  14  15
ATOM     15  C   UNL     1       1.706   9.938  18.293  0.00  0.00    +0.000 C 
BRANCH  15  16
ATOM     16  C   UNL     1       1.988   8.576  18.820  0.00  0.00    +0.000 A 
ATOM     17  N   UNL     1       2.424   7.513  18.187  0.00  0.00    +0.000 NA
ATOM     18  C   UNL     1       2.303   6.524  19.141  0.00  0.00    +0.000 A 
ATOM     19  N   UNL     1       1.852   6.969  20.327  0.00  0.00    +0.000 NA
ATOM     20  O   UNL     1       1.650   8.331  20.118  0.00  0.00    +0.000 OA
BRANCH  18  21
ATOM     21  C   UNL     1       2.572   5.123  18.840  0.00  0.00    +0.000 A 
ATOM     22  C   UNL     1       2.006   4.523  17.702  0.00  0.00    +0.000 A 
ATOM     23  C   UNL     1       2.267   3.185  17.395  0.00  0.00    +0.000 A 
ATOM     24  C   UNL     1       3.084   2.427  18.232  0.00  0.00    +0.000 A 
ATOM     25  C   UNL     1       3.627   3.007  19.376  0.00  0.00    +0.000 A 
ATOM     26 CL   UNL     1       4.614   2.062  20.423  0.00  0.00    +0.000 Cl
ATOM     27  C   UNL     1       3.379   4.345  19.683  0.00  0.00    +0.000 A 
ENDBRANCH  18  21
ENDBRANCH  15  16
ENDBRANCH  14  15
TORSDOF 3
ENDMDL
MODEL 7
REMARK VINA RESULT:      -8.3      6.489      9.034
REMARK  Name = 
REMARK  3 active torsions:
REMARK  status: ('A' for Active; 'I' for Inactive)
REMARK    1  A    between atoms: N_14  and  C_15
REMARK    2  A    between atoms: C_15  and  C_16
REMARK    3  A    between atoms: C_18  and  C_19
REMARK                            x       y       z     vdW  Elec       q    Type
REMARK                         _______ _______ _______ _____ _____    ______ ____
ROOT
ATOM      1  O   UNL     1      -0.914  11.662  21.583  0.00  0.00    +0.000 OA
ATOM      2  S   UNL     1      -0.801  12.243  20.270  0.00  0.00    +0.000 S 
ATOM      3  O   UNL     1      -0.429  13.597  19.966  0.00  0.00    +0.000 OA
ATOM      4  C   UNL     1      -2.525  12.345  19.880  0.00  0.00    +0.000 A 
ATOM      5  C   UNL     1      -3.545  13.047  20.504  0.00  0.00    +0.000 A 
ATOM      6  C   UNL     1      -4.829  12.898  19.961  0.00  0.00    +0.000 A 
ATOM      7  C   UNL     1      -5.067  12.086  18.839  0.00  0.00    +0.000 A 
ATOM      8  C   UNL     1      -4.006  11.393  18.221  0.00  0.00    +0.000 A 
ATOM      9  C   UNL     1      -4.123  10.559  17.100  0.00  0.00    +0.000 A 
ATOM     10  C   UNL     1      -2.990   9.917  16.577  0.00  0.00    +0.000 A 
ATOM     11  C   UNL     1      -1.716  10.071  17.149  0.00  0.00    +0.000 A 
ATOM     12  C   UNL     1      -1.613  10.885  18.277  0.00  0.00    +0.000 A 
ATOM     13  C   UNL     1      -2.747  11.539  18.773  0.00  0.00    +0.000 A 
ATOM     14  N   UNL     1      -0.420  11.133  19.058  0.00  0.00    +0.000 N 
ENDROOT
BRANCH  14  15
ATOM     15  C   UNL     1       0.948  10.754  18.752  0.00  0.00    +0.000 C 
BRANCH  15  16
ATOM     16  C   UNL     1       1.369   9.493  19.419  0.00  0.00    +0.000 A 
ATOM     17  N   UNL     1       1.906   8.415  18.896  0.00  0.00    +0.000 NA
ATOM     18  C   UNL     1       1.891   7.529  19.953  0.00  0.00    +0.000 A 
ATOM     19  N   UNL     1       1.406   8.054  21.092  0.00  0.00    +0.000 NA
ATOM     20  O   UNL     1       1.066   9.359  20.740  0.00  0.00    +0.000 OA
BRANCH  18  21
ATOM     21  C   UNL     1       2.298   6.137  19.800  0.00  0.00    +0.000 A 
ATOM     22  C   UNL     1       3.105   5.752  18.716  0.00  0.00    +0.000 A 
ATOM     23  C   UNL     1       3.513   4.424  18.566  0.00  0.00    +0.000 A 
ATOM     24  C   UNL     1       3.105   3.463  19.489  0.00  0.00    +0.000 A 
ATOM     25  C   UNL     1       2.283   3.832  20.551  0.00  0.00    +0.000 A 
ATOM     26 CL   UNL     1       1.757   2.640  21.676  0.00  0.00    +0.000 Cl
ATOM     27  C   UNL     1       1.880   5.159  20.714  0.00  0.00    +0.000 A 
ENDBRANCH  18  21
ENDBRANCH  15  16
ENDBRANCH  14  15
TORSDOF 3
ENDMDL
MODEL 8
REMARK VINA RESULT:      -8.2      6.210      8.855
REMARK  Name = 
REMARK  3 active torsions:
REMARK  status: ('A' for Active; 'I' for Inactive)
REMARK    1  A    between atoms: N_14  and  C_15
REMARK    2  A    between atoms: C_15  and  C_16
REMARK    3  A    between atoms: C_18  and  C_19
REMARK                            x       y       z     vdW  Elec       q    Type
REMARK                         _______ _______ _______ _____ _____    ______ ____
ROOT
ATOM      1  O   UNL     1      -0.799  11.727  21.664  0.00  0.00    +0.000 OA
ATOM      2  S   UNL     1      -0.676  12.270  20.336  0.00  0.00    +0.000 S 
ATOM      3  O   UNL     1      -0.278  13.608  19.995  0.00  0.00    +0.000 OA
ATOM      4  C   UNL     1      -2.398  12.393  19.944  0.00  0.00    +0.000 A 
ATOM      5  C   UNL     1      -3.404  13.132  20.549  0.00  0.00    +0.000 A 
ATOM      6  C   UNL     1      -4.691  12.992  20.011  0.00  0.00    +0.000 A 
ATOM      7  C   UNL     1      -4.945  12.154  18.912  0.00  0.00    +0.000 A 
ATOM      8  C   UNL     1      -3.898  11.425  18.313  0.00  0.00    +0.000 A 
ATOM      9  C   UNL     1      -4.032  10.562  17.215  0.00  0.00    +0.000 A 
ATOM     10  C   UNL     1      -2.911   9.885  16.709  0.00  0.00    +0.000 A 
ATOM     11  C   UNL     1      -1.634  10.031  17.277  0.00  0.00    +0.000 A 
ATOM     12  C   UNL     1      -1.515  10.873  18.381  0.00  0.00    +0.000 A 
ATOM     13  C   UNL     1      -2.636  11.562  18.859  0.00  0.00    +0.000 A 
ATOM     14  N   UNL     1      -0.317  11.120  19.155  0.00  0.00    +0.000 N 
ENDROOT
BRANCH  14  15
ATOM     15  C   UNL     1       1.043  10.707  18.859  0.00  0.00    +0.000 C 
BRANCH  15  16
ATOM     16  C   UNL     1       1.413   9.412  19.492  0.00  0.00    +0.000 A 
ATOM     17  N   UNL     1       1.949   8.344  18.949  0.00  0.00    +0.000 NA
ATOM     18  C   UNL     1       1.875   7.419  19.969  0.00  0.00    +0.000 A 
ATOM     19  N   UNL     1       1.356   7.910  21.108  0.00  0.00    +0.000 NA
ATOM     20  O   UNL     1       1.056   9.235  20.795  0.00  0.00    +0.000 OA
BRANCH  18  21
ATOM     21  C   UNL     1       2.260   6.026  19.778  0.00  0.00    +0.000 A 
ATOM     22  C   UNL     1       1.878   5.053  20.717  0.00  0.00    +0.000 A 
ATOM     23  C   UNL     1       2.228   3.711  20.539  0.00  0.00    +0.000 A 
ATOM     24  C   UNL     1       2.978   3.332  19.428  0.00  0.00    +0.000 A 
ATOM     25  C   UNL     1       3.384   4.295  18.507  0.00  0.00    +0.000 A 
ATOM     26 CL   UNL     1       4.335   3.829  17.149  0.00  0.00    +0.000 Cl
ATOM     27  C   UNL     1       3.029   5.634  18.673  0.00  0.00    +0.000 A 
ENDBRANCH  18  21
ENDBRANCH  15  16
ENDBRANCH  14  15
TORSDOF 3
ENDMDL
MODEL 9
REMARK VINA RESULT:      -8.1      4.737      6.536
REMARK  Name = 
REMARK  3 active torsions:
REMARK  status: ('A' for Active; 'I' for Inactive)
REMARK    1  A    between atoms: N_14  and  C_15
REMARK    2  A    between atoms: C_15  and  C_16
REMARK    3  A    between atoms: C_18  and  C_19
REMARK                            x       y       z     vdW  Elec       q    Type
REMARK                         _______ _______ _______ _____ _____    ______ ____
ROOT
ATOM      1  O   UNL     1       4.845   3.340  16.756  0.00  0.00    +0.000 OA
ATOM      2  S   UNL     1       5.260   4.267  17.777  0.00  0.00    +0.000 S 
ATOM      3  O   UNL     1       6.252   4.032  18.790  0.00  0.00    +0.000 OA
ATOM      4  C   UNL     1       3.815   4.197  18.796  0.00  0.00    +0.000 A 
ATOM      5  C   UNL     1       3.250   3.129  19.479  0.00  0.00    +0.000 A 
ATOM      6  C   UNL     1       2.070   3.394  20.188  0.00  0.00    +0.000 A 
ATOM      7  C   UNL     1       1.496   4.677  20.212  0.00  0.00    +0.000 A 
ATOM      8  C   UNL     1       2.100   5.744  19.516  0.00  0.00    +0.000 A 
ATOM      9  C   UNL     1       1.620   7.061  19.470  0.00  0.00    +0.000 A 
ATOM     10  C   UNL     1       2.311   8.038  18.736  0.00  0.00    +0.000 A 
ATOM     11  C   UNL     1       3.484   7.742  18.021  0.00  0.00    +0.000 A 
ATOM     12  C   UNL     1       3.941   6.425  18.055  0.00  0.00    +0.000 A 
ATOM     13  C   UNL     1       3.256   5.467  18.812  0.00  0.00    +0.000 A 
ATOM     14  N   UNL     1       5.083   5.888  17.346  0.00  0.00    +0.000 N 
ENDROOT
BRANCH  14  15
ATOM     15  C   UNL     1       6.101   6.612  16.606  0.00  0.00    +0.000 C 
BRANCH  15  16
ATOM     16  C   UNL     1       7.011   7.400  17.479  0.00  0.00    +0.000 A 
ATOM     17  N   UNL     1       7.267   8.687  17.467  0.00  0.00    +0.000 NA
ATOM     18  C   UNL     1       8.314   8.794  18.358  0.00  0.00    +0.000 A 
ATOM     19  N   UNL     1       8.659   7.627  18.929  0.00  0.00    +0.000 NA
ATOM     20  O   UNL     1       7.790   6.703  18.352  0.00  0.00    +0.000 OA
BRANCH  18  21
ATOM     21  C   UNL     1       9.013  10.054  18.583  0.00  0.00    +0.000 A 
ATOM     22  C   UNL     1       9.594  10.741  17.504  0.00  0.00    +0.000 A 
ATOM     23  C   UNL     1      10.254  11.957  17.704  0.00  0.00    +0.000 A 
ATOM     24  C   UNL     1      10.355  12.490  18.987  0.00  0.00    +0.000 A 
ATOM     25  C   UNL     1       9.806  11.800  20.066  0.00  0.00    +0.000 A 
ATOM     26 CL   UNL     1       9.955  12.446  21.655  0.00  0.00    +0.000 Cl
ATOM     27  C   UNL     1       9.135  10.592  19.872  0.00  0.00    +0.000 A 
ENDBRANCH  18  21
ENDBRANCH  15  16
ENDBRANCH  14  15
TORSDOF 3
ENDMDL
