MODEL 1
REMARK VINA RESULT:      -8.2      0.000      0.000
REMARK  Name = 
REMARK  5 active torsions:
REMARK  status: ('A' for Active; 'I' for Inactive)
REMARK    1  A    between atoms: C_2  and  C_11
REMARK    2  A    between atoms: N_3  and  C_4
REMARK    3  A    between atoms: C_4  and  C_5
REMARK    4  A    between atoms: N_19  and  C_20
REMARK    5  A    between atoms: C_20  and  C_21
REMARK                            x       y       z     vdW  Elec       q    Type
REMARK                         _______ _______ _______ _____ _____    ______ ____
ROOT
ATOM      1  C   UNL     1       4.223   6.238  17.911  0.00  0.00    +0.000 A 
ATOM      2  C   UNL     1       3.787   7.318  17.161  0.00  0.00    +0.000 A 
ATOM      3  C   UNL     1       2.817   8.035  17.902  0.00  0.00    +0.000 A 
ATOM      4  C   UNL     1       2.045   9.181  17.632  0.00  0.00    +0.000 A 
ATOM      5  C   UNL     1       1.179   9.672  18.612  0.00  0.00    +0.000 A 
ATOM      6  C   UNL     1       1.086   9.043  19.849  0.00  0.00    +0.000 A 
ATOM      7  C   UNL     1       1.830   7.891  20.132  0.00  0.00    +0.000 A 
ATOM      8  C   UNL     1       2.681   7.389  19.131  0.00  0.00    +0.000 A 
ATOM      9  N   UNL     1       3.478   6.253  19.084  0.00  0.00    +0.000 N 
ENDROOT
BRANCH   1  11
ATOM     10  O   UNL     1       6.297   5.126  18.156  0.00  0.00    +0.000 OA
ATOM     11  C   UNL     1       5.237   5.260  17.556  0.00  0.00    +0.000 C 
ATOM     12  N   UNL     1       4.921   4.517  16.442  0.00  0.00    +0.000 N 
ATOM     13  H   UNL     1       4.126   4.804  15.890  0.00  0.00    +0.000 HD
BRANCH  12  14
ATOM     14  C   UNL     1       5.833   3.557  15.872  0.00  0.00    +0.000 C 
BRANCH  14  15
ATOM     15  C   UNL     1       6.393   4.027  14.558  0.00  0.00    +0.000 A 
ATOM     16  C   UNL     1       5.991   3.427  13.362  0.00  0.00    +0.000 A 
ATOM     17  C   UNL     1       6.522   3.891  12.168  0.00  0.00    +0.000 A 
ATOM     18  N   UNL     1       7.426   4.891  12.089  0.00  0.00    +0.000 NA
ATOM     19  C   UNL     1       7.814   5.449  13.254  0.00  0.00    +0.000 A 
ATOM     20  C   UNL     1       7.339   5.054  14.497  0.00  0.00    +0.000 A 
ENDBRANCH  14  15
ENDBRANCH  12  14
ENDBRANCH   1  11
BRANCH   9  21
ATOM     21  C   UNL     1       3.426   5.174  20.077  0.00  0.00    +0.000 C 
BRANCH  21  22
ATOM     22  C   UNL     1       2.632   3.954  19.684  0.00  0.00    +0.000 A 
ATOM     23  C   UNL     1       3.140   2.881  18.939  0.00  0.00    +0.000 A 
ATOM     24  C   UNL     1       2.298   1.858  18.489  0.00  0.00    +0.000 A 
ATOM     25  C   UNL     1       0.936   1.884  18.785  0.00  0.00    +0.000 A 
ATOM     26  C   UNL     1       0.417   2.929  19.543  0.00  0.00    +0.000 A 
ATOM     27  C   UNL     1       1.262   3.947  19.979  0.00  0.00    +0.000 A 
ATOM     28  F   UNL     1       0.731   4.957  20.685  0.00  0.00    +0.000 F 
ENDBRANCH  21  22
ENDBRANCH   9  21
TORSDOF 5
ENDMDL
MODEL 2
REMARK VINA RESULT:      -8.1      1.242      4.166
REMARK  Name = 
REMARK  5 active torsions:
REMARK  status: ('A' for Active; 'I' for Inactive)
REMARK    1  A    between atoms: C_2  and  C_11
REMARK    2  A    between atoms: N_3  and  C_4
REMARK    3  A    between atoms: C_4  and  C_5
REMARK    4  A    between atoms: N_19  and  C_20
REMARK    5  A    between atoms: C_20  and  C_21
REMARK                            x       y       z     vdW  Elec       q    Type
REMARK                         _______ _______ _______ _____ _____    ______ ____
ROOT
ATOM      1  C   UNL     1       3.821   4.838  17.525  0.00  0.00    +0.000 A 
ATOM      2  C   UNL     1       3.412   3.528  17.336  0.00  0.00    +0.000 A 
ATOM      3  C   UNL     1       2.401   3.218  18.276  0.00  0.00    +0.000 A 
ATOM      4  C   UNL     1       1.653   2.056  18.546  0.00  0.00    +0.000 A 
ATOM      5  C   UNL     1       0.677   2.084  19.546  0.00  0.00    +0.000 A 
ATOM      6  C   UNL     1       0.436   3.251  20.262  0.00  0.00    +0.000 A 
ATOM      7  C   UNL     1       1.181   4.413  20.023  0.00  0.00    +0.000 A 
ATOM      8  C   UNL     1       2.178   4.369  19.032  0.00  0.00    +0.000 A 
ATOM      9  N   UNL     1       3.109   5.314  18.619  0.00  0.00    +0.000 N 
ENDROOT
BRANCH   1  11
ATOM     10  O   UNL     1       4.635   6.721  16.344  0.00  0.00    +0.000 OA
ATOM     11  C   UNL     1       4.809   5.581  16.761  0.00  0.00    +0.000 C 
ATOM     12  N   UNL     1       5.955   4.868  16.501  0.00  0.00    +0.000 N 
ATOM     13  H   UNL     1       5.958   3.879  16.709  0.00  0.00    +0.000 HD
BRANCH  12  14
ATOM     14  C   UNL     1       7.020   5.392  15.681  0.00  0.00    +0.000 C 
BRANCH  14  15
ATOM     15  C   UNL     1       6.960   4.858  14.276  0.00  0.00    +0.000 A 
ATOM     16  C   UNL     1       6.079   3.824  13.948  0.00  0.00    +0.000 A 
ATOM     17  C   UNL     1       6.045   3.362  12.642  0.00  0.00    +0.000 A 
ATOM     18  N   UNL     1       6.830   3.845  11.656  0.00  0.00    +0.000 NA
ATOM     19  C   UNL     1       7.686   4.832  11.993  0.00  0.00    +0.000 A 
ATOM     20  C   UNL     1       7.792   5.361  13.272  0.00  0.00    +0.000 A 
ENDBRANCH  14  15
ENDBRANCH  12  14
ENDBRANCH   1  11
BRANCH   9  21
ATOM     21  C   UNL     1       3.374   6.569  19.332  0.00  0.00    +0.000 C 
BRANCH  21  22
ATOM     22  C   UNL     1       2.367   7.672  19.120  0.00  0.00    +0.000 A 
ATOM     23  C   UNL     1       2.221   8.396  17.929  0.00  0.00    +0.000 A 
ATOM     24  C   UNL     1       1.366   9.502  17.864  0.00  0.00    +0.000 A 
ATOM     25  C   UNL     1       0.635   9.897  18.984  0.00  0.00    +0.000 A 
ATOM     26  C   UNL     1       0.750   9.176  20.168  0.00  0.00    +0.000 A 
ATOM     27  C   UNL     1       1.610   8.082  20.227  0.00  0.00    +0.000 A 
ATOM     28  F   UNL     1       1.722   7.420  21.388  0.00  0.00    +0.000 F 
ENDBRANCH  21  22
ENDBRANCH   9  21
TORSDOF 5
ENDMDL
MODEL 3
REMARK VINA RESULT:      -8.1      2.610      6.622
REMARK  Name = 
REMARK  5 active torsions:
REMARK  status: ('A' for Active; 'I' for Inactive)
REMARK    1  A    between atoms: C_2  and  C_11
REMARK    2  A    between atoms: N_3  and  C_4
REMARK    3  A    between atoms: C_4  and  C_5
REMARK    4  A    between atoms: N_19  and  C_20
REMARK    5  A    between atoms: C_20  and  C_21
REMARK                            x       y       z     vdW  Elec       q    Type
REMARK                         _______ _______ _______ _____ _____    ______ ____
ROOT
ATOM      1  C   UNL     1       3.366   7.064  18.027  0.00  0.00    +0.000 A 
ATOM      2  C   UNL     1       4.710   7.324  17.810  0.00  0.00    +0.000 A 
ATOM      3  C   UNL     1       5.307   6.196  17.197  0.00  0.00    +0.000 A 
ATOM      4  C   UNL     1       6.618   5.905  16.775  0.00  0.00    +0.000 A 
ATOM      5  C   UNL     1       6.884   4.681  16.156  0.00  0.00    +0.000 A 
ATOM      6  C   UNL     1       5.862   3.760  15.948  0.00  0.00    +0.000 A 
ATOM      7  C   UNL     1       4.555   4.022  16.377  0.00  0.00    +0.000 A 
ATOM      8  C   UNL     1       4.301   5.246  17.020  0.00  0.00    +0.000 A 
ATOM      9  N   UNL     1       3.151   5.757  17.608  0.00  0.00    +0.000 N 
ENDROOT
BRANCH   1  11
ATOM     10  O   UNL     1       1.965   7.876  19.752  0.00  0.00    +0.000 OA
ATOM     11  C   UNL     1       2.369   7.953  18.597  0.00  0.00    +0.000 C 
ATOM     12  N   UNL     1       1.875   8.873  17.702  0.00  0.00    +0.000 N 
ATOM     13  H   UNL     1       2.110   8.761  16.726  0.00  0.00    +0.000 HD
BRANCH  12  14
ATOM     14  C   UNL     1       0.812   9.787  18.044  0.00  0.00    +0.000 C 
BRANCH  14  15
ATOM     15  C   UNL     1       1.335  11.036  18.698  0.00  0.00    +0.000 A 
ATOM     16  C   UNL     1       2.237  11.864  18.024  0.00  0.00    +0.000 A 
ATOM     17  C   UNL     1       2.692  13.012  18.654  0.00  0.00    +0.000 A 
ATOM     18  N   UNL     1       2.325  13.378  19.901  0.00  0.00    +0.000 NA
ATOM     19  C   UNL     1       1.466  12.559  20.543  0.00  0.00    +0.000 A 
ATOM     20  C   UNL     1       0.955  11.390  19.995  0.00  0.00    +0.000 A 
ENDBRANCH  14  15
ENDBRANCH  12  14
ENDBRANCH   1  11
BRANCH   9  21
ATOM     21  C   UNL     1       1.939   4.967  17.858  0.00  0.00    +0.000 C 
BRANCH  21  22
ATOM     22  C   UNL     1       1.934   4.151  19.125  0.00  0.00    +0.000 A 
ATOM     23  C   UNL     1       1.976   4.690  20.418  0.00  0.00    +0.000 A 
ATOM     24  C   UNL     1       2.119   3.860  21.536  0.00  0.00    +0.000 A 
ATOM     25  C   UNL     1       2.211   2.478  21.382  0.00  0.00    +0.000 A 
ATOM     26  C   UNL     1       2.147   1.923  20.108  0.00  0.00    +0.000 A 
ATOM     27  C   UNL     1       2.014   2.757  19.000  0.00  0.00    +0.000 A 
ATOM     28  F   UNL     1       1.982   2.198  17.781  0.00  0.00    +0.000 F 
ENDBRANCH  21  22
ENDBRANCH   9  21
TORSDOF 5
ENDMDL
MODEL 4
REMARK VINA RESULT:      -8.1      2.407      6.474
REMARK  Name = 
REMARK  5 active torsions:
REMARK  status: ('A' for Active; 'I' for Inactive)
REMARK    1  A    between atoms: C_2  and  C_11
REMARK    2  A    between atoms: N_3  and  C_4
REMARK    3  A    between atoms: C_4  and  C_5
REMARK    4  A    between atoms: N_19  and  C_20
REMARK    5  A    between atoms: C_20  and  C_21
REMARK                            x       y       z     vdW  Elec       q    Type
REMARK                         _______ _______ _______ _____ _____    ______ ____
ROOT
ATOM      1  C   UNL     1       3.472   6.895  17.903  0.00  0.00    +0.000 A 
ATOM      2  C   UNL     1       4.743   7.267  17.495  0.00  0.00    +0.000 A 
ATOM      3  C   UNL     1       5.362   6.169  16.852  0.00  0.00    +0.000 A 
ATOM      4  C   UNL     1       6.629   5.979  16.267  0.00  0.00    +0.000 A 
ATOM      5  C   UNL     1       6.931   4.754  15.667  0.00  0.00    +0.000 A 
ATOM      6  C   UNL     1       5.987   3.733  15.635  0.00  0.00    +0.000 A 
ATOM      7  C   UNL     1       4.728   3.894  16.227  0.00  0.00    +0.000 A 
ATOM      8  C   UNL     1       4.441   5.122  16.851  0.00  0.00    +0.000 A 
ATOM      9  N   UNL     1       3.333   5.554  17.569  0.00  0.00    +0.000 N 
ENDROOT
BRANCH   1  11
ATOM     10  O   UNL     1       2.119   7.553  19.729  0.00  0.00    +0.000 OA
ATOM     11  C   UNL     1       2.476   7.717  18.568  0.00  0.00    +0.000 C 
ATOM     12  N   UNL     1       1.924   8.681  17.756  0.00  0.00    +0.000 N 
ATOM     13  H   UNL     1       2.124   8.640  16.767  0.00  0.00    +0.000 HD
BRANCH  12  14
ATOM     14  C   UNL     1       0.853   9.540  18.197  0.00  0.00    +0.000 C 
BRANCH  14  15
ATOM     15  C   UNL     1       1.363  10.870  18.679  0.00  0.00    +0.000 A 
ATOM     16  C   UNL     1       2.268  11.603  17.906  0.00  0.00    +0.000 A 
ATOM     17  C   UNL     1       2.711  12.829  18.378  0.00  0.00    +0.000 A 
ATOM     18  N   UNL     1       2.329  13.361  19.558  0.00  0.00    +0.000 NA
ATOM     19  C   UNL     1       1.467  12.633  20.298  0.00  0.00    +0.000 A 
ATOM     20  C   UNL     1       0.967  11.397  19.911  0.00  0.00    +0.000 A 
ENDBRANCH  14  15
ENDBRANCH  12  14
ENDBRANCH   1  11
BRANCH   9  21
ATOM     21  C   UNL     1       2.249   4.670  18.012  0.00  0.00    +0.000 C 
BRANCH  21  22
ATOM     22  C   UNL     1       2.490   3.925  19.300  0.00  0.00    +0.000 A 
ATOM     23  C   UNL     1       3.568   3.057  19.526  0.00  0.00    +0.000 A 
ATOM     24  C   UNL     1       3.638   2.291  20.695  0.00  0.00    +0.000 A 
ATOM     25  C   UNL     1       2.638   2.386  21.663  0.00  0.00    +0.000 A 
ATOM     26  C   UNL     1       1.573   3.260  21.466  0.00  0.00    +0.000 A 
ATOM     27  C   UNL     1       1.507   4.012  20.296  0.00  0.00    +0.000 A 
ATOM     28  F   UNL     1       0.456   4.827  20.120  0.00  0.00    +0.000 F 
ENDBRANCH  21  22
ENDBRANCH   9  21
TORSDOF 5
ENDMDL
MODEL 5
REMARK VINA RESULT:      -8.0      3.315      7.591
REMARK  Name = 
REMARK  5 active torsions:
REMARK  status: ('A' for Active; 'I' for Inactive)
REMARK    1  A    between atoms: C_2  and  C_11
REMARK    2  A    between atoms: N_3  and  C_4
REMARK    3  A    between atoms: C_4  and  C_5
REMARK    4  A    between atoms: N_19  and  C_20
REMARK    5  A    between atoms: C_20  and  C_21
REMARK                            x       y       z     vdW  Elec       q    Type
REMARK                         _______ _______ _______ _____ _____    ______ ____
ROOT
ATOM      1  C   UNL     1       2.416   6.439  19.249  0.00  0.00    +0.000 A 
ATOM      2  C   UNL     1       1.616   5.930  20.260  0.00  0.00    +0.000 A 
ATOM      3  C   UNL     1       2.052   4.621  20.580  0.00  0.00    +0.000 A 
ATOM      4  C   UNL     1       1.607   3.651  21.499  0.00  0.00    +0.000 A 
ATOM      5  C   UNL     1       2.291   2.437  21.600  0.00  0.00    +0.000 A 
ATOM      6  C   UNL     1       3.409   2.191  20.810  0.00  0.00    +0.000 A 
ATOM      7  C   UNL     1       3.857   3.134  19.878  0.00  0.00    +0.000 A 
ATOM      8  C   UNL     1       3.148   4.343  19.764  0.00  0.00    +0.000 A 
ATOM      9  N   UNL     1       3.300   5.424  18.904  0.00  0.00    +0.000 N 
ENDROOT
BRANCH   1  11
ATOM     10  O   UNL     1       2.998   8.087  17.654  0.00  0.00    +0.000 OA
ATOM     11  C   UNL     1       2.350   7.756  18.641  0.00  0.00    +0.000 C 
ATOM     12  N   UNL     1       1.520   8.629  19.305  0.00  0.00    +0.000 N 
ATOM     13  H   UNL     1       1.166   8.353  20.209  0.00  0.00    +0.000 HD
BRANCH  12  14
ATOM     14  C   UNL     1       1.385  10.011  18.915  0.00  0.00    +0.000 C 
BRANCH  14  15
ATOM     15  C   UNL     1      -0.053  10.396  18.701  0.00  0.00    +0.000 A 
ATOM     16  C   UNL     1      -0.649  11.379  19.496  0.00  0.00    +0.000 A 
ATOM     17  C   UNL     1      -1.974  11.714  19.264  0.00  0.00    +0.000 A 
ATOM     18  N   UNL     1      -2.740  11.133  18.316  0.00  0.00    +0.000 NA
ATOM     19  C   UNL     1      -2.153  10.176  17.568  0.00  0.00    +0.000 A 
ATOM     20  C   UNL     1      -0.833   9.773  17.723  0.00  0.00    +0.000 A 
ENDBRANCH  14  15
ENDBRANCH  12  14
ENDBRANCH   1  11
BRANCH   9  21
ATOM     21  C   UNL     1       4.179   5.418  17.730  0.00  0.00    +0.000 C 
BRANCH  21  22
ATOM     22  C   UNL     1       5.610   5.826  17.975  0.00  0.00    +0.000 A 
ATOM     23  C   UNL     1       6.387   5.386  19.056  0.00  0.00    +0.000 A 
ATOM     24  C   UNL     1       7.656   5.928  19.294  0.00  0.00    +0.000 A 
ATOM     25  C   UNL     1       8.173   6.909  18.449  0.00  0.00    +0.000 A 
ATOM     26  C   UNL     1       7.426   7.341  17.358  0.00  0.00    +0.000 A 
ATOM     27  C   UNL     1       6.161   6.803  17.135  0.00  0.00    +0.000 A 
ATOM     28  F   UNL     1       5.451   7.256  16.091  0.00  0.00    +0.000 F 
ENDBRANCH  21  22
ENDBRANCH   9  21
TORSDOF 5
ENDMDL
MODEL 6
REMARK VINA RESULT:      -8.0      0.806      1.185
REMARK  Name = 
REMARK  5 active torsions:
REMARK  status: ('A' for Active; 'I' for Inactive)
REMARK    1  A    between atoms: C_2  and  C_11
REMARK    2  A    between atoms: N_3  and  C_4
REMARK    3  A    between atoms: C_4  and  C_5
REMARK    4  A    between atoms: N_19  and  C_20
REMARK    5  A    between atoms: C_20  and  C_21
REMARK                            x       y       z     vdW  Elec       q    Type
REMARK                         _______ _______ _______ _____ _____    ______ ____
ROOT
ATOM      1  C   UNL     1       4.376   6.596  17.788  0.00  0.00    +0.000 A 
ATOM      2  C   UNL     1       3.815   7.697  17.162  0.00  0.00    +0.000 A 
ATOM      3  C   UNL     1       2.770   8.207  17.971  0.00  0.00    +0.000 A 
ATOM      4  C   UNL     1       1.870   9.280  17.826  0.00  0.00    +0.000 A 
ATOM      5  C   UNL     1       0.955   9.551  18.846  0.00  0.00    +0.000 A 
ATOM      6  C   UNL     1       0.940   8.777  20.002  0.00  0.00    +0.000 A 
ATOM      7  C   UNL     1       1.814   7.695  20.159  0.00  0.00    +0.000 A 
ATOM      8  C   UNL     1       2.715   7.413  19.116  0.00  0.00    +0.000 A 
ATOM      9  N   UNL     1       3.638   6.389  18.947  0.00  0.00    +0.000 N 
ENDROOT
BRANCH   1  11
ATOM     10  O   UNL     1       6.021   4.909  18.006  0.00  0.00    +0.000 OA
ATOM     11  C   UNL     1       5.495   5.789  17.334  0.00  0.00    +0.000 C 
ATOM     12  N   UNL     1       5.953   6.135  16.083  0.00  0.00    +0.000 N 
ATOM     13  H   UNL     1       5.600   6.984  15.666  0.00  0.00    +0.000 HD
BRANCH  12  14
ATOM     14  C   UNL     1       7.113   5.517  15.489  0.00  0.00    +0.000 C 
BRANCH  14  15
ATOM     15  C   UNL     1       6.772   4.791  14.217  0.00  0.00    +0.000 A 
ATOM     16  C   UNL     1       7.604   4.892  13.099  0.00  0.00    +0.000 A 
ATOM     17  C   UNL     1       7.263   4.203  11.946  0.00  0.00    +0.000 A 
ATOM     18  N   UNL     1       6.155   3.440  11.828  0.00  0.00    +0.000 NA
ATOM     19  C   UNL     1       5.355   3.365  12.912  0.00  0.00    +0.000 A 
ATOM     20  C   UNL     1       5.613   4.017  14.110  0.00  0.00    +0.000 A 
ENDBRANCH  14  15
ENDBRANCH  12  14
ENDBRANCH   1  11
BRANCH   9  21
ATOM     21  C   UNL     1       3.715   5.204  19.810  0.00  0.00    +0.000 C 
BRANCH  21  22
ATOM     22  C   UNL     1       2.820   4.053  19.428  0.00  0.00    +0.000 A 
ATOM     23  C   UNL     1       3.040   3.204  18.334  0.00  0.00    +0.000 A 
ATOM     24  C   UNL     1       2.083   2.253  17.961  0.00  0.00    +0.000 A 
ATOM     25  C   UNL     1       0.896   2.127  18.681  0.00  0.00    +0.000 A 
ATOM     26  C   UNL     1       0.671   2.944  19.784  0.00  0.00    +0.000 A 
ATOM     27  C   UNL     1       1.624   3.894  20.142  0.00  0.00    +0.000 A 
ATOM     28  F   UNL     1       1.370   4.688  21.194  0.00  0.00    +0.000 F 
ENDBRANCH  21  22
ENDBRANCH   9  21
TORSDOF 5
ENDMDL
MODEL 7
REMARK VINA RESULT:      -8.0      0.942      1.577
REMARK  Name = 
REMARK  5 active torsions:
REMARK  status: ('A' for Active; 'I' for Inactive)
REMARK    1  A    between atoms: C_2  and  C_11
REMARK    2  A    between atoms: N_3  and  C_4
REMARK    3  A    between atoms: C_4  and  C_5
REMARK    4  A    between atoms: N_19  and  C_20
REMARK    5  A    between atoms: C_20  and  C_21
REMARK                            x       y       z     vdW  Elec       q    Type
REMARK                         _______ _______ _______ _____ _____    ______ ____
ROOT
ATOM      1  C   UNL     1       4.229   6.368  17.875  0.00  0.00    +0.000 A 
ATOM      2  C   UNL     1       3.811   7.474  17.152  0.00  0.00    +0.000 A 
ATOM      3  C   UNL     1       2.809   8.154  17.886  0.00  0.00    +0.000 A 
ATOM      4  C   UNL     1       2.039   9.306  17.634  0.00  0.00    +0.000 A 
ATOM      5  C   UNL     1       1.134   9.752  18.601  0.00  0.00    +0.000 A 
ATOM      6  C   UNL     1       1.003   9.074  19.808  0.00  0.00    +0.000 A 
ATOM      7  C   UNL     1       1.746   7.917  20.072  0.00  0.00    +0.000 A 
ATOM      8  C   UNL     1       2.636   7.461  19.084  0.00  0.00    +0.000 A 
ATOM      9  N   UNL     1       3.443   6.332  19.020  0.00  0.00    +0.000 N 
ENDROOT
BRANCH   1  11
ATOM     10  O   UNL     1       6.384   5.402  18.012  0.00  0.00    +0.000 OA
ATOM     11  C   UNL     1       5.262   5.411  17.518  0.00  0.00    +0.000 C 
ATOM     12  N   UNL     1       4.883   4.533  16.530  0.00  0.00    +0.000 N 
ATOM     13  H   UNL     1       4.020   4.714  16.039  0.00  0.00    +0.000 HD
BRANCH  12  14
ATOM     14  C   UNL     1       5.793   3.565  15.970  0.00  0.00    +0.000 C 
BRANCH  14  15
ATOM     15  C   UNL     1       6.342   4.012  14.643  0.00  0.00    +0.000 A 
ATOM     16  C   UNL     1       7.295   5.032  14.578  0.00  0.00    +0.000 A 
ATOM     17  C   UNL     1       7.784   5.414  13.338  0.00  0.00    +0.000 A 
ATOM     18  N   UNL     1       7.383   4.864  12.173  0.00  0.00    +0.000 NA
ATOM     19  C   UNL     1       6.452   3.891  12.252  0.00  0.00    +0.000 A 
ATOM     20  C   UNL     1       5.904   3.440  13.445  0.00  0.00    +0.000 A 
ENDBRANCH  14  15
ENDBRANCH  12  14
ENDBRANCH   1  11
BRANCH   9  21
ATOM     21  C   UNL     1       3.364   5.214  19.969  0.00  0.00    +0.000 C 
BRANCH  21  22
ATOM     22  C   UNL     1       2.625   3.992  19.486  0.00  0.00    +0.000 A 
ATOM     23  C   UNL     1       1.232   3.908  19.353  0.00  0.00    +0.000 A 
ATOM     24  C   UNL     1       0.614   2.691  19.042  0.00  0.00    +0.000 A 
ATOM     25  C   UNL     1       1.379   1.541  18.849  0.00  0.00    +0.000 A 
ATOM     26  C   UNL     1       2.764   1.611  18.954  0.00  0.00    +0.000 A 
ATOM     27  C   UNL     1       3.369   2.824  19.273  0.00  0.00    +0.000 A 
ATOM     28  F   UNL     1       4.705   2.858  19.395  0.00  0.00    +0.000 F 
ENDBRANCH  21  22
ENDBRANCH   9  21
TORSDOF 5
ENDMDL
MODEL 8
REMARK VINA RESULT:      -8.0      2.744      7.851
REMARK  Name = 
REMARK  5 active torsions:
REMARK  status: ('A' for Active; 'I' for Inactive)
REMARK    1  A    between atoms: C_2  and  C_11
REMARK    2  A    between atoms: N_3  and  C_4
REMARK    3  A    between atoms: C_4  and  C_5
REMARK    4  A    between atoms: N_19  and  C_20
REMARK    5  A    between atoms: C_20  and  C_21
REMARK                            x       y       z     vdW  Elec       q    Type
REMARK                         _______ _______ _______ _____ _____    ______ ____
ROOT
ATOM      1  C   UNL     1       2.383   6.289  18.390  0.00  0.00    +0.000 A 
ATOM      2  C   UNL     1       1.384   5.329  18.371  0.00  0.00    +0.000 A 
ATOM      3  C   UNL     1       1.970   4.049  18.521  0.00  0.00    +0.000 A 
ATOM      4  C   UNL     1       1.445   2.742  18.556  0.00  0.00    +0.000 A 
ATOM      5  C   UNL     1       2.306   1.661  18.759  0.00  0.00    +0.000 A 
ATOM      6  C   UNL     1       3.670   1.871  18.936  0.00  0.00    +0.000 A 
ATOM      7  C   UNL     1       4.215   3.160  18.885  0.00  0.00    +0.000 A 
ATOM      8  C   UNL     1       3.345   4.240  18.657  0.00  0.00    +0.000 A 
ATOM      9  N   UNL     1       3.585   5.598  18.488  0.00  0.00    +0.000 N 
ENDROOT
BRANCH   1  11
ATOM     10  O   UNL     1       2.663   8.410  17.380  0.00  0.00    +0.000 OA
ATOM     11  C   UNL     1       2.232   7.731  18.305  0.00  0.00    +0.000 C 
ATOM     12  N   UNL     1       1.596   8.284  19.392  0.00  0.00    +0.000 N 
ATOM     13  H   UNL     1       1.436   7.698  20.198  0.00  0.00    +0.000 HD
BRANCH  12  14
ATOM     14  C   UNL     1       1.428   9.709  19.543  0.00  0.00    +0.000 C 
BRANCH  14  15
ATOM     15  C   UNL     1       0.739  10.058  20.834  0.00  0.00    +0.000 A 
ATOM     16  C   UNL     1       0.737   9.157  21.902  0.00  0.00    +0.000 A 
ATOM     17  C   UNL     1       0.099   9.516  23.079  0.00  0.00    +0.000 A 
ATOM     18  N   UNL     1      -0.540  10.691  23.258  0.00  0.00    +0.000 NA
ATOM     19  C   UNL     1      -0.540  11.543  22.212  0.00  0.00    +0.000 A 
ATOM     20  C   UNL     1       0.071  11.275  20.995  0.00  0.00    +0.000 A 
ENDBRANCH  14  15
ENDBRANCH  12  14
ENDBRANCH   1  11
BRANCH   9  21
ATOM     21  C   UNL     1       4.921   6.177  18.310  0.00  0.00    +0.000 C 
BRANCH  21  22
ATOM     22  C   UNL     1       5.656   5.766  17.060  0.00  0.00    +0.000 A 
ATOM     23  C   UNL     1       5.168   5.939  15.758  0.00  0.00    +0.000 A 
ATOM     24  C   UNL     1       5.845   5.395  14.660  0.00  0.00    +0.000 A 
ATOM     25  C   UNL     1       7.027   4.679  14.844  0.00  0.00    +0.000 A 
ATOM     26  C   UNL     1       7.540   4.518  16.128  0.00  0.00    +0.000 A 
ATOM     27  C   UNL     1       6.854   5.055  17.215  0.00  0.00    +0.000 A 
ATOM     28  F   UNL     1       7.356   4.861  18.444  0.00  0.00    +0.000 F 
ENDBRANCH  21  22
ENDBRANCH   9  21
TORSDOF 5
ENDMDL
MODEL 9
REMARK VINA RESULT:      -7.9      0.958      1.124
REMARK  Name = 
REMARK  5 active torsions:
REMARK  status: ('A' for Active; 'I' for Inactive)
REMARK    1  A    between atoms: C_2  and  C_11
REMARK    2  A    between atoms: N_3  and  C_4
REMARK    3  A    between atoms: C_4  and  C_5
REMARK    4  A    between atoms: N_19  and  C_20
REMARK    5  A    between atoms: C_20  and  C_21
REMARK                            x       y       z     vdW  Elec       q    Type
REMARK                         _______ _______ _______ _____ _____    ______ ____
ROOT
ATOM      1  C   UNL     1       4.326   6.476  17.764  0.00  0.00    +0.000 A 
ATOM      2  C   UNL     1       3.768   7.555  17.097  0.00  0.00    +0.000 A 
ATOM      3  C   UNL     1       2.768   8.137  17.913  0.00  0.00    +0.000 A 
ATOM      4  C   UNL     1       1.889   9.224  17.739  0.00  0.00    +0.000 A 
ATOM      5  C   UNL     1       1.022   9.576  18.776  0.00  0.00    +0.000 A 
ATOM      6  C   UNL     1       1.032   8.870  19.974  0.00  0.00    +0.000 A 
ATOM      7  C   UNL     1       1.885   7.776  20.161  0.00  0.00    +0.000 A 
ATOM      8  C   UNL     1       2.737   7.411  19.103  0.00  0.00    +0.000 A 
ATOM      9  N   UNL     1       3.629   6.356  18.960  0.00  0.00    +0.000 N 
ENDROOT
BRANCH   1  11
ATOM     10  O   UNL     1       5.742   4.585  17.888  0.00  0.00    +0.000 OA
ATOM     11  C   UNL     1       5.407   5.616  17.316  0.00  0.00    +0.000 C 
ATOM     12  N   UNL     1       6.064   6.089  16.204  0.00  0.00    +0.000 N 
ATOM     13  H   UNL     1       5.862   7.030  15.897  0.00  0.00    +0.000 HD
BRANCH  12  14
ATOM     14  C   UNL     1       7.224   5.430  15.655  0.00  0.00    +0.000 C 
BRANCH  14  15
ATOM     15  C   UNL     1       6.938   4.818  14.311  0.00  0.00    +0.000 A 
ATOM     16  C   UNL     1       5.894   3.901  14.159  0.00  0.00    +0.000 A 
ATOM     17  C   UNL     1       5.654   3.363  12.904  0.00  0.00    +0.000 A 
ATOM     18  N   UNL     1       6.383   3.662  11.808  0.00  0.00    +0.000 NA
ATOM     19  C   UNL     1       7.396   4.538  11.976  0.00  0.00    +0.000 A 
ATOM     20  C   UNL     1       7.713   5.130  13.191  0.00  0.00    +0.000 A 
ENDBRANCH  14  15
ENDBRANCH  12  14
ENDBRANCH   1  11
BRANCH   9  21
ATOM     21  C   UNL     1       3.709   5.220  19.886  0.00  0.00    +0.000 C 
BRANCH  21  22
ATOM     22  C   UNL     1       2.687   4.131  19.683  0.00  0.00    +0.000 A 
ATOM     23  C   UNL     1       2.273   3.653  18.432  0.00  0.00    +0.000 A 
ATOM     24  C   UNL     1       1.212   2.745  18.327  0.00  0.00    +0.000 A 
ATOM     25  C   UNL     1       0.556   2.292  19.471  0.00  0.00    +0.000 A 
ATOM     26  C   UNL     1       0.969   2.738  20.722  0.00  0.00    +0.000 A 
ATOM     27  C   UNL     1       2.019   3.647  20.816  0.00  0.00    +0.000 A 
ATOM     28  F   UNL     1       2.379   4.081  22.034  0.00  0.00    +0.000 F 
ENDBRANCH  21  22
ENDBRANCH   9  21
TORSDOF 5
ENDMDL
