MODEL 1
REMARK VINA RESULT:      -9.0      0.000      0.000
REMARK  Name = 
REMARK  5 active torsions:
REMARK  status: ('A' for Active; 'I' for Inactive)
REMARK    1  A    between atoms: C_1  and  N_2
REMARK    2  A    between atoms: C_3  and  C_5
REMARK    3  A    between atoms: C_8  and  C_9
REMARK    4  A    between atoms: C_11  and  C_12
REMARK    5  A    between atoms: C_12  and  C_13
REMARK                            x       y       z     vdW  Elec       q    Type
REMARK                         _______ _______ _______ _____ _____    ______ ____
ROOT
ATOM      1  C   UNL     1       8.095   8.590  18.097  0.00  0.00    +0.000 A 
ATOM      2  N   UNL     1       7.170   8.132  17.281  0.00  0.00    +0.000 NA
ATOM      3  C   UNL     1       7.111   6.794  17.616  0.00  0.00    +0.000 A 
ATOM      4  N   UNL     1       7.931   6.442  18.619  0.00  0.00    +0.000 NA
ATOM      5  O   UNL     1       8.583   7.632  18.938  0.00  0.00    +0.000 OA
ENDROOT
BRANCH   1   9
ATOM      6  C   UNL     1       9.560  12.528  18.425  0.00  0.00    +0.000 A 
ATOM      7  C   UNL     1      10.167  11.545  19.196  0.00  0.00    +0.000 A 
ATOM      8  C   UNL     1       9.696  10.237  19.099  0.00  0.00    +0.000 A 
ATOM      9  C   UNL     1       8.637   9.933  18.234  0.00  0.00    +0.000 A 
ATOM     10  C   UNL     1       8.106  10.989  17.495  0.00  0.00    +0.000 A 
ATOM     11  N   UNL     1       8.532  12.279  17.568  0.00  0.00    +0.000 NA
BRANCH   6  14
ATOM     12  C   UNL     1      10.018  16.161  17.471  0.00  0.00    +0.000 C 
ATOM     13  N   UNL     1       9.647  14.773  17.504  0.00  0.00    +0.000 N 
ATOM     14  C   UNL     1      10.035  13.945  18.536  0.00  0.00    +0.000 C 
ATOM     15  O   UNL     1      10.712  14.316  19.489  0.00  0.00    +0.000 OA
ATOM     16  H   UNL     1       9.085  14.360  16.766  0.00  0.00    +0.000 HD
ENDBRANCH   6  14
ENDBRANCH   1   9
BRANCH   3  17
ATOM     17  C   UNL     1       6.152   5.828  16.962  0.00  0.00    +0.000 C 
ATOM     18  C   UNL     1       6.745   4.402  16.820  0.00  0.00    +0.000 C 
ATOM     19  C   UNL     1       5.983   3.746  15.667  0.00  0.00    +0.000 C 
ATOM     20  C   UNL     1       5.425   4.888  14.825  0.00  0.00    +0.000 C 
ATOM     21  C   UNL     1       5.974   6.161  15.459  0.00  0.00    +0.000 C 
BRANCH  17  22
ATOM     22  C   UNL     1       4.898   5.835  17.848  0.00  0.00    +0.000 A 
ATOM     23  C   UNL     1       4.708   4.976  18.942  0.00  0.00    +0.000 A 
ATOM     24  F   UNL     1       5.618   4.050  19.268  0.00  0.00    +0.000 F 
ATOM     25  C   UNL     1       3.580   5.046  19.767  0.00  0.00    +0.000 A 
ATOM     26  C   UNL     1       2.576   5.970  19.505  0.00  0.00    +0.000 A 
ATOM     27  C   UNL     1       2.714   6.822  18.418  0.00  0.00    +0.000 A 
ATOM     28  C   UNL     1       3.857   6.755  17.617  0.00  0.00    +0.000 A 
ATOM     29  F   UNL     1       3.938   7.627  16.602  0.00  0.00    +0.000 F 
ENDBRANCH  17  22
ENDBRANCH   3  17
TORSDOF 4
ENDMDL
MODEL 2
REMARK VINA RESULT:      -8.9      0.089      1.562
REMARK  Name = 
REMARK  5 active torsions:
REMARK  status: ('A' for Active; 'I' for Inactive)
REMARK    1  A    between atoms: C_1  and  N_2
REMARK    2  A    between atoms: C_3  and  C_5
REMARK    3  A    between atoms: C_8  and  C_9
REMARK    4  A    between atoms: C_11  and  C_12
REMARK    5  A    between atoms: C_12  and  C_13
REMARK                            x       y       z     vdW  Elec       q    Type
REMARK                         _______ _______ _______ _____ _____    ______ ____
ROOT
ATOM      1  C   UNL     1       8.100   8.584  18.095  0.00  0.00    +0.000 A 
ATOM      2  N   UNL     1       7.178   8.128  17.275  0.00  0.00    +0.000 NA
ATOM      3  C   UNL     1       7.112   6.792  17.611  0.00  0.00    +0.000 A 
ATOM      4  N   UNL     1       7.926   6.437  18.618  0.00  0.00    +0.000 NA
ATOM      5  O   UNL     1       8.580   7.625  18.940  0.00  0.00    +0.000 OA
ENDROOT
BRANCH   1   9
ATOM      6  C   UNL     1       9.577  12.517  18.430  0.00  0.00    +0.000 A 
ATOM      7  C   UNL     1      10.180  11.531  19.199  0.00  0.00    +0.000 A 
ATOM      8  C   UNL     1       9.706  10.225  19.100  0.00  0.00    +0.000 A 
ATOM      9  C   UNL     1       8.646   9.926  18.235  0.00  0.00    +0.000 A 
ATOM     10  C   UNL     1       8.118  10.984  17.497  0.00  0.00    +0.000 A 
ATOM     11  N   UNL     1       8.548  12.273  17.572  0.00  0.00    +0.000 NA
BRANCH   6  14
ATOM     12  C   UNL     1      10.047  16.150  17.480  0.00  0.00    +0.000 C 
ATOM     13  N   UNL     1       9.672  14.763  17.511  0.00  0.00    +0.000 N 
ATOM     14  C   UNL     1      10.056  13.933  18.542  0.00  0.00    +0.000 C 
ATOM     15  O   UNL     1      10.733  14.301  19.496  0.00  0.00    +0.000 OA
ATOM     16  H   UNL     1       9.109  14.353  16.772  0.00  0.00    +0.000 HD
ENDBRANCH   6  14
ENDBRANCH   1   9
BRANCH   3  17
ATOM     17  C   UNL     1       6.153   5.828  16.952  0.00  0.00    +0.000 C 
ATOM     18  C   UNL     1       6.746   4.403  16.804  0.00  0.00    +0.000 C 
ATOM     19  C   UNL     1       5.985   3.753  15.647  0.00  0.00    +0.000 C 
ATOM     20  C   UNL     1       5.426   4.898  14.811  0.00  0.00    +0.000 C 
ATOM     21  C   UNL     1       5.975   6.169  15.451  0.00  0.00    +0.000 C 
BRANCH  17  22
ATOM     22  C   UNL     1       4.900   5.831  17.838  0.00  0.00    +0.000 A 
ATOM     23  C   UNL     1       3.815   6.703  17.657  0.00  0.00    +0.000 A 
ATOM     24  F   UNL     1       3.822   7.634  16.694  0.00  0.00    +0.000 F 
ATOM     25  C   UNL     1       2.660   6.642  18.444  0.00  0.00    +0.000 A 
ATOM     26  C   UNL     1       2.560   5.714  19.473  0.00  0.00    +0.000 A 
ATOM     27  C   UNL     1       3.621   4.848  19.701  0.00  0.00    +0.000 A 
ATOM     28  C   UNL     1       4.759   4.907  18.892  0.00  0.00    +0.000 A 
ATOM     29  F   UNL     1       5.733   4.022  19.150  0.00  0.00    +0.000 F 
ENDBRANCH  17  22
ENDBRANCH   3  17
TORSDOF 4
ENDMDL
MODEL 3
REMARK VINA RESULT:      -8.8      0.972      1.258
REMARK  Name = 
REMARK  5 active torsions:
REMARK  status: ('A' for Active; 'I' for Inactive)
REMARK    1  A    between atoms: C_1  and  N_2
REMARK    2  A    between atoms: C_3  and  C_5
REMARK    3  A    between atoms: C_8  and  C_9
REMARK    4  A    between atoms: C_11  and  C_12
REMARK    5  A    between atoms: C_12  and  C_13
REMARK                            x       y       z     vdW  Elec       q    Type
REMARK                         _______ _______ _______ _____ _____    ______ ____
ROOT
ATOM      1  C   UNL     1       8.065   8.554  18.112  0.00  0.00    +0.000 A 
ATOM      2  N   UNL     1       7.137   8.104  17.296  0.00  0.00    +0.000 NA
ATOM      3  C   UNL     1       7.105   6.756  17.593  0.00  0.00    +0.000 A 
ATOM      4  N   UNL     1       7.945   6.390  18.574  0.00  0.00    +0.000 NA
ATOM      5  O   UNL     1       8.581   7.582  18.919  0.00  0.00    +0.000 OA
ENDROOT
BRANCH   1   9
ATOM      6  C   UNL     1       9.664  12.411  18.687  0.00  0.00    +0.000 A 
ATOM      7  C   UNL     1       8.748  12.237  17.658  0.00  0.00    +0.000 A 
ATOM      8  C   UNL     1       8.208  10.969  17.454  0.00  0.00    +0.000 A 
ATOM      9  C   UNL     1       8.586   9.903  18.281  0.00  0.00    +0.000 A 
ATOM     10  C   UNL     1       9.502  10.186  19.293  0.00  0.00    +0.000 A 
ATOM     11  N   UNL     1      10.057  11.407  19.518  0.00  0.00    +0.000 NA
BRANCH   6  14
ATOM     12  C   UNL     1      12.333  14.966  19.509  0.00  0.00    +0.000 C 
ATOM     13  N   UNL     1      11.605  13.750  19.270  0.00  0.00    +0.000 N 
ATOM     14  C   UNL     1      10.276  13.762  18.905  0.00  0.00    +0.000 C 
ATOM     15  O   UNL     1       9.621  14.788  18.756  0.00  0.00    +0.000 OA
ATOM     16  H   UNL     1      12.051  12.842  19.364  0.00  0.00    +0.000 HD
ENDBRANCH   6  14
ENDBRANCH   1   9
BRANCH   3  17
ATOM     17  C   UNL     1       6.154   5.792  16.925  0.00  0.00    +0.000 C 
ATOM     18  C   UNL     1       6.755   4.372  16.768  0.00  0.00    +0.000 C 
ATOM     19  C   UNL     1       6.001   3.726  15.605  0.00  0.00    +0.000 C 
ATOM     20  C   UNL     1       5.439   4.874  14.774  0.00  0.00    +0.000 C 
ATOM     21  C   UNL     1       5.979   6.143  15.425  0.00  0.00    +0.000 C 
BRANCH  17  22
ATOM     22  C   UNL     1       4.897   5.782  17.806  0.00  0.00    +0.000 A 
ATOM     23  C   UNL     1       4.704   4.905  18.885  0.00  0.00    +0.000 A 
ATOM     24  F   UNL     1       5.615   3.975  19.198  0.00  0.00    +0.000 F 
ATOM     25  C   UNL     1       3.574   4.959  19.707  0.00  0.00    +0.000 A 
ATOM     26  C   UNL     1       2.569   5.885  19.458  0.00  0.00    +0.000 A 
ATOM     27  C   UNL     1       2.709   6.756  18.385  0.00  0.00    +0.000 A 
ATOM     28  C   UNL     1       3.855   6.704  17.587  0.00  0.00    +0.000 A 
ATOM     29  F   UNL     1       3.938   7.594  16.587  0.00  0.00    +0.000 F 
ENDBRANCH  17  22
ENDBRANCH   3  17
TORSDOF 4
ENDMDL
MODEL 4
REMARK VINA RESULT:      -8.7      5.867      7.768
REMARK  Name = 
REMARK  5 active torsions:
REMARK  status: ('A' for Active; 'I' for Inactive)
REMARK    1  A    between atoms: C_1  and  N_2
REMARK    2  A    between atoms: C_3  and  C_5
REMARK    3  A    between atoms: C_8  and  C_9
REMARK    4  A    between atoms: C_11  and  C_12
REMARK    5  A    between atoms: C_12  and  C_13
REMARK                            x       y       z     vdW  Elec       q    Type
REMARK                         _______ _______ _______ _____ _____    ______ ____
ROOT
ATOM      1  C   UNL     1       1.444   8.485  19.894  0.00  0.00    +0.000 A 
ATOM      2  N   UNL     1       2.007   7.327  20.163  0.00  0.00    +0.000 NA
ATOM      3  C   UNL     1       2.542   6.964  18.945  0.00  0.00    +0.000 A 
ATOM      4  N   UNL     1       2.356   7.869  17.970  0.00  0.00    +0.000 NA
ATOM      5  O   UNL     1       1.628   8.877  18.600  0.00  0.00    +0.000 OA
ENDROOT
BRANCH   1   9
ATOM      6  C   UNL     1      -0.750  11.165  22.296  0.00  0.00    +0.000 A 
ATOM      7  C   UNL     1      -0.422   9.929  22.839  0.00  0.00    +0.000 A 
ATOM      8  C   UNL     1       0.304   9.030  22.059  0.00  0.00    +0.000 A 
ATOM      9  C   UNL     1       0.693   9.382  20.760  0.00  0.00    +0.000 A 
ATOM     10  C   UNL     1       0.326  10.651  20.315  0.00  0.00    +0.000 A 
ATOM     11  N   UNL     1      -0.389  11.552  21.042  0.00  0.00    +0.000 NA
BRANCH   6  14
ATOM     12  C   UNL     1      -3.745  12.570  24.134  0.00  0.00    +0.000 C 
ATOM     13  N   UNL     1      -2.852  11.750  23.362  0.00  0.00    +0.000 N 
ATOM     14  C   UNL     1      -1.553  12.134  23.110  0.00  0.00    +0.000 C 
ATOM     15  O   UNL     1      -1.062  13.182  23.516  0.00  0.00    +0.000 OA
ATOM     16  H   UNL     1      -3.154  10.859  22.978  0.00  0.00    +0.000 HD
ENDBRANCH   6  14
ENDBRANCH   1   9
BRANCH   3  17
ATOM     17  C   UNL     1       3.334   5.693  18.744  0.00  0.00    +0.000 C 
ATOM     18  C   UNL     1       4.658   5.681  19.551  0.00  0.00    +0.000 C 
ATOM     19  C   UNL     1       5.583   4.705  18.820  0.00  0.00    +0.000 C 
ATOM     20  C   UNL     1       5.066   4.623  17.389  0.00  0.00    +0.000 C 
ATOM     21  C   UNL     1       3.928   5.635  17.313  0.00  0.00    +0.000 C 
BRANCH  17  22
ATOM     22  C   UNL     1       2.397   4.556  19.174  0.00  0.00    +0.000 A 
ATOM     23  C   UNL     1       2.207   4.160  20.507  0.00  0.00    +0.000 A 
ATOM     24  F   UNL     1       2.876   4.744  21.510  0.00  0.00    +0.000 F 
ATOM     25  C   UNL     1       1.302   3.159  20.874  0.00  0.00    +0.000 A 
ATOM     26  C   UNL     1       0.566   2.490  19.905  0.00  0.00    +0.000 A 
ATOM     27  C   UNL     1       0.742   2.834  18.571  0.00  0.00    +0.000 A 
ATOM     28  C   UNL     1       1.634   3.851  18.223  0.00  0.00    +0.000 A 
ATOM     29  F   UNL     1       1.732   4.152  16.920  0.00  0.00    +0.000 F 
ENDBRANCH  17  22
ENDBRANCH   3  17
TORSDOF 4
ENDMDL
MODEL 5
REMARK VINA RESULT:      -8.7      5.409      7.307
REMARK  Name = 
REMARK  5 active torsions:
REMARK  status: ('A' for Active; 'I' for Inactive)
REMARK    1  A    between atoms: C_1  and  N_2
REMARK    2  A    between atoms: C_3  and  C_5
REMARK    3  A    between atoms: C_8  and  C_9
REMARK    4  A    between atoms: C_11  and  C_12
REMARK    5  A    between atoms: C_12  and  C_13
REMARK                            x       y       z     vdW  Elec       q    Type
REMARK                         _______ _______ _______ _____ _____    ______ ____
ROOT
ATOM      1  C   UNL     1       2.189   7.557  19.333  0.00  0.00    +0.000 A 
ATOM      2  N   UNL     1       2.342   6.276  19.589  0.00  0.00    +0.000 NA
ATOM      3  C   UNL     1       3.047   5.831  18.490  0.00  0.00    +0.000 A 
ATOM      4  N   UNL     1       3.355   6.795  17.607  0.00  0.00    +0.000 NA
ATOM      5  O   UNL     1       2.787   7.939  18.166  0.00  0.00    +0.000 OA
ENDROOT
BRANCH   1   9
ATOM      6  C   UNL     1       0.207  10.617  21.447  0.00  0.00    +0.000 A 
ATOM      7  C   UNL     1       0.515   9.449  22.134  0.00  0.00    +0.000 A 
ATOM      8  C   UNL     1       1.172   8.428  21.451  0.00  0.00    +0.000 A 
ATOM      9  C   UNL     1       1.513   8.590  20.102  0.00  0.00    +0.000 A 
ATOM     10  C   UNL     1       1.171   9.805  19.509  0.00  0.00    +0.000 A 
ATOM     11  N   UNL     1       0.523  10.821  20.139  0.00  0.00    +0.000 NA
BRANCH   6  14
ATOM     12  C   UNL     1      -2.521  12.285  23.471  0.00  0.00    +0.000 C 
ATOM     13  N   UNL     1      -1.711  11.344  22.747  0.00  0.00    +0.000 N 
ATOM     14  C   UNL     1      -0.522  11.717  22.158  0.00  0.00    +0.000 C 
ATOM     15  O   UNL     1      -0.067  12.855  22.203  0.00  0.00    +0.000 OA
ATOM     16  H   UNL     1      -1.992  10.373  22.649  0.00  0.00    +0.000 HD
ENDBRANCH   6  14
ENDBRANCH   1   9
BRANCH   3  17
ATOM     17  C   UNL     1       3.499   4.399  18.331  0.00  0.00    +0.000 C 
ATOM     18  C   UNL     1       2.540   3.565  17.442  0.00  0.00    +0.000 C 
ATOM     19  C   UNL     1       2.751   2.107  17.854  0.00  0.00    +0.000 C 
ATOM     20  C   UNL     1       3.328   2.145  19.264  0.00  0.00    +0.000 C 
ATOM     21  C   UNL     1       3.330   3.618  19.659  0.00  0.00    +0.000 C 
BRANCH  17  22
ATOM     22  C   UNL     1       4.907   4.480  17.726  0.00  0.00    +0.000 A 
ATOM     23  C   UNL     1       5.190   4.253  16.370  0.00  0.00    +0.000 A 
ATOM     24  F   UNL     1       4.228   3.909  15.504  0.00  0.00    +0.000 F 
ATOM     25  C   UNL     1       6.476   4.392  15.835  0.00  0.00    +0.000 A 
ATOM     26  C   UNL     1       7.542   4.739  16.655  0.00  0.00    +0.000 A 
ATOM     27  C   UNL     1       7.309   4.949  18.007  0.00  0.00    +0.000 A 
ATOM     28  C   UNL     1       6.016   4.828  18.522  0.00  0.00    +0.000 A 
ATOM     29  F   UNL     1       5.858   5.074  19.830  0.00  0.00    +0.000 F 
ENDBRANCH  17  22
ENDBRANCH   3  17
TORSDOF 4
ENDMDL
MODEL 6
REMARK VINA RESULT:      -8.7      5.849      7.809
REMARK  Name = 
REMARK  5 active torsions:
REMARK  status: ('A' for Active; 'I' for Inactive)
REMARK    1  A    between atoms: C_1  and  N_2
REMARK    2  A    between atoms: C_3  and  C_5
REMARK    3  A    between atoms: C_8  and  C_9
REMARK    4  A    between atoms: C_11  and  C_12
REMARK    5  A    between atoms: C_12  and  C_13
REMARK                            x       y       z     vdW  Elec       q    Type
REMARK                         _______ _______ _______ _____ _____    ______ ____
ROOT
ATOM      1  C   UNL     1       1.506   8.429  19.860  0.00  0.00    +0.000 A 
ATOM      2  N   UNL     1       2.024   7.249  20.117  0.00  0.00    +0.000 NA
ATOM      3  C   UNL     1       2.600   6.905  18.911  0.00  0.00    +0.000 A 
ATOM      4  N   UNL     1       2.481   7.843  17.957  0.00  0.00    +0.000 NA
ATOM      5  O   UNL     1       1.756   8.854  18.587  0.00  0.00    +0.000 OA
ENDROOT
BRANCH   1   9
ATOM      6  C   UNL     1      -0.689  11.113  22.256  0.00  0.00    +0.000 A 
ATOM      7  C   UNL     1      -0.608   9.790  22.673  0.00  0.00    +0.000 A 
ATOM      8  C   UNL     1       0.115   8.889  21.893  0.00  0.00    +0.000 A 
ATOM      9  C   UNL     1       0.746   9.324  20.720  0.00  0.00    +0.000 A 
ATOM     10  C   UNL     1       0.614  10.674  20.398  0.00  0.00    +0.000 A 
ATOM     11  N   UNL     1      -0.089  11.581  21.128  0.00  0.00    +0.000 NA
BRANCH   6  14
ATOM     12  C   UNL     1      -3.660  12.530  24.125  0.00  0.00    +0.000 C 
ATOM     13  N   UNL     1      -2.776  11.703  23.351  0.00  0.00    +0.000 N 
ATOM     14  C   UNL     1      -1.484  12.091  23.068  0.00  0.00    +0.000 C 
ATOM     15  O   UNL     1      -0.993  13.150  23.446  0.00  0.00    +0.000 OA
ATOM     16  H   UNL     1      -3.078  10.803  22.988  0.00  0.00    +0.000 HD
ENDBRANCH   6  14
ENDBRANCH   1   9
BRANCH   3  17
ATOM     17  C   UNL     1       3.363   5.617  18.704  0.00  0.00    +0.000 C 
ATOM     18  C   UNL     1       4.676   5.563  19.528  0.00  0.00    +0.000 C 
ATOM     19  C   UNL     1       5.585   4.573  18.797  0.00  0.00    +0.000 C 
ATOM     20  C   UNL     1       5.085   4.520  17.359  0.00  0.00    +0.000 C 
ATOM     21  C   UNL     1       3.973   5.561  17.281  0.00  0.00    +0.000 C 
BRANCH  17  22
ATOM     22  C   UNL     1       2.393   4.499  19.109  0.00  0.00    +0.000 A 
ATOM     23  C   UNL     1       1.610   3.773  18.198  0.00  0.00    +0.000 A 
ATOM     24  F   UNL     1       1.638   4.042  16.887  0.00  0.00    +0.000 F 
ATOM     25  C   UNL     1       0.779   2.719  18.591  0.00  0.00    +0.000 A 
ATOM     26  C   UNL     1       0.677   2.368  19.932  0.00  0.00    +0.000 A 
ATOM     27  C   UNL     1       1.416   3.077  20.869  0.00  0.00    +0.000 A 
ATOM     28  C   UNL     1       2.259   4.113  20.458  0.00  0.00    +0.000 A 
ATOM     29  F   UNL     1       2.966   4.735  21.413  0.00  0.00    +0.000 F 
ENDBRANCH  17  22
ENDBRANCH   3  17
TORSDOF 4
ENDMDL
MODEL 7
REMARK VINA RESULT:      -8.6      5.413      7.243
REMARK  Name = 
REMARK  5 active torsions:
REMARK  status: ('A' for Active; 'I' for Inactive)
REMARK    1  A    between atoms: C_1  and  N_2
REMARK    2  A    between atoms: C_3  and  C_5
REMARK    3  A    between atoms: C_8  and  C_9
REMARK    4  A    between atoms: C_11  and  C_12
REMARK    5  A    between atoms: C_12  and  C_13
REMARK                            x       y       z     vdW  Elec       q    Type
REMARK                         _______ _______ _______ _____ _____    ______ ____
ROOT
ATOM      1  C   UNL     1       2.204   7.515  19.299  0.00  0.00    +0.000 A 
ATOM      2  N   UNL     1       2.330   6.226  19.527  0.00  0.00    +0.000 NA
ATOM      3  C   UNL     1       3.104   5.808  18.464  0.00  0.00    +0.000 A 
ATOM      4  N   UNL     1       3.475   6.795  17.632  0.00  0.00    +0.000 NA
ATOM      5  O   UNL     1       2.879   7.926  18.186  0.00  0.00    +0.000 OA
ENDROOT
BRANCH   1   9
ATOM      6  C   UNL     1       0.162  10.401  21.595  0.00  0.00    +0.000 A 
ATOM      7  C   UNL     1       0.272  10.620  20.228  0.00  0.00    +0.000 A 
ATOM      8  C   UNL     1       0.942   9.676  19.453  0.00  0.00    +0.000 A 
ATOM      9  C   UNL     1       1.484   8.531  20.052  0.00  0.00    +0.000 A 
ATOM     10  C   UNL     1       1.309   8.399  21.429  0.00  0.00    +0.000 A 
ATOM     11  N   UNL     1       0.669   9.302  22.220  0.00  0.00    +0.000 NA
BRANCH   6  14
ATOM     12  C   UNL     1      -0.953  13.817  22.780  0.00  0.00    +0.000 C 
ATOM     13  N   UNL     1      -0.346  12.728  22.065  0.00  0.00    +0.000 N 
ATOM     14  C   UNL     1      -0.533  11.418  22.449  0.00  0.00    +0.000 C 
ATOM     15  O   UNL     1      -1.217  11.080  23.409  0.00  0.00    +0.000 OA
ATOM     16  H   UNL     1       0.240  12.893  21.252  0.00  0.00    +0.000 HD
ENDBRANCH   6  14
ENDBRANCH   1   9
BRANCH   3  17
ATOM     17  C   UNL     1       3.556   4.377  18.293  0.00  0.00    +0.000 C 
ATOM     18  C   UNL     1       2.590   3.547  17.408  0.00  0.00    +0.000 C 
ATOM     19  C   UNL     1       2.807   2.087  17.810  0.00  0.00    +0.000 C 
ATOM     20  C   UNL     1       3.397   2.118  19.215  0.00  0.00    +0.000 C 
ATOM     21  C   UNL     1       3.401   3.588  19.618  0.00  0.00    +0.000 C 
BRANCH  17  22
ATOM     22  C   UNL     1       4.958   4.463  17.674  0.00  0.00    +0.000 A 
ATOM     23  C   UNL     1       5.226   4.270  16.310  0.00  0.00    +0.000 A 
ATOM     24  F   UNL     1       4.252   3.956  15.446  0.00  0.00    +0.000 F 
ATOM     25  C   UNL     1       6.506   4.413  15.766  0.00  0.00    +0.000 A 
ATOM     26  C   UNL     1       7.584   4.730  16.582  0.00  0.00    +0.000 A 
ATOM     27  C   UNL     1       7.367   4.907  17.942  0.00  0.00    +0.000 A 
ATOM     28  C   UNL     1       6.078   4.782  18.467  0.00  0.00    +0.000 A 
ATOM     29  F   UNL     1       5.937   4.994  19.784  0.00  0.00    +0.000 F 
ENDBRANCH  17  22
ENDBRANCH   3  17
TORSDOF 4
ENDMDL
MODEL 8
REMARK VINA RESULT:      -8.6      5.433      7.257
REMARK  Name = 
REMARK  5 active torsions:
REMARK  status: ('A' for Active; 'I' for Inactive)
REMARK    1  A    between atoms: C_1  and  N_2
REMARK    2  A    between atoms: C_3  and  C_5
REMARK    3  A    between atoms: C_8  and  C_9
REMARK    4  A    between atoms: C_11  and  C_12
REMARK    5  A    between atoms: C_12  and  C_13
REMARK                            x       y       z     vdW  Elec       q    Type
REMARK                         _______ _______ _______ _____ _____    ______ ____
ROOT
ATOM      1  C   UNL     1       2.164   7.591  19.367  0.00  0.00    +0.000 A 
ATOM      2  N   UNL     1       2.361   6.321  19.645  0.00  0.00    +0.000 NA
ATOM      3  C   UNL     1       3.039   5.871  18.530  0.00  0.00    +0.000 A 
ATOM      4  N   UNL     1       3.288   6.824  17.617  0.00  0.00    +0.000 NA
ATOM      5  O   UNL     1       2.709   7.964  18.172  0.00  0.00    +0.000 OA
ENDROOT
BRANCH   1   9
ATOM      6  C   UNL     1       0.167  10.638  21.487  0.00  0.00    +0.000 A 
ATOM      7  C   UNL     1       0.595   9.526  22.201  0.00  0.00    +0.000 A 
ATOM      8  C   UNL     1       1.259   8.509  21.516  0.00  0.00    +0.000 A 
ATOM      9  C   UNL     1       1.487   8.623  20.139  0.00  0.00    +0.000 A 
ATOM     10  C   UNL     1       1.029   9.784  19.518  0.00  0.00    +0.000 A 
ATOM     11  N   UNL     1       0.371  10.793  20.150  0.00  0.00    +0.000 NA
BRANCH   6  14
ATOM     12  C   UNL     1      -2.620  12.301  23.433  0.00  0.00    +0.000 C 
ATOM     13  N   UNL     1      -1.797  11.367  22.716  0.00  0.00    +0.000 N 
ATOM     14  C   UNL     1      -0.571  11.730  22.202  0.00  0.00    +0.000 C 
ATOM     15  O   UNL     1      -0.092  12.853  22.312  0.00  0.00    +0.000 OA
ATOM     16  H   UNL     1      -2.095  10.407  22.567  0.00  0.00    +0.000 HD
ENDBRANCH   6  14
ENDBRANCH   1   9
BRANCH   3  17
ATOM     17  C   UNL     1       3.524   4.448  18.385  0.00  0.00    +0.000 C 
ATOM     18  C   UNL     1       2.588   3.586  17.500  0.00  0.00    +0.000 C 
ATOM     19  C   UNL     1       2.831   2.136  17.925  0.00  0.00    +0.000 C 
ATOM     20  C   UNL     1       3.403   2.199  19.337  0.00  0.00    +0.000 C 
ATOM     21  C   UNL     1       3.369   3.675  19.719  0.00  0.00    +0.000 C 
BRANCH  17  22
ATOM     22  C   UNL     1       4.932   4.557  17.783  0.00  0.00    +0.000 A 
ATOM     23  C   UNL     1       6.078   4.882  18.526  0.00  0.00    +0.000 A 
ATOM     24  F   UNL     1       6.006   5.158  19.834  0.00  0.00    +0.000 F 
ATOM     25  C   UNL     1       7.357   4.916  17.961  0.00  0.00    +0.000 A 
ATOM     26  C   UNL     1       7.534   4.652  16.609  0.00  0.00    +0.000 A 
ATOM     27  C   UNL     1       6.423   4.350  15.833  0.00  0.00    +0.000 A 
ATOM     28  C   UNL     1       5.155   4.298  16.417  0.00  0.00    +0.000 A 
ATOM     29  F   UNL     1       4.131   3.971  15.615  0.00  0.00    +0.000 F 
ENDBRANCH  17  22
ENDBRANCH   3  17
TORSDOF 4
ENDMDL
MODEL 9
REMARK VINA RESULT:      -8.6      5.403      7.247
REMARK  Name = 
REMARK  5 active torsions:
REMARK  status: ('A' for Active; 'I' for Inactive)
REMARK    1  A    between atoms: C_1  and  N_2
REMARK    2  A    between atoms: C_3  and  C_5
REMARK    3  A    between atoms: C_8  and  C_9
REMARK    4  A    between atoms: C_11  and  C_12
REMARK    5  A    between atoms: C_12  and  C_13
REMARK                            x       y       z     vdW  Elec       q    Type
REMARK                         _______ _______ _______ _____ _____    ______ ____
ROOT
ATOM      1  C   UNL     1       2.152   7.552  19.375  0.00  0.00    +0.000 A 
ATOM      2  N   UNL     1       2.301   6.265  19.600  0.00  0.00    +0.000 NA
ATOM      3  C   UNL     1       3.108   5.869  18.553  0.00  0.00    +0.000 A 
ATOM      4  N   UNL     1       3.478   6.868  17.736  0.00  0.00    +0.000 NA
ATOM      5  O   UNL     1       2.845   7.984  18.281  0.00  0.00    +0.000 OA
ENDROOT
BRANCH   1   9
ATOM      6  C   UNL     1       0.002  10.386  21.636  0.00  0.00    +0.000 A 
ATOM      7  C   UNL     1       0.081  10.578  20.263  0.00  0.00    +0.000 A 
ATOM      8  C   UNL     1       0.786   9.651  19.499  0.00  0.00    +0.000 A 
ATOM      9  C   UNL     1       1.394   8.549  20.116  0.00  0.00    +0.000 A 
ATOM     10  C   UNL     1       1.244   8.440  21.498  0.00  0.00    +0.000 A 
ATOM     11  N   UNL     1       0.571   9.329  22.278  0.00  0.00    +0.000 NA
BRANCH   6  14
ATOM     12  C   UNL     1      -1.027  13.780  22.956  0.00  0.00    +0.000 C 
ATOM     13  N   UNL     1      -0.405  12.704  22.235  0.00  0.00    +0.000 N 
ATOM     14  C   UNL     1      -0.731  11.387  22.478  0.00  0.00    +0.000 C 
ATOM     15  O   UNL     1      -1.560  11.033  23.308  0.00  0.00    +0.000 OA
ATOM     16  H   UNL     1       0.296  12.883  21.522  0.00  0.00    +0.000 HD
ENDBRANCH   6  14
ENDBRANCH   1   9
BRANCH   3  17
ATOM     17  C   UNL     1       3.595   4.449  18.386  0.00  0.00    +0.000 C 
ATOM     18  C   UNL     1       2.642   3.591  17.513  0.00  0.00    +0.000 C 
ATOM     19  C   UNL     1       2.899   2.139  17.921  0.00  0.00    +0.000 C 
ATOM     20  C   UNL     1       3.500   2.191  19.321  0.00  0.00    +0.000 C 
ATOM     21  C   UNL     1       3.470   3.664  19.716  0.00  0.00    +0.000 C 
BRANCH  17  22
ATOM     22  C   UNL     1       4.989   4.567  17.755  0.00  0.00    +0.000 A 
ATOM     23  C   UNL     1       6.151   4.878  18.478  0.00  0.00    +0.000 A 
ATOM     24  F   UNL     1       6.108   5.130  19.793  0.00  0.00    +0.000 F 
ATOM     25  C   UNL     1       7.418   4.921  17.886  0.00  0.00    +0.000 A 
ATOM     26  C   UNL     1       7.565   4.680  16.526  0.00  0.00    +0.000 A 
ATOM     27  C   UNL     1       6.437   4.393  15.769  0.00  0.00    +0.000 A 
ATOM     28  C   UNL     1       5.181   4.332  16.380  0.00  0.00    +0.000 A 
ATOM     29  F   UNL     1       4.140   4.020  15.595  0.00  0.00    +0.000 F 
ENDBRANCH  17  22
ENDBRANCH   3  17
TORSDOF 4
ENDMDL
