MODEL 1
REMARK VINA RESULT:      -8.4      0.000      0.000
REMARK  Name = 
REMARK  3 active torsions:
REMARK  status: ('A' for Active; 'I' for Inactive)
REMARK    1  A    between atoms: C_1  and  C_2
REMARK    2  A    between atoms: C_9  and  N_10
REMARK    3  A    between atoms: C_11  and  C_13
REMARK                            x       y       z     vdW  Elec       q    Type
REMARK                         _______ _______ _______ _____ _____    ______ ____
ROOT
ATOM      1  N   UNL     1       2.119   7.988  19.171  0.00  0.00    +0.000 N 
ATOM      2  C   UNL     1       2.361   6.668  19.513  0.00  0.00    +0.000 C 
ATOM      3  O   UNL     1       1.912   6.072  20.485  0.00  0.00    +0.000 OA
ATOM      4  H   UNL     1       2.536   8.351  18.326  0.00  0.00    +0.000 HD
ENDROOT
BRANCH   1  13
ATOM      5  C   UNL     1      -2.368  13.011  20.355  0.00  0.00    +0.000 C 
ATOM      6  C   UNL     1      -2.209  12.453  21.740  0.00  0.00    +0.000 C 
ATOM      7  O   UNL     1      -2.867  12.944  22.663  0.00  0.00    +0.000 OA
ATOM      8  N   UNL     1      -1.350  11.398  21.954  0.00  0.00    +0.000 N 
ATOM      9  C   UNL     1      -1.308  10.781  23.289  0.00  0.00    +0.000 C 
ATOM     10  C   UNL     1      -0.217   9.713  23.275  0.00  0.00    +0.000 C 
ATOM     11  C   UNL     1       0.130   9.663  21.824  0.00  0.00    +0.000 A 
ATOM     12  C   UNL     1       1.002   8.761  21.231  0.00  0.00    +0.000 A 
ATOM     13  C   UNL     1       1.277   8.880  19.869  0.00  0.00    +0.000 A 
ATOM     14  C   UNL     1       0.688   9.929  19.144  0.00  0.00    +0.000 A 
ATOM     15  C   UNL     1      -0.211  10.823  19.752  0.00  0.00    +0.000 A 
ATOM     16  C   UNL     1      -0.498  10.676  21.099  0.00  0.00    +0.000 A 
ENDBRANCH   1  13
BRANCH   2  17
ATOM     17  C   UNL     1       3.235   5.896  18.588  0.00  0.00    +0.000 A 
ATOM     18  C   UNL     1       3.231   4.495  18.702  0.00  0.00    +0.000 A 
ATOM     19  C   UNL     1       3.973   3.708  17.822  0.00  0.00    +0.000 A 
ATOM     20  C   UNL     1       4.701   4.322  16.809  0.00  0.00    +0.000 A 
ATOM     21  C   UNL     1       4.709   5.716  16.686  0.00  0.00    +0.000 A 
ATOM     22  C   UNL     1       3.986   6.505  17.578  0.00  0.00    +0.000 A 
ATOM     23  O   UNL     1       5.432   6.385  15.736  0.00  0.00    +0.000 OA
ATOM     24  C   UNL     1       5.797   5.583  14.622  0.00  0.00    +0.000 C 
ATOM     25  C   UNL     1       6.059   4.093  14.830  0.00  0.00    +0.000 C 
ATOM     26  O   UNL     1       6.714   3.407  14.050  0.00  0.00    +0.000 OA
ATOM     27  N   UNL     1       5.432   3.541  15.915  0.00  0.00    +0.000 N 
ATOM     28  H   UNL     1       5.507   2.538  16.030  0.00  0.00    +0.000 HD
ENDBRANCH   2  17
TORSDOF 2
ENDMDL
MODEL 2
REMARK VINA RESULT:      -8.3      2.094     10.132
REMARK  Name = 
REMARK  3 active torsions:
REMARK  status: ('A' for Active; 'I' for Inactive)
REMARK    1  A    between atoms: C_1  and  C_2
REMARK    2  A    between atoms: C_9  and  N_10
REMARK    3  A    between atoms: C_11  and  C_13
REMARK                            x       y       z     vdW  Elec       q    Type
REMARK                         _______ _______ _______ _____ _____    ______ ____
ROOT
ATOM      1  N   UNL     1       0.455   9.681  20.492  0.00  0.00    +0.000 N 
ATOM      2  C   UNL     1       0.493  10.083  21.816  0.00  0.00    +0.000 C 
ATOM      3  O   UNL     1       1.203   9.618  22.701  0.00  0.00    +0.000 OA
ATOM      4  H   UNL     1      -0.163  10.166  19.858  0.00  0.00    +0.000 HD
ENDROOT
BRANCH   1  13
ATOM      5  C   UNL     1       4.813   6.596  16.218  0.00  0.00    +0.000 C 
ATOM      6  C   UNL     1       4.626   5.517  17.245  0.00  0.00    +0.000 C 
ATOM      7  O   UNL     1       5.248   4.458  17.122  0.00  0.00    +0.000 OA
ATOM      8  N   UNL     1       3.782   5.732  18.312  0.00  0.00    +0.000 N 
ATOM      9  C   UNL     1       3.714   4.717  19.375  0.00  0.00    +0.000 C 
ATOM     10  C   UNL     1       2.644   5.156  20.372  0.00  0.00    +0.000 C 
ATOM     11  C   UNL     1       2.339   6.536  19.890  0.00  0.00    +0.000 A 
ATOM     12  C   UNL     1       1.501   7.445  20.519  0.00  0.00    +0.000 A 
ATOM     13  C   UNL     1       1.261   8.678  19.911  0.00  0.00    +0.000 A 
ATOM     14  C   UNL     1       1.849   8.949  18.665  0.00  0.00    +0.000 A 
ATOM     15  C   UNL     1       2.714   8.027  18.049  0.00  0.00    +0.000 A 
ATOM     16  C   UNL     1       2.966   6.819  18.676  0.00  0.00    +0.000 A 
ENDBRANCH   1  13
BRANCH   2  17
ATOM     17  C   UNL     1      -0.405  11.210  22.190  0.00  0.00    +0.000 A 
ATOM     18  C   UNL     1      -0.118  12.479  21.658  0.00  0.00    +0.000 A 
ATOM     19  C   UNL     1      -0.958  13.563  21.912  0.00  0.00    +0.000 A 
ATOM     20  C   UNL     1      -2.103  13.372  22.678  0.00  0.00    +0.000 A 
ATOM     21  C   UNL     1      -2.398  12.112  23.210  0.00  0.00    +0.000 A 
ATOM     22  C   UNL     1      -1.548  11.033  22.976  0.00  0.00    +0.000 A 
ATOM     23  O   UNL     1      -3.486  11.863  24.001  0.00  0.00    +0.000 OA
ATOM     24  C   UNL     1      -4.521  12.828  23.874  0.00  0.00    +0.000 C 
ATOM     25  C   UNL     1      -4.154  14.277  23.563  0.00  0.00    +0.000 C 
ATOM     26  O   UNL     1      -4.900  15.227  23.790  0.00  0.00    +0.000 OA
ATOM     27  N   UNL     1      -2.956  14.447  22.922  0.00  0.00    +0.000 N 
ATOM     28  H   UNL     1      -2.725  15.384  22.618  0.00  0.00    +0.000 HD
ENDBRANCH   2  17
TORSDOF 2
ENDMDL
MODEL 3
REMARK VINA RESULT:      -8.2      2.567      3.779
REMARK  Name = 
REMARK  3 active torsions:
REMARK  status: ('A' for Active; 'I' for Inactive)
REMARK    1  A    between atoms: C_1  and  C_2
REMARK    2  A    between atoms: C_9  and  N_10
REMARK    3  A    between atoms: C_11  and  C_13
REMARK                            x       y       z     vdW  Elec       q    Type
REMARK                         _______ _______ _______ _____ _____    ______ ____
ROOT
ATOM      1  N   UNL     1       1.544   8.696  19.486  0.00  0.00    +0.000 N 
ATOM      2  C   UNL     1       2.182   8.177  18.372  0.00  0.00    +0.000 C 
ATOM      3  O   UNL     1       2.276   8.708  17.271  0.00  0.00    +0.000 OA
ATOM      4  H   UNL     1       1.560   8.163  20.343  0.00  0.00    +0.000 HD
ENDROOT
BRANCH   1  13
ATOM      5  C   UNL     1      -2.841  13.595  21.368  0.00  0.00    +0.000 C 
ATOM      6  C   UNL     1      -1.895  14.387  20.512  0.00  0.00    +0.000 C 
ATOM      7  O   UNL     1      -2.079  15.601  20.382  0.00  0.00    +0.000 OA
ATOM      8  N   UNL     1      -0.834  13.754  19.904  0.00  0.00    +0.000 N 
ATOM      9  C   UNL     1       0.154  14.568  19.180  0.00  0.00    +0.000 C 
ATOM     10  C   UNL     1       1.156  13.617  18.530  0.00  0.00    +0.000 C 
ATOM     11  C   UNL     1       0.765  12.312  19.141  0.00  0.00    +0.000 A 
ATOM     12  C   UNL     1       1.438  11.110  18.980  0.00  0.00    +0.000 A 
ATOM     13  C   UNL     1       0.912   9.957  19.562  0.00  0.00    +0.000 A 
ATOM     14  C   UNL     1      -0.299  10.040  20.267  0.00  0.00    +0.000 A 
ATOM     15  C   UNL     1      -0.959  11.269  20.442  0.00  0.00    +0.000 A 
ATOM     16  C   UNL     1      -0.412  12.412  19.883  0.00  0.00    +0.000 A 
ENDBRANCH   1  13
BRANCH   2  17
ATOM     17  C   UNL     1       2.839   6.852  18.544  0.00  0.00    +0.000 A 
ATOM     18  C   UNL     1       4.092   6.660  17.937  0.00  0.00    +0.000 A 
ATOM     19  C   UNL     1       4.793   5.468  18.117  0.00  0.00    +0.000 A 
ATOM     20  C   UNL     1       4.252   4.475  18.926  0.00  0.00    +0.000 A 
ATOM     21  C   UNL     1       3.006   4.659  19.536  0.00  0.00    +0.000 A 
ATOM     22  C   UNL     1       2.294   5.841  19.340  0.00  0.00    +0.000 A 
ATOM     23  O   UNL     1       2.399   3.710  20.314  0.00  0.00    +0.000 OA
ATOM     24  C   UNL     1       3.293   2.734  20.830  0.00  0.00    +0.000 C 
ATOM     25  C   UNL     1       4.519   2.338  20.009  0.00  0.00    +0.000 C 
ATOM     26  O   UNL     1       5.131   1.286  20.173  0.00  0.00    +0.000 OA
ATOM     27  N   UNL     1       4.954   3.287  19.123  0.00  0.00    +0.000 N 
ATOM     28  H   UNL     1       5.817   3.097  18.631  0.00  0.00    +0.000 HD
ENDBRANCH   2  17
TORSDOF 2
ENDMDL
MODEL 4
REMARK VINA RESULT:      -8.2      1.197      2.015
REMARK  Name = 
REMARK  3 active torsions:
REMARK  status: ('A' for Active; 'I' for Inactive)
REMARK    1  A    between atoms: C_1  and  C_2
REMARK    2  A    between atoms: C_9  and  N_10
REMARK    3  A    between atoms: C_11  and  C_13
REMARK                            x       y       z     vdW  Elec       q    Type
REMARK                         _______ _______ _______ _____ _____    ______ ____
ROOT
ATOM      1  N   UNL     1       1.672   8.775  19.303  0.00  0.00    +0.000 N 
ATOM      2  C   UNL     1       1.944   7.533  19.849  0.00  0.00    +0.000 C 
ATOM      3  O   UNL     1       1.423   7.042  20.844  0.00  0.00    +0.000 OA
ATOM      4  H   UNL     1       2.160   9.050  18.462  0.00  0.00    +0.000 HD
ENDROOT
BRANCH   1  13
ATOM      5  C   UNL     1      -1.410  13.350  23.346  0.00  0.00    +0.000 C 
ATOM      6  C   UNL     1      -2.330  13.368  22.159  0.00  0.00    +0.000 C 
ATOM      7  O   UNL     1      -3.299  14.134  22.164  0.00  0.00    +0.000 OA
ATOM      8  N   UNL     1      -2.070  12.549  21.083  0.00  0.00    +0.000 N 
ATOM      9  C   UNL     1      -2.905  12.677  19.879  0.00  0.00    +0.000 C 
ATOM     10  C   UNL     1      -2.468  11.599  18.891  0.00  0.00    +0.000 C 
ATOM     11  C   UNL     1      -1.237  11.073  19.552  0.00  0.00    +0.000 A 
ATOM     12  C   UNL     1      -0.365  10.138  19.012  0.00  0.00    +0.000 A 
ATOM     13  C   UNL     1       0.712   9.694  19.779  0.00  0.00    +0.000 A 
ATOM     14  C   UNL     1       0.864  10.181  21.087  0.00  0.00    +0.000 A 
ATOM     15  C   UNL     1      -0.014  11.145  21.614  0.00  0.00    +0.000 A 
ATOM     16  C   UNL     1      -1.062  11.599  20.832  0.00  0.00    +0.000 A 
ENDBRANCH   1  13
BRANCH   2  17
ATOM     17  C   UNL     1       2.955   6.704  19.136  0.00  0.00    +0.000 A 
ATOM     18  C   UNL     1       3.296   5.461  19.697  0.00  0.00    +0.000 A 
ATOM     19  C   UNL     1       4.183   4.606  19.045  0.00  0.00    +0.000 A 
ATOM     20  C   UNL     1       4.712   4.983  17.815  0.00  0.00    +0.000 A 
ATOM     21  C   UNL     1       4.376   6.217  17.247  0.00  0.00    +0.000 A 
ATOM     22  C   UNL     1       3.507   7.083  17.908  0.00  0.00    +0.000 A 
ATOM     23  O   UNL     1       4.888   6.665  16.060  0.00  0.00    +0.000 OA
ATOM     24  C   UNL     1       5.407   5.633  15.233  0.00  0.00    +0.000 C 
ATOM     25  C   UNL     1       6.030   4.399  15.883  0.00  0.00    +0.000 C 
ATOM     26  O   UNL     1       6.811   3.651  15.301  0.00  0.00    +0.000 OA
ATOM     27  N   UNL     1       5.587   4.126  17.149  0.00  0.00    +0.000 N 
ATOM     28  H   UNL     1       5.907   3.265  17.574  0.00  0.00    +0.000 HD
ENDBRANCH   2  17
TORSDOF 2
ENDMDL
MODEL 5
REMARK VINA RESULT:      -8.1      2.506      9.756
REMARK  Name = 
REMARK  3 active torsions:
REMARK  status: ('A' for Active; 'I' for Inactive)
REMARK    1  A    between atoms: C_1  and  C_2
REMARK    2  A    between atoms: C_9  and  N_10
REMARK    3  A    between atoms: C_11  and  C_13
REMARK                            x       y       z     vdW  Elec       q    Type
REMARK                         _______ _______ _______ _____ _____    ______ ____
ROOT
ATOM      1  N   UNL     1       1.426   8.716  20.400  0.00  0.00    +0.000 N 
ATOM      2  C   UNL     1       0.320   9.084  21.145  0.00  0.00    +0.000 C 
ATOM      3  O   UNL     1      -0.549   8.335  21.581  0.00  0.00    +0.000 OA
ATOM      4  H   UNL     1       2.080   9.434  20.122  0.00  0.00    +0.000 HD
ENDROOT
BRANCH   1  13
ATOM      5  C   UNL     1       4.214   3.521  16.935  0.00  0.00    +0.000 C 
ATOM      6  C   UNL     1       3.628   2.787  18.106  0.00  0.00    +0.000 C 
ATOM      7  O   UNL     1       3.788   1.565  18.188  0.00  0.00    +0.000 OA
ATOM      8  N   UNL     1       2.940   3.486  19.072  0.00  0.00    +0.000 N 
ATOM      9  C   UNL     1       2.488   2.770  20.276  0.00  0.00    +0.000 C 
ATOM     10  C   UNL     1       1.679   3.748  21.125  0.00  0.00    +0.000 C 
ATOM     11  C   UNL     1       1.933   5.036  20.414  0.00  0.00    +0.000 A 
ATOM     12  C   UNL     1       1.519   6.290  20.841  0.00  0.00    +0.000 A 
ATOM     13  C   UNL     1       1.775   7.398  20.033  0.00  0.00    +0.000 A 
ATOM     14  C   UNL     1       2.415   7.209  18.798  0.00  0.00    +0.000 A 
ATOM     15  C   UNL     1       2.849   5.935  18.388  0.00  0.00    +0.000 A 
ATOM     16  C   UNL     1       2.615   4.848  19.211  0.00  0.00    +0.000 A 
ENDBRANCH   1  13
BRANCH   2  17
ATOM     17  C   UNL     1       0.190  10.531  21.468  0.00  0.00    +0.000 A 
ATOM     18  C   UNL     1       0.966  11.438  20.725  0.00  0.00    +0.000 A 
ATOM     19  C   UNL     1       0.841  12.812  20.928  0.00  0.00    +0.000 A 
ATOM     20  C   UNL     1      -0.079  13.283  21.858  0.00  0.00    +0.000 A 
ATOM     21  C   UNL     1      -0.857  12.387  22.600  0.00  0.00    +0.000 A 
ATOM     22  C   UNL     1      -0.718  11.013  22.415  0.00  0.00    +0.000 A 
ATOM     23  O   UNL     1      -1.754  12.780  23.556  0.00  0.00    +0.000 OA
ATOM     24  C   UNL     1      -2.173  14.131  23.428  0.00  0.00    +0.000 C 
ATOM     25  C   UNL     1      -1.199  15.164  22.865  0.00  0.00    +0.000 C 
ATOM     26  O   UNL     1      -1.316  16.373  23.049  0.00  0.00    +0.000 OA
ATOM     27  N   UNL     1      -0.220  14.655  22.055  0.00  0.00    +0.000 N 
ATOM     28  H   UNL     1       0.385  15.320  21.590  0.00  0.00    +0.000 HD
ENDBRANCH   2  17
TORSDOF 2
ENDMDL
MODEL 6
REMARK VINA RESULT:      -8.1      1.539      9.575
REMARK  Name = 
REMARK  3 active torsions:
REMARK  status: ('A' for Active; 'I' for Inactive)
REMARK    1  A    between atoms: C_1  and  C_2
REMARK    2  A    between atoms: C_9  and  N_10
REMARK    3  A    between atoms: C_11  and  C_13
REMARK                            x       y       z     vdW  Elec       q    Type
REMARK                         _______ _______ _______ _____ _____    ______ ____
ROOT
ATOM      1  N   UNL     1       1.712   8.343  19.346  0.00  0.00    +0.000 N 
ATOM      2  C   UNL     1       1.265   8.203  20.649  0.00  0.00    +0.000 C 
ATOM      3  O   UNL     1       1.405   7.219  21.367  0.00  0.00    +0.000 OA
ATOM      4  H   UNL     1       1.549   9.220  18.873  0.00  0.00    +0.000 HD
ENDROOT
BRANCH   1  13
ATOM      5  C   UNL     1       6.709   5.517  15.630  0.00  0.00    +0.000 C 
ATOM      6  C   UNL     1       5.843   4.317  15.883  0.00  0.00    +0.000 C 
ATOM      7  O   UNL     1       6.199   3.219  15.445  0.00  0.00    +0.000 OA
ATOM      8  N   UNL     1       4.681   4.457  16.609  0.00  0.00    +0.000 N 
ATOM      9  C   UNL     1       3.917   3.250  16.958  0.00  0.00    +0.000 C 
ATOM     10  C   UNL     1       2.642   3.695  17.671  0.00  0.00    +0.000 C 
ATOM     11  C   UNL     1       2.904   5.151  17.865  0.00  0.00    +0.000 A 
ATOM     12  C   UNL     1       2.101   6.030  18.578  0.00  0.00    +0.000 A 
ATOM     13  C   UNL     1       2.444   7.381  18.617  0.00  0.00    +0.000 A 
ATOM     14  C   UNL     1       3.574   7.819  17.907  0.00  0.00    +0.000 A 
ATOM     15  C   UNL     1       4.392   6.914  17.207  0.00  0.00    +0.000 A 
ATOM     16  C   UNL     1       4.057   5.571  17.200  0.00  0.00    +0.000 A 
ENDBRANCH   1  13
BRANCH   2  17
ATOM     17  C   UNL     1       0.568   9.379  21.239  0.00  0.00    +0.000 A 
ATOM     18  C   UNL     1      -0.218   9.165  22.385  0.00  0.00    +0.000 A 
ATOM     19  C   UNL     1      -0.841  10.234  23.028  0.00  0.00    +0.000 A 
ATOM     20  C   UNL     1      -0.658  11.523  22.540  0.00  0.00    +0.000 A 
ATOM     21  C   UNL     1       0.125  11.745  21.401  0.00  0.00    +0.000 A 
ATOM     22  C   UNL     1       0.731  10.676  20.744  0.00  0.00    +0.000 A 
ATOM     23  O   UNL     1       0.317  12.982  20.847  0.00  0.00    +0.000 OA
ATOM     24  C   UNL     1       0.061  14.056  21.740  0.00  0.00    +0.000 C 
ATOM     25  C   UNL     1      -1.009  13.891  22.817  0.00  0.00    +0.000 C 
ATOM     26  O   UNL     1      -1.554  14.839  23.378  0.00  0.00    +0.000 OA
ATOM     27  N   UNL     1      -1.265  12.598  23.187  0.00  0.00    +0.000 N 
ATOM     28  H   UNL     1      -1.899  12.457  23.963  0.00  0.00    +0.000 HD
ENDBRANCH   2  17
TORSDOF 2
ENDMDL
MODEL 7
REMARK VINA RESULT:      -8.1      3.059      9.360
REMARK  Name = 
REMARK  3 active torsions:
REMARK  status: ('A' for Active; 'I' for Inactive)
REMARK    1  A    between atoms: C_1  and  C_2
REMARK    2  A    between atoms: C_9  and  N_10
REMARK    3  A    between atoms: C_11  and  C_13
REMARK                            x       y       z     vdW  Elec       q    Type
REMARK                         _______ _______ _______ _____ _____    ______ ____
ROOT
ATOM      1  N   UNL     1       1.073   8.260  18.417  0.00  0.00    +0.000 N 
ATOM      2  C   UNL     1       1.020   9.642  18.349  0.00  0.00    +0.000 C 
ATOM      3  O   UNL     1       1.973  10.404  18.235  0.00  0.00    +0.000 OA
ATOM      4  H   UNL     1       0.205   7.748  18.488  0.00  0.00    +0.000 HD
ENDROOT
BRANCH   1  13
ATOM      5  C   UNL     1       7.447   6.354  16.832  0.00  0.00    +0.000 C 
ATOM      6  C   UNL     1       7.026   5.207  17.706  0.00  0.00    +0.000 C 
ATOM      7  O   UNL     1       7.836   4.304  17.940  0.00  0.00    +0.000 OA
ATOM      8  N   UNL     1       5.758   5.189  18.243  0.00  0.00    +0.000 N 
ATOM      9  C   UNL     1       5.411   4.128  19.200  0.00  0.00    +0.000 C 
ATOM     10  C   UNL     1       3.935   4.288  19.559  0.00  0.00    +0.000 C 
ATOM     11  C   UNL     1       3.616   5.599  18.922  0.00  0.00    +0.000 A 
ATOM     12  C   UNL     1       2.415   6.286  19.040  0.00  0.00    +0.000 A 
ATOM     13  C   UNL     1       2.242   7.473  18.330  0.00  0.00    +0.000 A 
ATOM     14  C   UNL     1       3.274   7.924  17.492  0.00  0.00    +0.000 A 
ATOM     15  C   UNL     1       4.494   7.230  17.398  0.00  0.00    +0.000 A 
ATOM     16  C   UNL     1       4.665   6.068  18.129  0.00  0.00    +0.000 A 
ENDBRANCH   1  13
BRANCH   2  17
ATOM     17  C   UNL     1      -0.336  10.255  18.397  0.00  0.00    +0.000 A 
ATOM     18  C   UNL     1      -0.569  11.252  19.360  0.00  0.00    +0.000 A 
ATOM     19  C   UNL     1      -1.795  11.916  19.413  0.00  0.00    +0.000 A 
ATOM     20  C   UNL     1      -2.781  11.600  18.484  0.00  0.00    +0.000 A 
ATOM     21  C   UNL     1      -2.556  10.611  17.520  0.00  0.00    +0.000 A 
ATOM     22  C   UNL     1      -1.340   9.931  17.480  0.00  0.00    +0.000 A 
ATOM     23  O   UNL     1      -3.494  10.226  16.602  0.00  0.00    +0.000 OA
ATOM     24  C   UNL     1      -4.519  11.187  16.392  0.00  0.00    +0.000 C 
ATOM     25  C   UNL     1      -4.950  12.083  17.551  0.00  0.00    +0.000 C 
ATOM     26  O   UNL     1      -6.032  12.664  17.591  0.00  0.00    +0.000 OA
ATOM     27  N   UNL     1      -4.002  12.271  18.521  0.00  0.00    +0.000 N 
ATOM     28  H   UNL     1      -4.219  12.933  19.255  0.00  0.00    +0.000 HD
ENDBRANCH   2  17
TORSDOF 2
ENDMDL
MODEL 8
REMARK VINA RESULT:      -8.1      2.408     10.184
REMARK  Name = 
REMARK  3 active torsions:
REMARK  status: ('A' for Active; 'I' for Inactive)
REMARK    1  A    between atoms: C_1  and  C_2
REMARK    2  A    between atoms: C_9  and  N_10
REMARK    3  A    between atoms: C_11  and  C_13
REMARK                            x       y       z     vdW  Elec       q    Type
REMARK                         _______ _______ _______ _____ _____    ______ ____
ROOT
ATOM      1  N   UNL     1       0.454   9.188  20.769  0.00  0.00    +0.000 N 
ATOM      2  C   UNL     1       0.639   9.852  21.969  0.00  0.00    +0.000 C 
ATOM      3  O   UNL     1       1.478   9.593  22.825  0.00  0.00    +0.000 OA
ATOM      4  H   UNL     1      -0.263   9.520  20.140  0.00  0.00    +0.000 HD
ENDROOT
BRANCH   1  13
ATOM      5  C   UNL     1       2.924   2.845  20.106  0.00  0.00    +0.000 C 
ATOM      6  C   UNL     1       3.625   3.533  18.971  0.00  0.00    +0.000 C 
ATOM      7  O   UNL     1       4.374   2.874  18.242  0.00  0.00    +0.000 OA
ATOM      8  N   UNL     1       3.411   4.876  18.751  0.00  0.00    +0.000 N 
ATOM      9  C   UNL     1       4.003   5.500  17.558  0.00  0.00    +0.000 C 
ATOM     10  C   UNL     1       3.693   6.994  17.611  0.00  0.00    +0.000 C 
ATOM     11  C   UNL     1       2.735   7.058  18.754  0.00  0.00    +0.000 A 
ATOM     12  C   UNL     1       2.041   8.186  19.166  0.00  0.00    +0.000 A 
ATOM     13  C   UNL     1       1.228   8.105  20.296  0.00  0.00    +0.000 A 
ATOM     14  C   UNL     1       1.160   6.894  21.003  0.00  0.00    +0.000 A 
ATOM     15  C   UNL     1       1.852   5.752  20.562  0.00  0.00    +0.000 A 
ATOM     16  C   UNL     1       2.633   5.837  19.423  0.00  0.00    +0.000 A 
ENDBRANCH   1  13
BRANCH   2  17
ATOM     17  C   UNL     1      -0.258  11.011  22.229  0.00  0.00    +0.000 A 
ATOM     18  C   UNL     1       0.032  12.222  21.575  0.00  0.00    +0.000 A 
ATOM     19  C   UNL     1      -0.808  13.326  21.719  0.00  0.00    +0.000 A 
ATOM     20  C   UNL     1      -1.954  13.212  22.498  0.00  0.00    +0.000 A 
ATOM     21  C   UNL     1      -2.252  12.010  23.150  0.00  0.00    +0.000 A 
ATOM     22  C   UNL     1      -1.403  10.913  23.025  0.00  0.00    +0.000 A 
ATOM     23  O   UNL     1      -3.343  11.841  23.960  0.00  0.00    +0.000 OA
ATOM     24  C   UNL     1      -4.376  12.790  23.736  0.00  0.00    +0.000 C 
ATOM     25  C   UNL     1      -4.007  14.202  23.284  0.00  0.00    +0.000 C 
ATOM     26  O   UNL     1      -4.752  15.170  23.416  0.00  0.00    +0.000 OA
ATOM     27  N   UNL     1      -2.807  14.307  22.633  0.00  0.00    +0.000 N 
ATOM     28  H   UNL     1      -2.574  15.209  22.239  0.00  0.00    +0.000 HD
ENDBRANCH   2  17
TORSDOF 2
ENDMDL
MODEL 9
REMARK VINA RESULT:      -8.0      7.044      8.876
REMARK  Name = 
REMARK  3 active torsions:
REMARK  status: ('A' for Active; 'I' for Inactive)
REMARK    1  A    between atoms: C_1  and  C_2
REMARK    2  A    between atoms: C_9  and  N_10
REMARK    3  A    between atoms: C_11  and  C_13
REMARK                            x       y       z     vdW  Elec       q    Type
REMARK                         _______ _______ _______ _____ _____    ______ ____
ROOT
ATOM      1  N   UNL     1       8.349   9.261  18.736  0.00  0.00    +0.000 N 
ATOM      2  C   UNL     1       8.168   8.378  17.685  0.00  0.00    +0.000 C 
ATOM      3  O   UNL     1       8.575   8.517  16.536  0.00  0.00    +0.000 OA
ATOM      4  H   UNL     1       7.979   9.013  19.642  0.00  0.00    +0.000 HD
ENDROOT
BRANCH   1  13
ATOM      5  C   UNL     1       9.815  15.832  17.536  0.00  0.00    +0.000 C 
ATOM      6  C   UNL     1      11.053  15.404  18.270  0.00  0.00    +0.000 C 
ATOM      7  O   UNL     1      11.936  16.239  18.494  0.00  0.00    +0.000 OA
ATOM      8  N   UNL     1      11.176  14.100  18.695  0.00  0.00    +0.000 N 
ATOM      9  C   UNL     1      12.333  13.734  19.526  0.00  0.00    +0.000 C 
ATOM     10  C   UNL     1      12.274  12.228  19.771  0.00  0.00    +0.000 C 
ATOM     11  C   UNL     1      10.926  11.892  19.224  0.00  0.00    +0.000 A 
ATOM     12  C   UNL     1      10.308  10.652  19.299  0.00  0.00    +0.000 A 
ATOM     13  C   UNL     1       9.071  10.473  18.681  0.00  0.00    +0.000 A 
ATOM     14  C   UNL     1       8.501  11.544  17.973  0.00  0.00    +0.000 A 
ATOM     15  C   UNL     1       9.127  12.802  17.924  0.00  0.00    +0.000 A 
ATOM     16  C   UNL     1      10.341  12.974  18.565  0.00  0.00    +0.000 A 
ENDBRANCH   1  13
BRANCH   2  17
ATOM     17  C   UNL     1       7.424   7.126  17.994  0.00  0.00    +0.000 A 
ATOM     18  C   UNL     1       7.925   6.304  19.018  0.00  0.00    +0.000 A 
ATOM     19  C   UNL     1       7.239   5.153  19.405  0.00  0.00    +0.000 A 
ATOM     20  C   UNL     1       6.036   4.836  18.784  0.00  0.00    +0.000 A 
ATOM     21  C   UNL     1       5.529   5.651  17.765  0.00  0.00    +0.000 A 
ATOM     22  C   UNL     1       6.224   6.789  17.361  0.00  0.00    +0.000 A 
ATOM     23  O   UNL     1       4.371   5.378  17.087  0.00  0.00    +0.000 OA
ATOM     24  C   UNL     1       3.499   4.494  17.776  0.00  0.00    +0.000 C 
ATOM     25  C   UNL     1       4.091   3.417  18.683  0.00  0.00    +0.000 C 
ATOM     26  O   UNL     1       3.481   2.405  19.018  0.00  0.00    +0.000 OA
ATOM     27  N   UNL     1       5.337   3.697  19.177  0.00  0.00    +0.000 N 
ATOM     28  H   UNL     1       5.720   3.050  19.854  0.00  0.00    +0.000 HD
ENDBRANCH   2  17
TORSDOF 2
ENDMDL
