MODEL 1
REMARK VINA RESULT:      -8.4      0.000      0.000
REMARK  Name = 
REMARK  6 active torsions:
REMARK  status: ('A' for Active; 'I' for Inactive)
REMARK    1  A    between atoms: C_2  and  C_25
REMARK    2  A    between atoms: N_3  and  C_4
REMARK    3  A    between atoms: C_8  and  C_9
REMARK    4  A    between atoms: N_11  and  C_12
REMARK    5  A    between atoms: N_15  and  C_16
REMARK    6  A    between atoms: C_16  and  C_17
REMARK                            x       y       z     vdW  Elec       q    Type
REMARK                         _______ _______ _______ _____ _____    ______ ____
ROOT
ATOM      1  C   UNL     1       3.865   5.662  17.561  0.00  0.00    +0.000 A 
ATOM      2  C   UNL     1       3.815   4.938  18.752  0.00  0.00    +0.000 A 
ATOM      3  C   UNL     1       3.131   5.432  19.863  0.00  0.00    +0.000 A 
ATOM      4  C   UNL     1       2.492   6.672  19.797  0.00  0.00    +0.000 A 
ATOM      5  C   UNL     1       2.561   7.434  18.626  0.00  0.00    +0.000 A 
ATOM      6  C   UNL     1       3.256   6.922  17.512  0.00  0.00    +0.000 A 
ENDROOT
BRANCH   1   9
ATOM      7  O   UNL     1       6.421   6.510  16.369  0.00  0.00    +0.000 OA
ATOM      8  C   UNL     1       5.699   5.647  15.878  0.00  0.00    +0.000 C 
ATOM      9  N   UNL     1       4.502   5.181  16.392  0.00  0.00    +0.000 N 
ATOM     10  H   UNL     1       4.116   4.337  15.986  0.00  0.00    +0.000 HD
BRANCH   8  11
ATOM     11  C   UNL     1       6.180   4.987  14.635  0.00  0.00    +0.000 A 
ATOM     12  C   UNL     1       7.382   5.446  14.074  0.00  0.00    +0.000 A 
ATOM     13  C   UNL     1       7.849   4.903  12.880  0.00  0.00    +0.000 A 
ATOM     14  C   UNL     1       7.107   3.914  12.246  0.00  0.00    +0.000 A 
ATOM     15  F   UNL     1       7.547   3.412  11.087  0.00  0.00    +0.000 F 
ATOM     16  C   UNL     1       5.909   3.452  12.788  0.00  0.00    +0.000 A 
ATOM     17  C   UNL     1       5.438   3.990  13.989  0.00  0.00    +0.000 A 
ENDBRANCH   8  11
ENDBRANCH   1   9
BRANCH   5  18
ATOM     18  C   UNL     1       1.908   8.776  18.489  0.00  0.00    +0.000 C 
ATOM     19  O   UNL     1       2.089   9.444  17.476  0.00  0.00    +0.000 OA
ATOM     20  N   UNL     1       1.129   9.219  19.541  0.00  0.00    +0.000 N 
ATOM     21  H   UNL     1       1.159   8.737  20.427  0.00  0.00    +0.000 HD
BRANCH  20  22
ATOM     22  C   UNL     1       0.580  10.572  19.568  0.00  0.00    +0.000 C 
ATOM     23  C   UNL     1       1.076  11.310  20.806  0.00  0.00    +0.000 C 
ATOM     24  C   UNL     1      -0.031  11.047  21.812  0.00  0.00    +0.000 C 
ATOM     25  N   UNL     1      -1.282  11.163  21.041  0.00  0.00    +0.000 NA
ATOM     26  C   UNL     1      -0.956  10.567  19.722  0.00  0.00    +0.000 C 
BRANCH  25  27
ATOM     27  C   UNL     1      -1.682  12.582  20.927  0.00  0.00    +0.000 C 
BRANCH  27  28
ATOM     28  C   UNL     1      -2.255  13.168  22.200  0.00  0.00    +0.000 A 
ATOM     29  C   UNL     1      -1.615  14.222  22.866  0.00  0.00    +0.000 A 
ATOM     30  C   UNL     1      -2.146  14.737  24.050  0.00  0.00    +0.000 A 
ATOM     31  C   UNL     1      -3.330  14.216  24.570  0.00  0.00    +0.000 A 
ATOM     32  C   UNL     1      -3.992  13.189  23.901  0.00  0.00    +0.000 A 
ATOM     33  C   UNL     1      -3.458  12.668  22.722  0.00  0.00    +0.000 A 
ENDBRANCH  27  28
ENDBRANCH  25  27
ENDBRANCH  20  22
ENDBRANCH   5  18
TORSDOF 6
ENDMDL
MODEL 2
REMARK VINA RESULT:      -8.4      1.260      1.656
REMARK  Name = 
REMARK  6 active torsions:
REMARK  status: ('A' for Active; 'I' for Inactive)
REMARK    1  A    between atoms: C_2  and  C_25
REMARK    2  A    between atoms: N_3  and  C_4
REMARK    3  A    between atoms: C_8  and  C_9
REMARK    4  A    between atoms: N_11  and  C_12
REMARK    5  A    between atoms: N_15  and  C_16
REMARK    6  A    between atoms: C_16  and  C_17
REMARK                            x       y       z     vdW  Elec       q    Type
REMARK                         _______ _______ _______ _____ _____    ______ ____
ROOT
ATOM      1  C   UNL     1       3.570   4.530  17.840  0.00  0.00    +0.000 A 
ATOM      2  C   UNL     1       3.206   3.490  18.696  0.00  0.00    +0.000 A 
ATOM      3  C   UNL     1       2.475   3.739  19.858  0.00  0.00    +0.000 A 
ATOM      4  C   UNL     1       2.106   5.045  20.185  0.00  0.00    +0.000 A 
ATOM      5  C   UNL     1       2.493   6.109  19.364  0.00  0.00    +0.000 A 
ATOM      6  C   UNL     1       3.231   5.842  18.194  0.00  0.00    +0.000 A 
ENDROOT
BRANCH   1   9
ATOM      7  O   UNL     1       5.922   5.959  16.793  0.00  0.00    +0.000 OA
ATOM      8  C   UNL     1       5.356   5.052  16.188  0.00  0.00    +0.000 C 
ATOM      9  N   UNL     1       4.266   4.322  16.626  0.00  0.00    +0.000 N 
ATOM     10  H   UNL     1       4.028   3.483  16.111  0.00  0.00    +0.000 HD
BRANCH   8  11
ATOM     11  C   UNL     1       5.929   4.652  14.875  0.00  0.00    +0.000 A 
ATOM     12  C   UNL     1       7.166   5.203  14.506  0.00  0.00    +0.000 A 
ATOM     13  C   UNL     1       7.722   4.908  13.264  0.00  0.00    +0.000 A 
ATOM     14  C   UNL     1       7.031   4.075  12.392  0.00  0.00    +0.000 A 
ATOM     15  F   UNL     1       7.556   3.813  11.189  0.00  0.00    +0.000 F 
ATOM     16  C   UNL     1       5.799   3.525  12.741  0.00  0.00    +0.000 A 
ATOM     17  C   UNL     1       5.240   3.814  13.989  0.00  0.00    +0.000 A 
ENDBRANCH   8  11
ENDBRANCH   1   9
BRANCH   5  18
ATOM     18  C   UNL     1       2.139   7.535  19.659  0.00  0.00    +0.000 C 
ATOM     19  O   UNL     1       2.259   8.389  18.787  0.00  0.00    +0.000 OA
ATOM     20  N   UNL     1       1.703   7.835  20.936  0.00  0.00    +0.000 N 
ATOM     21  H   UNL     1       1.800   7.154  21.674  0.00  0.00    +0.000 HD
BRANCH  20  22
ATOM     22  C   UNL     1       1.484   9.214  21.364  0.00  0.00    +0.000 C 
ATOM     23  C   UNL     1       0.997   9.240  22.808  0.00  0.00    +0.000 C 
ATOM     24  C   UNL     1      -0.513   9.253  22.645  0.00  0.00    +0.000 C 
ATOM     25  N   UNL     1      -0.766  10.161  21.512  0.00  0.00    +0.000 NA
ATOM     26  C   UNL     1       0.347   9.891  20.570  0.00  0.00    +0.000 C 
BRANCH  25  27
ATOM     27  C   UNL     1      -0.774  11.566  21.975  0.00  0.00    +0.000 C 
BRANCH  27  28
ATOM     28  C   UNL     1      -2.159  12.140  22.188  0.00  0.00    +0.000 A 
ATOM     29  C   UNL     1      -2.755  12.146  23.457  0.00  0.00    +0.000 A 
ATOM     30  C   UNL     1      -4.041  12.661  23.631  0.00  0.00    +0.000 A 
ATOM     31  C   UNL     1      -4.736  13.191  22.544  0.00  0.00    +0.000 A 
ATOM     32  C   UNL     1      -4.141  13.219  21.284  0.00  0.00    +0.000 A 
ATOM     33  C   UNL     1      -2.860  12.697  21.107  0.00  0.00    +0.000 A 
ENDBRANCH  27  28
ENDBRANCH  25  27
ENDBRANCH  20  22
ENDBRANCH   5  18
TORSDOF 6
ENDMDL
MODEL 3
REMARK VINA RESULT:      -8.3      1.220      1.822
REMARK  Name = 
REMARK  6 active torsions:
REMARK  status: ('A' for Active; 'I' for Inactive)
REMARK    1  A    between atoms: C_2  and  C_25
REMARK    2  A    between atoms: N_3  and  C_4
REMARK    3  A    between atoms: C_8  and  C_9
REMARK    4  A    between atoms: N_11  and  C_12
REMARK    5  A    between atoms: N_15  and  C_16
REMARK    6  A    between atoms: C_16  and  C_17
REMARK                            x       y       z     vdW  Elec       q    Type
REMARK                         _______ _______ _______ _____ _____    ______ ____
ROOT
ATOM      1  C   UNL     1       3.591   4.607  17.666  0.00  0.00    +0.000 A 
ATOM      2  C   UNL     1       3.215   3.543  18.486  0.00  0.00    +0.000 A 
ATOM      3  C   UNL     1       2.478   3.761  19.650  0.00  0.00    +0.000 A 
ATOM      4  C   UNL     1       2.116   5.059  20.017  0.00  0.00    +0.000 A 
ATOM      5  C   UNL     1       2.515   6.145  19.232  0.00  0.00    +0.000 A 
ATOM      6  C   UNL     1       3.260   5.910  18.059  0.00  0.00    +0.000 A 
ENDROOT
BRANCH   1   9
ATOM      7  O   UNL     1       5.974   6.037  16.689  0.00  0.00    +0.000 OA
ATOM      8  C   UNL     1       5.399   5.162  16.047  0.00  0.00    +0.000 C 
ATOM      9  N   UNL     1       4.294   4.432  16.450  0.00  0.00    +0.000 N 
ATOM     10  H   UNL     1       4.048   3.616  15.904  0.00  0.00    +0.000 HD
BRANCH   8  11
ATOM     11  C   UNL     1       5.976   4.801  14.726  0.00  0.00    +0.000 A 
ATOM     12  C   UNL     1       5.269   3.884  13.931  0.00  0.00    +0.000 A 
ATOM     13  C   UNL     1       5.792   3.466  12.710  0.00  0.00    +0.000 A 
ATOM     14  C   UNL     1       7.024   3.958  12.295  0.00  0.00    +0.000 A 
ATOM     15  F   UNL     1       7.534   3.536  11.132  0.00  0.00    +0.000 F 
ATOM     16  C   UNL     1       7.740   4.864  13.074  0.00  0.00    +0.000 A 
ATOM     17  C   UNL     1       7.217   5.290  14.299  0.00  0.00    +0.000 A 
ENDBRANCH   8  11
ENDBRANCH   1   9
BRANCH   5  18
ATOM     18  C   UNL     1       2.169   7.564  19.570  0.00  0.00    +0.000 C 
ATOM     19  O   UNL     1       2.288   8.441  18.721  0.00  0.00    +0.000 OA
ATOM     20  N   UNL     1       1.743   7.829  20.858  0.00  0.00    +0.000 N 
ATOM     21  H   UNL     1       1.842   7.127  21.575  0.00  0.00    +0.000 HD
BRANCH  20  22
ATOM     22  C   UNL     1       1.533   9.196  21.326  0.00  0.00    +0.000 C 
ATOM     23  C   UNL     1       0.959   9.180  22.738  0.00  0.00    +0.000 C 
ATOM     24  C   UNL     1      -0.538   9.240  22.486  0.00  0.00    +0.000 C 
ATOM     25  N   UNL     1      -0.699  10.197  21.376  0.00  0.00    +0.000 NA
ATOM     26  C   UNL     1       0.462   9.933  20.492  0.00  0.00    +0.000 C 
BRANCH  25  27
ATOM     27  C   UNL     1      -0.700  11.583  21.893  0.00  0.00    +0.000 C 
BRANCH  27  28
ATOM     28  C   UNL     1      -2.083  12.158  22.122  0.00  0.00    +0.000 A 
ATOM     29  C   UNL     1      -2.821  12.714  21.069  0.00  0.00    +0.000 A 
ATOM     30  C   UNL     1      -4.085  13.258  21.302  0.00  0.00    +0.000 A 
ATOM     31  C   UNL     1      -4.631  13.235  22.585  0.00  0.00    +0.000 A 
ATOM     32  C   UNL     1      -3.921  12.656  23.633  0.00  0.00    +0.000 A 
ATOM     33  C   UNL     1      -2.653  12.120  23.404  0.00  0.00    +0.000 A 
ENDBRANCH  27  28
ENDBRANCH  25  27
ENDBRANCH  20  22
ENDBRANCH   5  18
TORSDOF 6
ENDMDL
MODEL 4
REMARK VINA RESULT:      -8.1      1.280      1.882
REMARK  Name = 
REMARK  6 active torsions:
REMARK  status: ('A' for Active; 'I' for Inactive)
REMARK    1  A    between atoms: C_2  and  C_25
REMARK    2  A    between atoms: N_3  and  C_4
REMARK    3  A    between atoms: C_8  and  C_9
REMARK    4  A    between atoms: N_11  and  C_12
REMARK    5  A    between atoms: N_15  and  C_16
REMARK    6  A    between atoms: C_16  and  C_17
REMARK                            x       y       z     vdW  Elec       q    Type
REMARK                         _______ _______ _______ _____ _____    ______ ____
ROOT
ATOM      1  C   UNL     1       3.835   5.666  17.505  0.00  0.00    +0.000 A 
ATOM      2  C   UNL     1       3.749   4.917  18.678  0.00  0.00    +0.000 A 
ATOM      3  C   UNL     1       3.059   5.401  19.789  0.00  0.00    +0.000 A 
ATOM      4  C   UNL     1       2.451   6.657  19.742  0.00  0.00    +0.000 A 
ATOM      5  C   UNL     1       2.556   7.443  18.590  0.00  0.00    +0.000 A 
ATOM      6  C   UNL     1       3.257   6.941  17.476  0.00  0.00    +0.000 A 
ENDROOT
BRANCH   1   9
ATOM      7  O   UNL     1       6.295   6.660  16.226  0.00  0.00    +0.000 OA
ATOM      8  C   UNL     1       5.628   5.732  15.779  0.00  0.00    +0.000 C 
ATOM      9  N   UNL     1       4.479   5.196  16.335  0.00  0.00    +0.000 N 
ATOM     10  H   UNL     1       4.147   4.314  15.964  0.00  0.00    +0.000 HD
BRANCH   8  11
ATOM     11  C   UNL     1       6.128   5.071  14.544  0.00  0.00    +0.000 A 
ATOM     12  C   UNL     1       5.353   4.036  13.997  0.00  0.00    +0.000 A 
ATOM     13  C   UNL     1       5.802   3.344  12.874  0.00  0.00    +0.000 A 
ATOM     14  C   UNL     1       7.027   3.681  12.314  0.00  0.00    +0.000 A 
ATOM     15  F   UNL     1       7.466   2.998  11.250  0.00  0.00    +0.000 F 
ATOM     16  C   UNL     1       7.810   4.702  12.849  0.00  0.00    +0.000 A 
ATOM     17  C   UNL     1       7.362   5.403  13.972  0.00  0.00    +0.000 A 
ENDBRANCH   8  11
ENDBRANCH   1   9
BRANCH   5  18
ATOM     18  C   UNL     1       1.937   8.803  18.474  0.00  0.00    +0.000 C 
ATOM     19  O   UNL     1       1.999   9.415  17.413  0.00  0.00    +0.000 OA
ATOM     20  N   UNL     1       1.326   9.327  19.598  0.00  0.00    +0.000 N 
ATOM     21  H   UNL     1       1.461   8.886  20.496  0.00  0.00    +0.000 HD
BRANCH  20  22
ATOM     22  C   UNL     1       0.833  10.701  19.629  0.00  0.00    +0.000 C 
ATOM     23  C   UNL     1       0.791  11.206  21.066  0.00  0.00    +0.000 C 
ATOM     24  C   UNL     1      -0.634  10.889  21.486  0.00  0.00    +0.000 C 
ATOM     25  N   UNL     1      -1.459  11.217  20.310  0.00  0.00    +0.000 NA
ATOM     26  C   UNL     1      -0.632  10.798  19.153  0.00  0.00    +0.000 C 
BRANCH  25  27
ATOM     27  C   UNL     1      -1.758  12.665  20.285  0.00  0.00    +0.000 C 
BRANCH  27  28
ATOM     28  C   UNL     1      -3.235  12.994  20.362  0.00  0.00    +0.000 A 
ATOM     29  C   UNL     1      -3.708  14.019  21.192  0.00  0.00    +0.000 A 
ATOM     30  C   UNL     1      -5.074  14.296  21.266  0.00  0.00    +0.000 A 
ATOM     31  C   UNL     1      -5.979  13.563  20.498  0.00  0.00    +0.000 A 
ATOM     32  C   UNL     1      -5.517  12.562  19.646  0.00  0.00    +0.000 A 
ATOM     33  C   UNL     1      -4.153  12.279  19.577  0.00  0.00    +0.000 A 
ENDBRANCH  27  28
ENDBRANCH  25  27
ENDBRANCH  20  22
ENDBRANCH   5  18
TORSDOF 6
ENDMDL
MODEL 5
REMARK VINA RESULT:      -8.0      2.797      3.766
REMARK  Name = 
REMARK  6 active torsions:
REMARK  status: ('A' for Active; 'I' for Inactive)
REMARK    1  A    between atoms: C_2  and  C_25
REMARK    2  A    between atoms: N_3  and  C_4
REMARK    3  A    between atoms: C_8  and  C_9
REMARK    4  A    between atoms: N_11  and  C_12
REMARK    5  A    between atoms: N_15  and  C_16
REMARK    6  A    between atoms: C_16  and  C_17
REMARK                            x       y       z     vdW  Elec       q    Type
REMARK                         _______ _______ _______ _____ _____    ______ ____
ROOT
ATOM      1  C   UNL     1       2.986   5.094  18.537  0.00  0.00    +0.000 A 
ATOM      2  C   UNL     1       2.500   3.965  19.196  0.00  0.00    +0.000 A 
ATOM      3  C   UNL     1       1.695   4.087  20.329  0.00  0.00    +0.000 A 
ATOM      4  C   UNL     1       1.374   5.351  20.827  0.00  0.00    +0.000 A 
ATOM      5  C   UNL     1       1.882   6.497  20.206  0.00  0.00    +0.000 A 
ATOM      6  C   UNL     1       2.694   6.359  19.063  0.00  0.00    +0.000 A 
ENDROOT
BRANCH   1   9
ATOM      7  O   UNL     1       5.846   4.454  18.243  0.00  0.00    +0.000 OA
ATOM      8  C   UNL     1       5.114   4.736  17.297  0.00  0.00    +0.000 C 
ATOM      9  N   UNL     1       3.762   5.023  17.356  0.00  0.00    +0.000 N 
ATOM     10  H   UNL     1       3.251   5.047  16.482  0.00  0.00    +0.000 HD
BRANCH   8  11
ATOM     11  C   UNL     1       5.722   4.715  15.940  0.00  0.00    +0.000 A 
ATOM     12  C   UNL     1       4.998   4.096  14.909  0.00  0.00    +0.000 A 
ATOM     13  C   UNL     1       5.544   3.996  13.632  0.00  0.00    +0.000 A 
ATOM     14  C   UNL     1       6.816   4.503  13.396  0.00  0.00    +0.000 A 
ATOM     15  F   UNL     1       7.347   4.384  12.174  0.00  0.00    +0.000 F 
ATOM     16  C   UNL     1       7.550   5.115  14.410  0.00  0.00    +0.000 A 
ATOM     17  C   UNL     1       7.003   5.222  15.693  0.00  0.00    +0.000 A 
ENDBRANCH   8  11
ENDBRANCH   1   9
BRANCH   5  18
ATOM     18  C   UNL     1       1.586   7.884  20.692  0.00  0.00    +0.000 C 
ATOM     19  O   UNL     1       1.618   8.132  21.892  0.00  0.00    +0.000 OA
ATOM     20  N   UNL     1       1.262   8.838  19.745  0.00  0.00    +0.000 N 
ATOM     21  H   UNL     1       1.057   8.559  18.798  0.00  0.00    +0.000 HD
BRANCH  20  22
ATOM     22  C   UNL     1       0.808  10.172  20.130  0.00  0.00    +0.000 C 
ATOM     23  C   UNL     1      -0.687  10.308  19.869  0.00  0.00    +0.000 C 
ATOM     24  C   UNL     1      -0.726  10.906  18.474  0.00  0.00    +0.000 C 
ATOM     25  N   UNL     1       0.364  11.899  18.455  0.00  0.00    +0.000 NA
ATOM     26  C   UNL     1       1.445  11.272  19.254  0.00  0.00    +0.000 C 
BRANCH  25  27
ATOM     27  C   UNL     1      -0.097  13.174  19.047  0.00  0.00    +0.000 C 
BRANCH  27  28
ATOM     28  C   UNL     1       0.793  14.359  18.735  0.00  0.00    +0.000 A 
ATOM     29  C   UNL     1       2.133  14.183  18.364  0.00  0.00    +0.000 A 
ATOM     30  C   UNL     1       2.945  15.287  18.100  0.00  0.00    +0.000 A 
ATOM     31  C   UNL     1       2.421  16.577  18.187  0.00  0.00    +0.000 A 
ATOM     32  C   UNL     1       1.082  16.763  18.524  0.00  0.00    +0.000 A 
ATOM     33  C   UNL     1       0.272  15.661  18.796  0.00  0.00    +0.000 A 
ENDBRANCH  27  28
ENDBRANCH  25  27
ENDBRANCH  20  22
ENDBRANCH   5  18
TORSDOF 6
ENDMDL
MODEL 6
REMARK VINA RESULT:      -7.8      2.857      3.761
REMARK  Name = 
REMARK  6 active torsions:
REMARK  status: ('A' for Active; 'I' for Inactive)
REMARK    1  A    between atoms: C_2  and  C_25
REMARK    2  A    between atoms: N_3  and  C_4
REMARK    3  A    between atoms: C_8  and  C_9
REMARK    4  A    between atoms: N_11  and  C_12
REMARK    5  A    between atoms: N_15  and  C_16
REMARK    6  A    between atoms: C_16  and  C_17
REMARK                            x       y       z     vdW  Elec       q    Type
REMARK                         _______ _______ _______ _____ _____    ______ ____
ROOT
ATOM      1  C   UNL     1       2.944   5.014  18.502  0.00  0.00    +0.000 A 
ATOM      2  C   UNL     1       2.411   3.905  19.158  0.00  0.00    +0.000 A 
ATOM      3  C   UNL     1       1.592   4.058  20.276  0.00  0.00    +0.000 A 
ATOM      4  C   UNL     1       1.304   5.335  20.763  0.00  0.00    +0.000 A 
ATOM      5  C   UNL     1       1.859   6.461  20.146  0.00  0.00    +0.000 A 
ATOM      6  C   UNL     1       2.685   6.290  19.018  0.00  0.00    +0.000 A 
ENDROOT
BRANCH   1   9
ATOM      7  O   UNL     1       5.775   4.239  18.255  0.00  0.00    +0.000 OA
ATOM      8  C   UNL     1       5.076   4.561  17.299  0.00  0.00    +0.000 C 
ATOM      9  N   UNL     1       3.738   4.912  17.335  0.00  0.00    +0.000 N 
ATOM     10  H   UNL     1       3.245   4.965  16.452  0.00  0.00    +0.000 HD
BRANCH   8  11
ATOM     11  C   UNL     1       5.706   4.518  15.953  0.00  0.00    +0.000 A 
ATOM     12  C   UNL     1       6.950   5.149  15.792  0.00  0.00    +0.000 A 
ATOM     13  C   UNL     1       7.558   5.188  14.540  0.00  0.00    +0.000 A 
ATOM     14  C   UNL     1       6.916   4.608  13.454  0.00  0.00    +0.000 A 
ATOM     15  F   UNL     1       7.492   4.669  12.248  0.00  0.00    +0.000 F 
ATOM     16  C   UNL     1       5.678   3.983  13.596  0.00  0.00    +0.000 A 
ATOM     17  C   UNL     1       5.066   3.936  14.852  0.00  0.00    +0.000 A 
ENDBRANCH   8  11
ENDBRANCH   1   9
BRANCH   5  18
ATOM     18  C   UNL     1       1.600   7.859  20.621  0.00  0.00    +0.000 C 
ATOM     19  O   UNL     1       1.605   8.108  21.822  0.00  0.00    +0.000 OA
ATOM     20  N   UNL     1       1.341   8.822  19.664  0.00  0.00    +0.000 N 
ATOM     21  H   UNL     1       1.154   8.548  18.711  0.00  0.00    +0.000 HD
BRANCH  20  22
ATOM     22  C   UNL     1       0.925  10.173  20.033  0.00  0.00    +0.000 C 
ATOM     23  C   UNL     1      -0.584  10.314  19.874  0.00  0.00    +0.000 C 
ATOM     24  C   UNL     1      -0.717  10.864  18.465  0.00  0.00    +0.000 C 
ATOM     25  N   UNL     1       0.375  11.845  18.334  0.00  0.00    +0.000 NA
ATOM     26  C   UNL     1       1.506  11.235  19.075  0.00  0.00    +0.000 C 
BRANCH  25  27
ATOM     27  C   UNL     1      -0.033  13.144  18.912  0.00  0.00    +0.000 C 
BRANCH  27  28
ATOM     28  C   UNL     1       0.946  14.271  18.655  0.00  0.00    +0.000 A 
ATOM     29  C   UNL     1       0.607  15.603  18.927  0.00  0.00    +0.000 A 
ATOM     30  C   UNL     1       1.514  16.631  18.666  0.00  0.00    +0.000 A 
ATOM     31  C   UNL     1       2.775  16.337  18.146  0.00  0.00    +0.000 A 
ATOM     32  C   UNL     1       3.135  15.014  17.901  0.00  0.00    +0.000 A 
ATOM     33  C   UNL     1       2.226  13.986  18.154  0.00  0.00    +0.000 A 
ENDBRANCH  27  28
ENDBRANCH  25  27
ENDBRANCH  20  22
ENDBRANCH   5  18
TORSDOF 6
ENDMDL
MODEL 7
REMARK VINA RESULT:      -7.8      2.677      4.822
REMARK  Name = 
REMARK  6 active torsions:
REMARK  status: ('A' for Active; 'I' for Inactive)
REMARK    1  A    between atoms: C_2  and  C_25
REMARK    2  A    between atoms: N_3  and  C_4
REMARK    3  A    between atoms: C_8  and  C_9
REMARK    4  A    between atoms: N_11  and  C_12
REMARK    5  A    between atoms: N_15  and  C_16
REMARK    6  A    between atoms: C_16  and  C_17
REMARK                            x       y       z     vdW  Elec       q    Type
REMARK                         _______ _______ _______ _____ _____    ______ ____
ROOT
ATOM      1  C   UNL     1       1.349   8.964  18.558  0.00  0.00    +0.000 A 
ATOM      2  C   UNL     1       0.426   9.280  17.562  0.00  0.00    +0.000 A 
ATOM      3  C   UNL     1      -0.675  10.092  17.836  0.00  0.00    +0.000 A 
ATOM      4  C   UNL     1      -0.873  10.592  19.124  0.00  0.00    +0.000 A 
ATOM      5  C   UNL     1       0.017  10.256  20.150  0.00  0.00    +0.000 A 
ATOM      6  C   UNL     1       1.124   9.434  19.858  0.00  0.00    +0.000 A 
ENDROOT
BRANCH   1   9
ATOM      7  O   UNL     1       1.948   6.219  19.442  0.00  0.00    +0.000 OA
ATOM      8  C   UNL     1       2.728   6.905  18.788  0.00  0.00    +0.000 C 
ATOM      9  N   UNL     1       2.507   8.187  18.318  0.00  0.00    +0.000 N 
ATOM     10  H   UNL     1       3.158   8.553  17.633  0.00  0.00    +0.000 HD
BRANCH   8  11
ATOM     11  C   UNL     1       4.023   6.281  18.407  0.00  0.00    +0.000 A 
ATOM     12  C   UNL     1       4.533   6.561  17.129  0.00  0.00    +0.000 A 
ATOM     13  C   UNL     1       5.713   5.959  16.698  0.00  0.00    +0.000 A 
ATOM     14  C   UNL     1       6.369   5.071  17.542  0.00  0.00    +0.000 A 
ATOM     15  F   UNL     1       7.489   4.475  17.115  0.00  0.00    +0.000 F 
ATOM     16  C   UNL     1       5.872   4.778  18.810  0.00  0.00    +0.000 A 
ATOM     17  C   UNL     1       4.691   5.384  19.249  0.00  0.00    +0.000 A 
ENDBRANCH   8  11
ENDBRANCH   1   9
BRANCH   5  18
ATOM     18  C   UNL     1      -0.140  10.748  21.557  0.00  0.00    +0.000 C 
ATOM     19  O   UNL     1       0.494  10.219  22.464  0.00  0.00    +0.000 OA
ATOM     20  N   UNL     1      -1.027  11.785  21.777  0.00  0.00    +0.000 N 
ATOM     21  H   UNL     1      -1.667  12.063  21.049  0.00  0.00    +0.000 HD
BRANCH  20  22
ATOM     22  C   UNL     1      -1.363  12.229  23.127  0.00  0.00    +0.000 C 
ATOM     23  C   UNL     1      -2.812  11.879  23.443  0.00  0.00    +0.000 C 
ATOM     24  C   UNL     1      -3.551  13.147  23.050  0.00  0.00    +0.000 C 
ATOM     25  N   UNL     1      -2.688  14.249  23.512  0.00  0.00    +0.000 NA
ATOM     26  C   UNL     1      -1.309  13.766  23.259  0.00  0.00    +0.000 C 
BRANCH  25  27
ATOM     27  C   UNL     1      -2.929  14.519  24.946  0.00  0.00    +0.000 C 
BRANCH  27  28
ATOM     28  C   UNL     1      -2.265  15.780  25.459  0.00  0.00    +0.000 A 
ATOM     29  C   UNL     1      -1.153  15.721  26.309  0.00  0.00    +0.000 A 
ATOM     30  C   UNL     1      -0.566  16.894  26.788  0.00  0.00    +0.000 A 
ATOM     31  C   UNL     1      -1.075  18.136  26.409  0.00  0.00    +0.000 A 
ATOM     32  C   UNL     1      -2.161  18.208  25.539  0.00  0.00    +0.000 A 
ATOM     33  C   UNL     1      -2.753  17.037  25.066  0.00  0.00    +0.000 A 
ENDBRANCH  27  28
ENDBRANCH  25  27
ENDBRANCH  20  22
ENDBRANCH   5  18
TORSDOF 6
ENDMDL
MODEL 8
REMARK VINA RESULT:      -7.8      3.990     11.673
REMARK  Name = 
REMARK  6 active torsions:
REMARK  status: ('A' for Active; 'I' for Inactive)
REMARK    1  A    between atoms: C_2  and  C_25
REMARK    2  A    between atoms: N_3  and  C_4
REMARK    3  A    between atoms: C_8  and  C_9
REMARK    4  A    between atoms: N_11  and  C_12
REMARK    5  A    between atoms: N_15  and  C_16
REMARK    6  A    between atoms: C_16  and  C_17
REMARK                            x       y       z     vdW  Elec       q    Type
REMARK                         _______ _______ _______ _____ _____    ______ ____
ROOT
ATOM      1  C   UNL     1       2.063   5.143  20.803  0.00  0.00    +0.000 A 
ATOM      2  C   UNL     1       1.962   3.987  21.576  0.00  0.00    +0.000 A 
ATOM      3  C   UNL     1       2.617   2.814  21.200  0.00  0.00    +0.000 A 
ATOM      4  C   UNL     1       3.376   2.781  20.029  0.00  0.00    +0.000 A 
ATOM      5  C   UNL     1       3.460   3.916  19.217  0.00  0.00    +0.000 A 
ATOM      6  C   UNL     1       2.794   5.094  19.609  0.00  0.00    +0.000 A 
ENDROOT
BRANCH   1   9
ATOM      7  O   UNL     1       2.258   7.764  19.474  0.00  0.00    +0.000 OA
ATOM      8  C   UNL     1       1.617   7.574  20.504  0.00  0.00    +0.000 C 
ATOM      9  N   UNL     1       1.461   6.371  21.169  0.00  0.00    +0.000 N 
ATOM     10  H   UNL     1       0.752   6.325  21.891  0.00  0.00    +0.000 HD
BRANCH   8  11
ATOM     11  C   UNL     1       0.884   8.737  21.071  0.00  0.00    +0.000 A 
ATOM     12  C   UNL     1       0.816   9.907  20.299  0.00  0.00    +0.000 A 
ATOM     13  C   UNL     1       0.192  11.044  20.805  0.00  0.00    +0.000 A 
ATOM     14  C   UNL     1      -0.351  11.010  22.083  0.00  0.00    +0.000 A 
ATOM     15  F   UNL     1      -0.929  12.112  22.575  0.00  0.00    +0.000 F 
ATOM     16  C   UNL     1      -0.286   9.857  22.864  0.00  0.00    +0.000 A 
ATOM     17  C   UNL     1       0.335   8.711  22.359  0.00  0.00    +0.000 A 
ENDBRANCH   8  11
ENDBRANCH   1   9
BRANCH   5  18
ATOM     18  C   UNL     1       4.250   3.949  17.943  0.00  0.00    +0.000 C 
ATOM     19  O   UNL     1       3.778   3.466  16.919  0.00  0.00    +0.000 OA
ATOM     20  N   UNL     1       5.510   4.515  17.985  0.00  0.00    +0.000 N 
ATOM     21  H   UNL     1       5.939   4.723  18.874  0.00  0.00    +0.000 HD
BRANCH  20  22
ATOM     22  C   UNL     1       6.413   4.454  16.839  0.00  0.00    +0.000 C 
ATOM     23  C   UNL     1       6.718   5.862  16.342  0.00  0.00    +0.000 C 
ATOM     24  C   UNL     1       5.670   6.065  15.262  0.00  0.00    +0.000 C 
ATOM     25  N   UNL     1       5.597   4.773  14.555  0.00  0.00    +0.000 NA
ATOM     26  C   UNL     1       5.758   3.760  15.626  0.00  0.00    +0.000 C 
BRANCH  25  27
ATOM     27  C   UNL     1       6.669   4.686  13.540  0.00  0.00    +0.000 C 
BRANCH  27  28
ATOM     28  C   UNL     1       6.487   3.561  12.543  0.00  0.00    +0.000 A 
ATOM     29  C   UNL     1       5.210   3.113  12.179  0.00  0.00    +0.000 A 
ATOM     30  C   UNL     1       5.061   2.061  11.273  0.00  0.00    +0.000 A 
ATOM     31  C   UNL     1       6.185   1.459  10.709  0.00  0.00    +0.000 A 
ATOM     32  C   UNL     1       7.459   1.916  11.039  0.00  0.00    +0.000 A 
ATOM     33  C   UNL     1       7.609   2.961  11.950  0.00  0.00    +0.000 A 
ENDBRANCH  27  28
ENDBRANCH  25  27
ENDBRANCH  20  22
ENDBRANCH   5  18
TORSDOF 6
ENDMDL
MODEL 9
REMARK VINA RESULT:      -7.8      4.248     11.283
REMARK  Name = 
REMARK  6 active torsions:
REMARK  status: ('A' for Active; 'I' for Inactive)
REMARK    1  A    between atoms: C_2  and  C_25
REMARK    2  A    between atoms: N_3  and  C_4
REMARK    3  A    between atoms: C_8  and  C_9
REMARK    4  A    between atoms: N_11  and  C_12
REMARK    5  A    between atoms: N_15  and  C_16
REMARK    6  A    between atoms: C_16  and  C_17
REMARK                            x       y       z     vdW  Elec       q    Type
REMARK                         _______ _______ _______ _____ _____    ______ ____
ROOT
ATOM      1  C   UNL     1       0.035  11.318  21.531  0.00  0.00    +0.000 A 
ATOM      2  C   UNL     1      -0.425  10.858  22.765  0.00  0.00    +0.000 A 
ATOM      3  C   UNL     1      -0.249   9.528  23.145  0.00  0.00    +0.000 A 
ATOM      4  C   UNL     1       0.383   8.631  22.281  0.00  0.00    +0.000 A 
ATOM      5  C   UNL     1       0.817   9.059  21.023  0.00  0.00    +0.000 A 
ATOM      6  C   UNL     1       0.633  10.406  20.652  0.00  0.00    +0.000 A 
ENDROOT
BRANCH   1   9
ATOM      7  O   UNL     1      -1.834  12.517  19.595  0.00  0.00    +0.000 OA
ATOM      8  C   UNL     1      -0.967  13.157  20.185  0.00  0.00    +0.000 C 
ATOM      9  N   UNL     1      -0.073  12.669  21.121  0.00  0.00    +0.000 N 
ATOM     10  H   UNL     1       0.451  13.345  21.663  0.00  0.00    +0.000 HD
BRANCH   8  11
ATOM     11  C   UNL     1      -0.901  14.617  19.914  0.00  0.00    +0.000 A 
ATOM     12  C   UNL     1      -0.219  15.039  18.762  0.00  0.00    +0.000 A 
ATOM     13  C   UNL     1      -0.076  16.397  18.490  0.00  0.00    +0.000 A 
ATOM     14  C   UNL     1      -0.605  17.327  19.377  0.00  0.00    +0.000 A 
ATOM     15  F   UNL     1      -0.446  18.631  19.125  0.00  0.00    +0.000 F 
ATOM     16  C   UNL     1      -1.280  16.924  20.528  0.00  0.00    +0.000 A 
ATOM     17  C   UNL     1      -1.430  15.562  20.803  0.00  0.00    +0.000 A 
ENDBRANCH   8  11
ENDBRANCH   1   9
BRANCH   5  18
ATOM     18  C   UNL     1       1.495   8.149  20.043  0.00  0.00    +0.000 C 
ATOM     19  O   UNL     1       1.900   8.593  18.974  0.00  0.00    +0.000 OA
ATOM     20  N   UNL     1       1.618   6.816  20.387  0.00  0.00    +0.000 N 
ATOM     21  H   UNL     1       1.107   6.451  21.177  0.00  0.00    +0.000 HD
BRANCH  20  22
ATOM     22  C   UNL     1       2.120   5.825  19.439  0.00  0.00    +0.000 C 
ATOM     23  C   UNL     1       1.647   4.434  19.840  0.00  0.00    +0.000 C 
ATOM     24  C   UNL     1       2.801   3.925  20.688  0.00  0.00    +0.000 C 
ATOM     25  N   UNL     1       4.016   4.381  19.990  0.00  0.00    +0.000 NA
ATOM     26  C   UNL     1       3.661   5.725  19.473  0.00  0.00    +0.000 C 
BRANCH  25  27
ATOM     27  C   UNL     1       4.362   3.441  18.902  0.00  0.00    +0.000 C 
BRANCH  27  28
ATOM     28  C   UNL     1       5.188   4.056  17.791  0.00  0.00    +0.000 A 
ATOM     29  C   UNL     1       4.717   4.092  16.471  0.00  0.00    +0.000 A 
ATOM     30  C   UNL     1       5.499   4.645  15.456  0.00  0.00    +0.000 A 
ATOM     31  C   UNL     1       6.752   5.182  15.752  0.00  0.00    +0.000 A 
ATOM     32  C   UNL     1       7.217   5.181  17.065  0.00  0.00    +0.000 A 
ATOM     33  C   UNL     1       6.440   4.621  18.079  0.00  0.00    +0.000 A 
ENDBRANCH  27  28
ENDBRANCH  25  27
ENDBRANCH  20  22
ENDBRANCH   5  18
TORSDOF 6
ENDMDL
