MODEL 1
REMARK VINA RESULT:      -9.5      0.000      0.000
REMARK  Name = 
REMARK  3 active torsions:
REMARK  status: ('A' for Active; 'I' for Inactive)
REMARK    1  A    between atoms: C_2  and  C_18
REMARK    2  A    between atoms: C_7  and  C_8
REMARK    3  A    between atoms: C_18  and  C_19
REMARK                            x       y       z     vdW  Elec       q    Type
REMARK                         _______ _______ _______ _____ _____    ______ ____
ROOT
ATOM      1  O   UNL     1       2.644   3.381  16.843  0.00  0.00    +0.000 OA
ATOM      2  C   UNL     1       3.209   3.847  17.842  0.00  0.00    +0.000 C 
ATOM      3  N   UNL     1       4.549   4.217  17.765  0.00  0.00    +0.000 N 
ATOM      4  C   UNL     1       5.404   4.683  18.853  0.00  0.00    +0.000 C 
ATOM      5  C   UNL     1       6.051   6.016  18.497  0.00  0.00    +0.000 C 
ATOM      6  C   UNL     1       6.794   5.940  17.166  0.00  0.00    +0.000 C 
ATOM      7  C   UNL     1       5.904   5.360  16.048  0.00  0.00    +0.000 C 
ATOM      8  C   UNL     1       5.266   4.037  16.500  0.00  0.00    +0.000 C 
ENDROOT
BRANCH   7   9
ATOM      9  C   UNL     1       6.687   5.155  14.792  0.00  0.00    +0.000 A 
ATOM     10  N   UNL     1       7.908   5.595  14.549  0.00  0.00    +0.000 NA
ATOM     11  N   UNL     1       8.284   5.171  13.299  0.00  0.00    +0.000 NA
ATOM     12  C   UNL     1       7.292   4.471  12.798  0.00  0.00    +0.000 A 
ATOM     13  C   UNL     1       7.124   3.785  11.565  0.00  0.00    +0.000 A 
ATOM     14  C   UNL     1       5.973   3.129  11.321  0.00  0.00    +0.000 A 
ATOM     15  C   UNL     1       4.891   3.102  12.298  0.00  0.00    +0.000 A 
ATOM     16  C   UNL     1       5.052   3.750  13.465  0.00  0.00    +0.000 A 
ATOM     17  N   UNL     1       6.244   4.427  13.707  0.00  0.00    +0.000 N 
ENDBRANCH   7   9
BRANCH   2  18
ATOM     18  C   UNL     1       2.401   4.052  19.160  0.00  0.00    +0.000 C 
ATOM     19  C   UNL     1       3.170   3.416  20.359  0.00  0.00    +0.000 C 
ATOM     20  C   UNL     1       2.112   3.041  21.395  0.00  0.00    +0.000 C 
ATOM     21  C   UNL     1       0.806   2.905  20.627  0.00  0.00    +0.000 C 
ATOM     22  C   UNL     1       1.164   3.121  19.159  0.00  0.00    +0.000 C 
BRANCH  18  23
ATOM     23  C   UNL     1       2.162   5.548  19.447  0.00  0.00    +0.000 A 
ATOM     24  C   UNL     1       1.726   6.024  20.700  0.00  0.00    +0.000 A 
ATOM     25  C   UNL     1       1.460   7.378  20.908  0.00  0.00    +0.000 A 
ATOM     26  C   UNL     1       1.660   8.281  19.877  0.00  0.00    +0.000 A 
ATOM     27  F   UNL     1       1.411   9.581  20.082  0.00  0.00    +0.000 F 
ATOM     28  C   UNL     1       2.109   7.854  18.636  0.00  0.00    +0.000 A 
ATOM     29  C   UNL     1       2.349   6.494  18.418  0.00  0.00    +0.000 A 
ENDBRANCH  18  23
ENDBRANCH   2  18
TORSDOF 3
ENDMDL
MODEL 2
REMARK VINA RESULT:      -9.4      3.899      8.144
REMARK  Name = 
REMARK  3 active torsions:
REMARK  status: ('A' for Active; 'I' for Inactive)
REMARK    1  A    between atoms: C_2  and  C_18
REMARK    2  A    between atoms: C_7  and  C_8
REMARK    3  A    between atoms: C_18  and  C_19
REMARK                            x       y       z     vdW  Elec       q    Type
REMARK                         _______ _______ _______ _____ _____    ______ ____
ROOT
ATOM      1  O   UNL     1       2.363   4.550  21.304  0.00  0.00    +0.000 OA
ATOM      2  C   UNL     1       2.483   4.855  20.109  0.00  0.00    +0.000 C 
ATOM      3  N   UNL     1       1.926   6.042  19.642  0.00  0.00    +0.000 N 
ATOM      4  C   UNL     1       1.874   6.515  18.261  0.00  0.00    +0.000 C 
ATOM      5  C   UNL     1       2.464   7.916  18.149  0.00  0.00    +0.000 C 
ATOM      6  C   UNL     1       1.796   8.884  19.120  0.00  0.00    +0.000 C 
ATOM      7  C   UNL     1       1.777   8.329  20.559  0.00  0.00    +0.000 C 
ATOM      8  C   UNL     1       1.199   6.904  20.578  0.00  0.00    +0.000 C 
ENDROOT
BRANCH   7   9
ATOM      9  C   UNL     1       0.991   9.218  21.466  0.00  0.00    +0.000 A 
ATOM     10  N   UNL     1       1.106   9.295  22.780  0.00  0.00    +0.000 NA
ATOM     11  N   UNL     1       0.233  10.251  23.238  0.00  0.00    +0.000 NA
ATOM     12  C   UNL     1      -0.397  10.750  22.199  0.00  0.00    +0.000 A 
ATOM     13  C   UNL     1      -1.385  11.762  22.067  0.00  0.00    +0.000 A 
ATOM     14  C   UNL     1      -1.854  12.078  20.845  0.00  0.00    +0.000 A 
ATOM     15  C   UNL     1      -1.368  11.405  19.646  0.00  0.00    +0.000 A 
ATOM     16  C   UNL     1      -0.432  10.448  19.772  0.00  0.00    +0.000 A 
ATOM     17  N   UNL     1       0.046  10.127  21.040  0.00  0.00    +0.000 N 
ENDBRANCH   7   9
BRANCH   2  18
ATOM     18  C   UNL     1       3.291   3.924  19.153  0.00  0.00    +0.000 C 
ATOM     19  C   UNL     1       2.350   3.351  18.049  0.00  0.00    +0.000 C 
ATOM     20  C   UNL     1       2.958   2.017  17.619  0.00  0.00    +0.000 C 
ATOM     21  C   UNL     1       3.827   1.561  18.781  0.00  0.00    +0.000 C 
ATOM     22  C   UNL     1       3.627   2.600  19.881  0.00  0.00    +0.000 C 
BRANCH  18  23
ATOM     23  C   UNL     1       4.456   4.680  18.483  0.00  0.00    +0.000 A 
ATOM     24  C   UNL     1       4.504   4.934  17.098  0.00  0.00    +0.000 A 
ATOM     25  C   UNL     1       5.602   5.567  16.515  0.00  0.00    +0.000 A 
ATOM     26  C   UNL     1       6.654   5.987  17.313  0.00  0.00    +0.000 A 
ATOM     27  F   UNL     1       7.704   6.600  16.752  0.00  0.00    +0.000 F 
ATOM     28  C   UNL     1       6.633   5.774  18.684  0.00  0.00    +0.000 A 
ATOM     29  C   UNL     1       5.545   5.115  19.265  0.00  0.00    +0.000 A 
ENDBRANCH  18  23
ENDBRANCH   2  18
TORSDOF 3
ENDMDL
MODEL 3
REMARK VINA RESULT:      -8.8      4.753      7.549
REMARK  Name = 
REMARK  3 active torsions:
REMARK  status: ('A' for Active; 'I' for Inactive)
REMARK    1  A    between atoms: C_2  and  C_18
REMARK    2  A    between atoms: C_7  and  C_8
REMARK    3  A    between atoms: C_18  and  C_19
REMARK                            x       y       z     vdW  Elec       q    Type
REMARK                         _______ _______ _______ _____ _____    ______ ____
ROOT
ATOM      1  O   UNL     1      -0.434   8.890  21.227  0.00  0.00    +0.000 OA
ATOM      2  C   UNL     1       0.032   9.679  20.392  0.00  0.00    +0.000 C 
ATOM      3  N   UNL     1       1.222   9.367  19.741  0.00  0.00    +0.000 N 
ATOM      4  C   UNL     1       1.971  10.209  18.813  0.00  0.00    +0.000 C 
ATOM      5  C   UNL     1       2.227   9.474  17.503  0.00  0.00    +0.000 C 
ATOM      6  C   UNL     1       2.902   8.126  17.740  0.00  0.00    +0.000 C 
ATOM      7  C   UNL     1       2.148   7.286  18.791  0.00  0.00    +0.000 C 
ATOM      8  C   UNL     1       1.904   8.111  20.064  0.00  0.00    +0.000 C 
ENDROOT
BRANCH   7   9
ATOM      9  C   UNL     1       2.900   6.038  19.119  0.00  0.00    +0.000 A 
ATOM     10  N   UNL     1       4.196   5.839  18.961  0.00  0.00    +0.000 NA
ATOM     11  N   UNL     1       4.502   4.578  19.410  0.00  0.00    +0.000 NA
ATOM     12  C   UNL     1       3.391   4.026  19.843  0.00  0.00    +0.000 A 
ATOM     13  C   UNL     1       3.107   2.760  20.422  0.00  0.00    +0.000 A 
ATOM     14  C   UNL     1       1.845   2.464  20.787  0.00  0.00    +0.000 A 
ATOM     15  C   UNL     1       0.757   3.418  20.604  0.00  0.00    +0.000 A 
ATOM     16  C   UNL     1       1.028   4.616  20.058  0.00  0.00    +0.000 A 
ATOM     17  N   UNL     1       2.334   4.912  19.682  0.00  0.00    +0.000 N 
ENDBRANCH   7   9
BRANCH   2  18
ATOM     18  C   UNL     1      -0.742  10.990  20.054  0.00  0.00    +0.000 C 
ATOM     19  C   UNL     1       0.268  12.135  19.734  0.00  0.00    +0.000 C 
ATOM     20  C   UNL     1      -0.441  13.442  20.084  0.00  0.00    +0.000 C 
ATOM     21  C   UNL     1      -1.526  13.072  21.085  0.00  0.00    +0.000 C 
ATOM     22  C   UNL     1      -1.354  11.579  21.348  0.00  0.00    +0.000 C 
BRANCH  18  23
ATOM     23  C   UNL     1      -1.684  10.793  18.849  0.00  0.00    +0.000 A 
ATOM     24  C   UNL     1      -1.339  10.007  17.732  0.00  0.00    +0.000 A 
ATOM     25  C   UNL     1      -2.189   9.899  16.631  0.00  0.00    +0.000 A 
ATOM     26  C   UNL     1      -3.413  10.549  16.645  0.00  0.00    +0.000 A 
ATOM     27  F   UNL     1      -4.230  10.439  15.590  0.00  0.00    +0.000 F 
ATOM     28  C   UNL     1      -3.796  11.315  17.736  0.00  0.00    +0.000 A 
ATOM     29  C   UNL     1      -2.933  11.446  18.828  0.00  0.00    +0.000 A 
ENDBRANCH  18  23
ENDBRANCH   2  18
TORSDOF 3
ENDMDL
MODEL 4
REMARK VINA RESULT:      -8.8      4.633      8.423
REMARK  Name = 
REMARK  3 active torsions:
REMARK  status: ('A' for Active; 'I' for Inactive)
REMARK    1  A    between atoms: C_2  and  C_18
REMARK    2  A    between atoms: C_7  and  C_8
REMARK    3  A    between atoms: C_18  and  C_19
REMARK                            x       y       z     vdW  Elec       q    Type
REMARK                         _______ _______ _______ _____ _____    ______ ____
ROOT
ATOM      1  O   UNL     1       2.529   7.682  17.235  0.00  0.00    +0.000 OA
ATOM      2  C   UNL     1       2.335   7.286  18.392  0.00  0.00    +0.000 C 
ATOM      3  N   UNL     1       1.869   8.175  19.356  0.00  0.00    +0.000 N 
ATOM      4  C   UNL     1       1.681   7.921  20.781  0.00  0.00    +0.000 C 
ATOM      5  C   UNL     1       0.261   8.272  21.209  0.00  0.00    +0.000 C 
ATOM      6  C   UNL     1      -0.103   9.703  20.820  0.00  0.00    +0.000 C 
ATOM      7  C   UNL     1       0.188   9.982  19.332  0.00  0.00    +0.000 C 
ATOM      8  C   UNL     1       1.625   9.570  18.978  0.00  0.00    +0.000 C 
ENDROOT
BRANCH   7   9
ATOM      9  C   UNL     1      -0.034  11.423  19.004  0.00  0.00    +0.000 A 
ATOM     10  N   UNL     1      -0.958  11.909  18.195  0.00  0.00    +0.000 NA
ATOM     11  N   UNL     1      -0.853  13.278  18.186  0.00  0.00    +0.000 NA
ATOM     12  C   UNL     1       0.128  13.610  18.995  0.00  0.00    +0.000 A 
ATOM     13  C   UNL     1       0.671  14.863  19.385  0.00  0.00    +0.000 A 
ATOM     14  C   UNL     1       1.696  14.900  20.259  0.00  0.00    +0.000 A 
ATOM     15  C   UNL     1       2.262  13.679  20.819  0.00  0.00    +0.000 A 
ATOM     16  C   UNL     1       1.746  12.494  20.450  0.00  0.00    +0.000 A 
ATOM     17  N   UNL     1       0.689  12.465  19.545  0.00  0.00    +0.000 N 
ENDBRANCH   7   9
BRANCH   2  18
ATOM     18  C   UNL     1       2.577   5.785  18.745  0.00  0.00    +0.000 C 
ATOM     19  C   UNL     1       1.596   4.884  17.932  0.00  0.00    +0.000 C 
ATOM     20  C   UNL     1       1.393   3.617  18.760  0.00  0.00    +0.000 C 
ATOM     21  C   UNL     1       1.730   3.997  20.194  0.00  0.00    +0.000 C 
ATOM     22  C   UNL     1       2.034   5.493  20.165  0.00  0.00    +0.000 C 
BRANCH  18  23
ATOM     23  C   UNL     1       4.027   5.361  18.438  0.00  0.00    +0.000 A 
ATOM     24  C   UNL     1       5.079   5.520  19.362  0.00  0.00    +0.000 A 
ATOM     25  C   UNL     1       6.392   5.182  19.030  0.00  0.00    +0.000 A 
ATOM     26  C   UNL     1       6.666   4.648  17.781  0.00  0.00    +0.000 A 
ATOM     27  F   UNL     1       7.926   4.318  17.467  0.00  0.00    +0.000 F 
ATOM     28  C   UNL     1       5.654   4.457  16.853  0.00  0.00    +0.000 A 
ATOM     29  C   UNL     1       4.342   4.821  17.175  0.00  0.00    +0.000 A 
ENDBRANCH  18  23
ENDBRANCH   2  18
TORSDOF 3
ENDMDL
MODEL 5
REMARK VINA RESULT:      -8.7      4.091      7.119
REMARK  Name = 
REMARK  3 active torsions:
REMARK  status: ('A' for Active; 'I' for Inactive)
REMARK    1  A    between atoms: C_2  and  C_18
REMARK    2  A    between atoms: C_7  and  C_8
REMARK    3  A    between atoms: C_18  and  C_19
REMARK                            x       y       z     vdW  Elec       q    Type
REMARK                         _______ _______ _______ _____ _____    ______ ____
ROOT
ATOM      1  O   UNL     1       2.097  10.665  17.490  0.00  0.00    +0.000 OA
ATOM      2  C   UNL     1       1.442  10.664  18.541  0.00  0.00    +0.000 C 
ATOM      3  N   UNL     1       1.137   9.456  19.161  0.00  0.00    +0.000 N 
ATOM      4  C   UNL     1       0.296   9.250  20.337  0.00  0.00    +0.000 C 
ATOM      5  C   UNL     1       1.046   8.461  21.405  0.00  0.00    +0.000 C 
ATOM      6  C   UNL     1       1.599   7.152  20.849  0.00  0.00    +0.000 C 
ATOM      7  C   UNL     1       2.408   7.377  19.555  0.00  0.00    +0.000 C 
ATOM      8  C   UNL     1       1.595   8.205  18.549  0.00  0.00    +0.000 C 
ENDROOT
BRANCH   7   9
ATOM      9  C   UNL     1       2.816   6.076  18.945  0.00  0.00    +0.000 A 
ATOM     10  N   UNL     1       2.364   4.880  19.275  0.00  0.00    +0.000 NA
ATOM     11  N   UNL     1       2.960   3.949  18.462  0.00  0.00    +0.000 NA
ATOM     12  C   UNL     1       3.764   4.588  17.642  0.00  0.00    +0.000 A 
ATOM     13  C   UNL     1       4.613   4.150  16.590  0.00  0.00    +0.000 A 
ATOM     14  C   UNL     1       5.332   5.055  15.897  0.00  0.00    +0.000 A 
ATOM     15  C   UNL     1       5.256   6.479  16.198  0.00  0.00    +0.000 A 
ATOM     16  C   UNL     1       4.450   6.892  17.192  0.00  0.00    +0.000 A 
ATOM     17  N   UNL     1       3.713   5.950  17.905  0.00  0.00    +0.000 N 
ENDBRANCH   7   9
BRANCH   2  18
ATOM     18  C   UNL     1       1.002  12.019  19.177  0.00  0.00    +0.000 C 
ATOM     19  C   UNL     1       1.544  13.207  18.323  0.00  0.00    +0.000 C 
ATOM     20  C   UNL     1       1.692  14.388  19.279  0.00  0.00    +0.000 C 
ATOM     21  C   UNL     1       1.812  13.786  20.671  0.00  0.00    +0.000 C 
ATOM     22  C   UNL     1       1.816  12.274  20.468  0.00  0.00    +0.000 C 
BRANCH  18  23
ATOM     23  C   UNL     1      -0.533  12.124  19.273  0.00  0.00    +0.000 A 
ATOM     24  C   UNL     1      -1.199  12.506  20.455  0.00  0.00    +0.000 A 
ATOM     25  C   UNL     1      -2.592  12.531  20.526  0.00  0.00    +0.000 A 
ATOM     26  C   UNL     1      -3.341  12.208  19.406  0.00  0.00    +0.000 A 
ATOM     27  F   UNL     1      -4.678  12.239  19.476  0.00  0.00    +0.000 F 
ATOM     28  C   UNL     1      -2.722  11.847  18.219  0.00  0.00    +0.000 A 
ATOM     29  C   UNL     1      -1.326  11.795  18.155  0.00  0.00    +0.000 A 
ENDBRANCH  18  23
ENDBRANCH   2  18
TORSDOF 3
ENDMDL
MODEL 6
REMARK VINA RESULT:      -8.6      4.733      7.422
REMARK  Name = 
REMARK  3 active torsions:
REMARK  status: ('A' for Active; 'I' for Inactive)
REMARK    1  A    between atoms: C_2  and  C_18
REMARK    2  A    between atoms: C_7  and  C_8
REMARK    3  A    between atoms: C_18  and  C_19
REMARK                            x       y       z     vdW  Elec       q    Type
REMARK                         _______ _______ _______ _____ _____    ______ ____
ROOT
ATOM      1  O   UNL     1       0.104   8.820  21.951  0.00  0.00    +0.000 OA
ATOM      2  C   UNL     1       0.350   9.596  21.017  0.00  0.00    +0.000 C 
ATOM      3  N   UNL     1       1.351   9.280  20.104  0.00  0.00    +0.000 N 
ATOM      4  C   UNL     1       1.848  10.110  19.010  0.00  0.00    +0.000 C 
ATOM      5  C   UNL     1       1.788   9.353  17.688  0.00  0.00    +0.000 C 
ATOM      6  C   UNL     1       2.513   8.013  17.778  0.00  0.00    +0.000 C 
ATOM      7  C   UNL     1       2.041   7.187  18.992  0.00  0.00    +0.000 C 
ATOM      8  C   UNL     1       2.102   8.033  20.273  0.00  0.00    +0.000 C 
ENDROOT
BRANCH   7   9
ATOM      9  C   UNL     1       2.861   5.949  19.149  0.00  0.00    +0.000 A 
ATOM     10  N   UNL     1       4.104   5.774  18.739  0.00  0.00    +0.000 NA
ATOM     11  N   UNL     1       4.510   4.514  19.101  0.00  0.00    +0.000 NA
ATOM     12  C   UNL     1       3.514   3.938  19.734  0.00  0.00    +0.000 A 
ATOM     13  C   UNL     1       3.367   2.660  20.339  0.00  0.00    +0.000 A 
ATOM     14  C   UNL     1       2.204   2.339  20.938  0.00  0.00    +0.000 A 
ATOM     15  C   UNL     1       1.088   3.275  20.984  0.00  0.00    +0.000 A 
ATOM     16  C   UNL     1       1.229   4.484  20.413  0.00  0.00    +0.000 A 
ATOM     17  N   UNL     1       2.433   4.807  19.794  0.00  0.00    +0.000 N 
ENDBRANCH   7   9
BRANCH   2  18
ATOM     18  C   UNL     1      -0.495  10.898  20.854  0.00  0.00    +0.000 C 
ATOM     19  C   UNL     1       0.403  12.148  21.106  0.00  0.00    +0.000 C 
ATOM     20  C   UNL     1      -0.530  13.252  21.600  0.00  0.00    +0.000 C 
ATOM     21  C   UNL     1      -1.750  12.544  22.168  0.00  0.00    +0.000 C 
ATOM     22  C   UNL     1      -1.448  11.052  22.064  0.00  0.00    +0.000 C 
BRANCH  18  23
ATOM     23  C   UNL     1      -1.115  10.994  19.446  0.00  0.00    +0.000 A 
ATOM     24  C   UNL     1      -0.950  12.121  18.616  0.00  0.00    +0.000 A 
ATOM     25  C   UNL     1      -1.575  12.202  17.371  0.00  0.00    +0.000 A 
ATOM     26  C   UNL     1      -2.347  11.142  16.922  0.00  0.00    +0.000 A 
ATOM     27  F   UNL     1      -2.940  11.219  15.724  0.00  0.00    +0.000 F 
ATOM     28  C   UNL     1      -2.515  10.007  17.702  0.00  0.00    +0.000 A 
ATOM     29  C   UNL     1      -1.911   9.937  18.961  0.00  0.00    +0.000 A 
ENDBRANCH  18  23
ENDBRANCH   2  18
TORSDOF 3
ENDMDL
MODEL 7
REMARK VINA RESULT:      -8.6      8.851     10.718
REMARK  Name = 
REMARK  3 active torsions:
REMARK  status: ('A' for Active; 'I' for Inactive)
REMARK    1  A    between atoms: C_2  and  C_18
REMARK    2  A    between atoms: C_7  and  C_8
REMARK    3  A    between atoms: C_18  and  C_19
REMARK                            x       y       z     vdW  Elec       q    Type
REMARK                         _______ _______ _______ _____ _____    ______ ____
ROOT
ATOM      1  O   UNL     1       1.891  12.011  19.638  0.00  0.00    +0.000 OA
ATOM      2  C   UNL     1       0.860  12.696  19.603  0.00  0.00    +0.000 C 
ATOM      3  N   UNL     1       0.950  14.082  19.700  0.00  0.00    +0.000 N 
ATOM      4  C   UNL     1      -0.150  15.039  19.782  0.00  0.00    +0.000 C 
ATOM      5  C   UNL     1      -0.017  16.107  18.703  0.00  0.00    +0.000 C 
ATOM      6  C   UNL     1       1.349  16.785  18.753  0.00  0.00    +0.000 C 
ATOM      7  C   UNL     1       2.498  15.758  18.759  0.00  0.00    +0.000 C 
ATOM      8  C   UNL     1       2.269  14.701  19.851  0.00  0.00    +0.000 C 
ENDROOT
BRANCH   7   9
ATOM      9  C   UNL     1       3.817  16.430  18.957  0.00  0.00    +0.000 A 
ATOM     10  N   UNL     1       4.028  17.576  19.579  0.00  0.00    +0.000 NA
ATOM     11  N   UNL     1       5.376  17.833  19.575  0.00  0.00    +0.000 NA
ATOM     12  C   UNL     1       5.972  16.838  18.958  0.00  0.00    +0.000 A 
ATOM     13  C   UNL     1       7.336  16.562  18.672  0.00  0.00    +0.000 A 
ATOM     14  C   UNL     1       7.662  15.432  18.015  0.00  0.00    +0.000 A 
ATOM     15  C   UNL     1       6.643  14.479  17.590  0.00  0.00    +0.000 A 
ATOM     16  C   UNL     1       5.353  14.742  17.862  0.00  0.00    +0.000 A 
ATOM     17  N   UNL     1       5.026  15.912  18.540  0.00  0.00    +0.000 N 
ENDBRANCH   7   9
BRANCH   2  18
ATOM     18  C   UNL     1      -0.522  12.000  19.409  0.00  0.00    +0.000 C 
ATOM     19  C   UNL     1      -0.313  10.523  18.950  0.00  0.00    +0.000 C 
ATOM     20  C   UNL     1      -1.560  10.141  18.155  0.00  0.00    +0.000 C 
ATOM     21  C   UNL     1      -2.164  11.451  17.672  0.00  0.00    +0.000 C 
ATOM     22  C   UNL     1      -1.202  12.544  18.129  0.00  0.00    +0.000 C 
BRANCH  18  23
ATOM     23  C   UNL     1      -1.348  12.013  20.711  0.00  0.00    +0.000 A 
ATOM     24  C   UNL     1      -2.600  12.651  20.814  0.00  0.00    +0.000 A 
ATOM     25  C   UNL     1      -3.292  12.697  22.024  0.00  0.00    +0.000 A 
ATOM     26  C   UNL     1      -2.760  12.076  23.142  0.00  0.00    +0.000 A 
ATOM     27  F   UNL     1      -3.430  12.116  24.301  0.00  0.00    +0.000 F 
ATOM     28  C   UNL     1      -1.540  11.419  23.075  0.00  0.00    +0.000 A 
ATOM     29  C   UNL     1      -0.832  11.396  21.869  0.00  0.00    +0.000 A 
ENDBRANCH  18  23
ENDBRANCH   2  18
TORSDOF 3
ENDMDL
MODEL 8
REMARK VINA RESULT:      -8.6      4.479      7.392
REMARK  Name = 
REMARK  3 active torsions:
REMARK  status: ('A' for Active; 'I' for Inactive)
REMARK    1  A    between atoms: C_2  and  C_18
REMARK    2  A    between atoms: C_7  and  C_8
REMARK    3  A    between atoms: C_18  and  C_19
REMARK                            x       y       z     vdW  Elec       q    Type
REMARK                         _______ _______ _______ _____ _____    ______ ____
ROOT
ATOM      1  O   UNL     1      -0.505   9.217  21.318  0.00  0.00    +0.000 OA
ATOM      2  C   UNL     1       0.117   9.744  20.384  0.00  0.00    +0.000 C 
ATOM      3  N   UNL     1       1.215   9.091  19.833  0.00  0.00    +0.000 N 
ATOM      4  C   UNL     1       2.125   9.595  18.808  0.00  0.00    +0.000 C 
ATOM      5  C   UNL     1       2.220   8.617  17.643  0.00  0.00    +0.000 C 
ATOM      6  C   UNL     1       2.598   7.217  18.117  0.00  0.00    +0.000 C 
ATOM      7  C   UNL     1       1.685   6.735  19.263  0.00  0.00    +0.000 C 
ATOM      8  C   UNL     1       1.618   7.791  20.378  0.00  0.00    +0.000 C 
ENDROOT
BRANCH   7   9
ATOM      9  C   UNL     1       2.158   5.430  19.813  0.00  0.00    +0.000 A 
ATOM     10  N   UNL     1       2.321   5.130  21.089  0.00  0.00    +0.000 NA
ATOM     11  N   UNL     1       2.738   3.826  21.181  0.00  0.00    +0.000 NA
ATOM     12  C   UNL     1       2.817   3.343  19.961  0.00  0.00    +0.000 A 
ATOM     13  C   UNL     1       3.174   2.066  19.453  0.00  0.00    +0.000 A 
ATOM     14  C   UNL     1       3.157   1.851  18.123  0.00  0.00    +0.000 A 
ATOM     15  C   UNL     1       2.776   2.903  17.188  0.00  0.00    +0.000 A 
ATOM     16  C   UNL     1       2.437   4.111  17.671  0.00  0.00    +0.000 A 
ATOM     17  N   UNL     1       2.459   4.324  19.046  0.00  0.00    +0.000 N 
ENDBRANCH   7   9
BRANCH   2  18
ATOM     18  C   UNL     1      -0.365  11.113  19.813  0.00  0.00    +0.000 C 
ATOM     19  C   UNL     1       0.841  11.884  19.192  0.00  0.00    +0.000 C 
ATOM     20  C   UNL     1       0.496  13.368  19.289  0.00  0.00    +0.000 C 
ATOM     21  C   UNL     1      -0.528  13.487  20.407  0.00  0.00    +0.000 C 
ATOM     22  C   UNL     1      -0.679  12.080  20.980  0.00  0.00    +0.000 C 
BRANCH  18  23
ATOM     23  C   UNL     1      -1.452  10.923  18.737  0.00  0.00    +0.000 A 
ATOM     24  C   UNL     1      -1.262  10.124  17.592  0.00  0.00    +0.000 A 
ATOM     25  C   UNL     1      -2.244  10.022  16.607  0.00  0.00    +0.000 A 
ATOM     26  C   UNL     1      -3.447  10.691  16.768  0.00  0.00    +0.000 A 
ATOM     27  F   UNL     1      -4.391  10.587  15.824  0.00  0.00    +0.000 F 
ATOM     28  C   UNL     1      -3.680  11.470  17.891  0.00  0.00    +0.000 A 
ATOM     29  C   UNL     1      -2.685  11.595  18.866  0.00  0.00    +0.000 A 
ENDBRANCH  18  23
ENDBRANCH   2  18
TORSDOF 3
ENDMDL
MODEL 9
REMARK VINA RESULT:      -8.5      3.896      7.557
REMARK  Name = 
REMARK  3 active torsions:
REMARK  status: ('A' for Active; 'I' for Inactive)
REMARK    1  A    between atoms: C_2  and  C_18
REMARK    2  A    between atoms: C_7  and  C_8
REMARK    3  A    between atoms: C_18  and  C_19
REMARK                            x       y       z     vdW  Elec       q    Type
REMARK                         _______ _______ _______ _____ _____    ______ ____
ROOT
ATOM      1  O   UNL     1       4.144   7.526  15.907  0.00  0.00    +0.000 OA
ATOM      2  C   UNL     1       4.209   6.794  16.904  0.00  0.00    +0.000 C 
ATOM      3  N   UNL     1       3.652   7.217  18.107  0.00  0.00    +0.000 N 
ATOM      4  C   UNL     1       3.721   6.545  19.401  0.00  0.00    +0.000 C 
ATOM      5  C   UNL     1       2.324   6.344  19.979  0.00  0.00    +0.000 C 
ATOM      6  C   UNL     1       1.551   7.658  20.046  0.00  0.00    +0.000 C 
ATOM      7  C   UNL     1       1.567   8.400  18.694  0.00  0.00    +0.000 C 
ATOM      8  C   UNL     1       3.005   8.531  18.168  0.00  0.00    +0.000 C 
ENDROOT
BRANCH   7   9
ATOM      9  C   UNL     1       0.935   9.748  18.815  0.00  0.00    +0.000 A 
ATOM     10  N   UNL     1       1.411  10.779  19.489  0.00  0.00    +0.000 NA
ATOM     11  N   UNL     1       0.555  11.839  19.326  0.00  0.00    +0.000 NA
ATOM     12  C   UNL     1      -0.429  11.445  18.549  0.00  0.00    +0.000 A 
ATOM     13  C   UNL     1      -1.576  12.109  18.037  0.00  0.00    +0.000 A 
ATOM     14  C   UNL     1      -2.429  11.439  17.237  0.00  0.00    +0.000 A 
ATOM     15  C   UNL     1      -2.201  10.044  16.880  0.00  0.00    +0.000 A 
ATOM     16  C   UNL     1      -1.114   9.418  17.365  0.00  0.00    +0.000 A 
ATOM     17  N   UNL     1      -0.240  10.117  18.193  0.00  0.00    +0.000 N 
ENDBRANCH   7   9
BRANCH   2  18
ATOM     18  C   UNL     1       4.879   5.390  16.787  0.00  0.00    +0.000 C 
ATOM     19  C   UNL     1       6.299   5.423  17.434  0.00  0.00    +0.000 C 
ATOM     20  C   UNL     1       7.117   4.345  16.726  0.00  0.00    +0.000 C 
ATOM     21  C   UNL     1       6.439   4.122  15.382  0.00  0.00    +0.000 C 
ATOM     22  C   UNL     1       5.301   5.137  15.319  0.00  0.00    +0.000 C 
BRANCH  18  23
ATOM     23  C   UNL     1       4.033   4.303  17.479  0.00  0.00    +0.000 A 
ATOM     24  C   UNL     1       2.714   3.998  17.086  0.00  0.00    +0.000 A 
ATOM     25  C   UNL     1       1.954   3.050  17.772  0.00  0.00    +0.000 A 
ATOM     26  C   UNL     1       2.513   2.369  18.841  0.00  0.00    +0.000 A 
ATOM     27  F   UNL     1       1.783   1.455  19.495  0.00  0.00    +0.000 F 
ATOM     28  C   UNL     1       3.815   2.626  19.244  0.00  0.00    +0.000 A 
ATOM     29  C   UNL     1       4.568   3.595  18.574  0.00  0.00    +0.000 A 
ENDBRANCH  18  23
ENDBRANCH   2  18
TORSDOF 3
ENDMDL
