MODEL 1
REMARK VINA RESULT:      -8.6      0.000      0.000
REMARK  Name = 
REMARK  5 active torsions:
REMARK  status: ('A' for Active; 'I' for Inactive)
REMARK    1  A    between atoms: C_2  and  C_4
REMARK    2  A    between atoms: C_4  and  C_5
REMARK    3  A    between atoms: N_13  and  C_14
REMARK    4  A    between atoms: C_14  and  C_15
REMARK    5  A    between atoms: C_18  and  C_19
REMARK                            x       y       z     vdW  Elec       q    Type
REMARK                         _______ _______ _______ _____ _____    ______ ____
ROOT
ATOM      1  C   UNL     1       3.924   4.941  18.682  0.00  0.00    +0.000 C 
ATOM      2  C   UNL     1       3.921   4.963  17.138  0.00  0.00    +0.000 C 
ATOM      3  C   UNL     1       4.427   6.352  16.786  0.00  0.00    +0.000 C 
ATOM      4  N   UNL     1       3.845   7.247  17.792  0.00  0.00    +0.000 NA
ATOM      5  C   UNL     1       3.822   6.450  19.043  0.00  0.00    +0.000 C 
ENDROOT
BRANCH   1   6
ATOM      6  C   UNL     1       2.752   4.043  19.137  0.00  0.00    +0.000 A 
ATOM      7  C   UNL     1       2.261   4.061  20.450  0.00  0.00    +0.000 A 
ATOM      8  C   UNL     1       1.133   3.325  20.824  0.00  0.00    +0.000 A 
ATOM      9  C   UNL     1       0.461   2.552  19.882  0.00  0.00    +0.000 A 
ATOM     10  C   UNL     1       0.920   2.513  18.572  0.00  0.00    +0.000 A 
ATOM     11  C   UNL     1       2.053   3.256  18.198  0.00  0.00    +0.000 A 
ENDBRANCH   1   6
BRANCH   1  13
ATOM     12  N   UNL     1       5.430   3.049  19.316  0.00  0.00    +0.000 N 
ATOM     13  C   UNL     1       5.288   4.402  19.191  0.00  0.00    +0.000 C 
ATOM     14  O   UNL     1       6.258   5.118  19.441  0.00  0.00    +0.000 OA
ATOM     15  H   UNL     1       6.337   2.712  19.613  0.00  0.00    +0.000 HD
ATOM     16  H   UNL     1       4.777   2.384  18.926  0.00  0.00    +0.000 HD
ENDBRANCH   1  13
BRANCH   4  17
ATOM     17  C   UNL     1       2.511   7.736  17.390  0.00  0.00    +0.000 C 
BRANCH  17  18
ATOM     18  C   UNL     1       2.107   8.988  18.101  0.00  0.00    +0.000 A 
ATOM     19  N   UNL     1       2.177  10.231  17.668  0.00  0.00    +0.000 NA
ATOM     20  N   UNL     1       1.528  11.002  18.612  0.00  0.00    +0.000 NA
ATOM     21  C   UNL     1       1.111  10.180  19.555  0.00  0.00    +0.000 A 
ATOM     22  O   UNL     1       1.460   8.875  19.305  0.00  0.00    +0.000 OA
BRANCH  21  23
ATOM     23  C   UNL     1       0.323  10.465  20.744  0.00  0.00    +0.000 A 
ATOM     24  C   UNL     1      -0.648  11.478  20.780  0.00  0.00    +0.000 A 
ATOM     25  C   UNL     1      -1.407  11.704  21.936  0.00  0.00    +0.000 A 
ATOM     26  C   UNL     1      -1.195  10.922  23.069  0.00  0.00    +0.000 A 
ATOM     27  C   UNL     1      -0.222   9.932  23.043  0.00  0.00    +0.000 A 
ATOM     28  F   UNL     1      -0.010   9.188  24.136  0.00  0.00    +0.000 F 
ATOM     29  C   UNL     1       0.535   9.698  21.900  0.00  0.00    +0.000 A 
ENDBRANCH  21  23
ENDBRANCH  17  18
ENDBRANCH   4  17
TORSDOF 5
ENDMDL
MODEL 2
REMARK VINA RESULT:      -8.5      4.601      8.521
REMARK  Name = 
REMARK  5 active torsions:
REMARK  status: ('A' for Active; 'I' for Inactive)
REMARK    1  A    between atoms: C_2  and  C_4
REMARK    2  A    between atoms: C_4  and  C_5
REMARK    3  A    between atoms: N_13  and  C_14
REMARK    4  A    between atoms: C_14  and  C_15
REMARK    5  A    between atoms: C_18  and  C_19
REMARK                            x       y       z     vdW  Elec       q    Type
REMARK                         _______ _______ _______ _____ _____    ______ ____
ROOT
ATOM      1  C   UNL     1       2.619   5.711  19.421  0.00  0.00    +0.000 C 
ATOM      2  C   UNL     1       2.318   5.308  17.961  0.00  0.00    +0.000 C 
ATOM      3  C   UNL     1       3.553   4.536  17.526  0.00  0.00    +0.000 C 
ATOM      4  N   UNL     1       4.686   5.229  18.150  0.00  0.00    +0.000 NA
ATOM      5  C   UNL     1       4.174   5.689  19.465  0.00  0.00    +0.000 C 
ENDROOT
BRANCH   1   6
ATOM      6  C   UNL     1       1.943   7.076  19.677  0.00  0.00    +0.000 A 
ATOM      7  C   UNL     1       1.423   7.431  20.929  0.00  0.00    +0.000 A 
ATOM      8  C   UNL     1       0.910   8.707  21.177  0.00  0.00    +0.000 A 
ATOM      9  C   UNL     1       0.911   9.668  20.171  0.00  0.00    +0.000 A 
ATOM     10  C   UNL     1       1.420   9.349  18.919  0.00  0.00    +0.000 A 
ATOM     11  C   UNL     1       1.938   8.067  18.672  0.00  0.00    +0.000 A 
ENDBRANCH   1   6
BRANCH   1  13
ATOM     12  N   UNL     1       0.905   4.007  20.056  0.00  0.00    +0.000 N 
ATOM     13  C   UNL     1       2.083   4.617  20.383  0.00  0.00    +0.000 C 
ATOM     14  O   UNL     1       2.678   4.238  21.391  0.00  0.00    +0.000 OA
ATOM     15  H   UNL     1       0.588   3.270  20.673  0.00  0.00    +0.000 HD
ATOM     16  H   UNL     1       0.469   4.092  19.149  0.00  0.00    +0.000 HD
ENDBRANCH   1  13
BRANCH   4  17
ATOM     17  C   UNL     1       5.194   6.328  17.307  0.00  0.00    +0.000 C 
BRANCH  17  18
ATOM     18  C   UNL     1       6.016   5.850  16.152  0.00  0.00    +0.000 A 
ATOM     19  N   UNL     1       7.326   5.882  16.014  0.00  0.00    +0.000 NA
ATOM     20  N   UNL     1       7.607   5.172  14.864  0.00  0.00    +0.000 NA
ATOM     21  C   UNL     1       6.453   4.761  14.377  0.00  0.00    +0.000 A 
ATOM     22  O   UNL     1       5.386   5.173  15.140  0.00  0.00    +0.000 OA
BRANCH  21  23
ATOM     23  C   UNL     1       6.186   3.925  13.217  0.00  0.00    +0.000 A 
ATOM     24  C   UNL     1       7.200   3.234  12.537  0.00  0.00    +0.000 A 
ATOM     25  C   UNL     1       6.900   2.417  11.439  0.00  0.00    +0.000 A 
ATOM     26  C   UNL     1       5.581   2.290  11.008  0.00  0.00    +0.000 A 
ATOM     27  C   UNL     1       4.578   2.988  11.667  0.00  0.00    +0.000 A 
ATOM     28  F   UNL     1       3.312   2.876  11.245  0.00  0.00    +0.000 F 
ATOM     29  C   UNL     1       4.865   3.800  12.759  0.00  0.00    +0.000 A 
ENDBRANCH  21  23
ENDBRANCH  17  18
ENDBRANCH   4  17
TORSDOF 5
ENDMDL
MODEL 3
REMARK VINA RESULT:      -8.5      0.868      1.229
REMARK  Name = 
REMARK  5 active torsions:
REMARK  status: ('A' for Active; 'I' for Inactive)
REMARK    1  A    between atoms: C_2  and  C_4
REMARK    2  A    between atoms: C_4  and  C_5
REMARK    3  A    between atoms: N_13  and  C_14
REMARK    4  A    between atoms: C_14  and  C_15
REMARK    5  A    between atoms: C_18  and  C_19
REMARK                            x       y       z     vdW  Elec       q    Type
REMARK                         _______ _______ _______ _____ _____    ______ ____
ROOT
ATOM      1  C   UNL     1       3.977   5.016  18.676  0.00  0.00    +0.000 C 
ATOM      2  C   UNL     1       4.016   5.007  17.133  0.00  0.00    +0.000 C 
ATOM      3  C   UNL     1       4.532   6.388  16.766  0.00  0.00    +0.000 C 
ATOM      4  N   UNL     1       3.922   7.303  17.737  0.00  0.00    +0.000 NA
ATOM      5  C   UNL     1       3.865   6.532  19.003  0.00  0.00    +0.000 C 
ENDROOT
BRANCH   1   6
ATOM      6  C   UNL     1       2.794   4.127  19.117  0.00  0.00    +0.000 A 
ATOM      7  C   UNL     1       2.278   4.159  20.420  0.00  0.00    +0.000 A 
ATOM      8  C   UNL     1       1.140   3.431  20.779  0.00  0.00    +0.000 A 
ATOM      9  C   UNL     1       0.483   2.650  19.832  0.00  0.00    +0.000 A 
ATOM     10  C   UNL     1       0.968   2.598  18.532  0.00  0.00    +0.000 A 
ATOM     11  C   UNL     1       2.110   3.333  18.172  0.00  0.00    +0.000 A 
ENDBRANCH   1   6
BRANCH   1  13
ATOM     12  N   UNL     1       5.541   3.140  19.209  0.00  0.00    +0.000 N 
ATOM     13  C   UNL     1       5.328   4.489  19.233  0.00  0.00    +0.000 C 
ATOM     14  O   UNL     1       6.229   5.217  19.648  0.00  0.00    +0.000 OA
ATOM     15  H   UNL     1       6.440   2.816  19.540  0.00  0.00    +0.000 HD
ATOM     16  H   UNL     1       4.962   2.496  18.688  0.00  0.00    +0.000 HD
ENDBRANCH   1  13
BRANCH   4  17
ATOM     17  C   UNL     1       2.599   7.783  17.289  0.00  0.00    +0.000 C 
BRANCH  17  18
ATOM     18  C   UNL     1       2.118   8.976  18.052  0.00  0.00    +0.000 A 
ATOM     19  N   UNL     1       2.053  10.229  17.652  0.00  0.00    +0.000 NA
ATOM     20  N   UNL     1       1.384  10.915  18.646  0.00  0.00    +0.000 NA
ATOM     21  C   UNL     1       1.092  10.037  19.585  0.00  0.00    +0.000 A 
ATOM     22  O   UNL     1       1.547   8.775  19.283  0.00  0.00    +0.000 OA
BRANCH  21  23
ATOM     23  C   UNL     1       0.342  10.220  20.818  0.00  0.00    +0.000 A 
ATOM     24  C   UNL     1       0.115   9.172  21.724  0.00  0.00    +0.000 A 
ATOM     25  C   UNL     1      -0.589   9.393  22.915  0.00  0.00    +0.000 A 
ATOM     26  C   UNL     1      -1.077  10.665  23.207  0.00  0.00    +0.000 A 
ATOM     27  C   UNL     1      -0.870  11.700  22.304  0.00  0.00    +0.000 A 
ATOM     28  F   UNL     1      -1.349  12.919  22.579  0.00  0.00    +0.000 F 
ATOM     29  C   UNL     1      -0.170  11.490  21.120  0.00  0.00    +0.000 A 
ENDBRANCH  21  23
ENDBRANCH  17  18
ENDBRANCH   4  17
TORSDOF 5
ENDMDL
MODEL 4
REMARK VINA RESULT:      -8.4      4.863      8.592
REMARK  Name = 
REMARK  5 active torsions:
REMARK  status: ('A' for Active; 'I' for Inactive)
REMARK    1  A    between atoms: C_2  and  C_4
REMARK    2  A    between atoms: C_4  and  C_5
REMARK    3  A    between atoms: N_13  and  C_14
REMARK    4  A    between atoms: C_14  and  C_15
REMARK    5  A    between atoms: C_18  and  C_19
REMARK                            x       y       z     vdW  Elec       q    Type
REMARK                         _______ _______ _______ _____ _____    ______ ____
ROOT
ATOM      1  C   UNL     1       2.704   5.616  19.377  0.00  0.00    +0.000 C 
ATOM      2  C   UNL     1       2.512   5.286  17.881  0.00  0.00    +0.000 C 
ATOM      3  C   UNL     1       3.769   4.518  17.506  0.00  0.00    +0.000 C 
ATOM      4  N   UNL     1       4.857   5.165  18.248  0.00  0.00    +0.000 NA
ATOM      5  C   UNL     1       4.250   5.571  19.539  0.00  0.00    +0.000 C 
ENDROOT
BRANCH   1   6
ATOM      6  C   UNL     1       2.023   6.976  19.645  0.00  0.00    +0.000 A 
ATOM      7  C   UNL     1       1.513   7.324  20.903  0.00  0.00    +0.000 A 
ATOM      8  C   UNL     1       0.996   8.596  21.162  0.00  0.00    +0.000 A 
ATOM      9  C   UNL     1       0.984   9.562  20.160  0.00  0.00    +0.000 A 
ATOM     10  C   UNL     1       1.483   9.251  18.902  0.00  0.00    +0.000 A 
ATOM     11  C   UNL     1       2.005   7.972  18.645  0.00  0.00    +0.000 A 
ENDBRANCH   1   6
BRANCH   1  13
ATOM     12  N   UNL     1       0.947   3.884  19.779  0.00  0.00    +0.000 N 
ATOM     13  C   UNL     1       2.083   4.486  20.242  0.00  0.00    +0.000 C 
ATOM     14  O   UNL     1       2.580   4.072  21.289  0.00  0.00    +0.000 OA
ATOM     15  H   UNL     1       0.577   3.124  20.335  0.00  0.00    +0.000 HD
ATOM     16  H   UNL     1       0.602   4.000  18.836  0.00  0.00    +0.000 HD
ENDBRANCH   1  13
BRANCH   4  17
ATOM     17  C   UNL     1       5.441   6.296  17.499  0.00  0.00    +0.000 C 
BRANCH  17  18
ATOM     18  C   UNL     1       6.156   5.871  16.256  0.00  0.00    +0.000 A 
ATOM     19  N   UNL     1       7.440   5.969  15.980  0.00  0.00    +0.000 NA
ATOM     20  N   UNL     1       7.631   5.285  14.796  0.00  0.00    +0.000 NA
ATOM     21  C   UNL     1       6.452   4.821  14.429  0.00  0.00    +0.000 A 
ATOM     22  O   UNL     1       5.455   5.171  15.307  0.00  0.00    +0.000 OA
BRANCH  21  23
ATOM     23  C   UNL     1       6.103   3.984  13.292  0.00  0.00    +0.000 A 
ATOM     24  C   UNL     1       4.781   3.824  12.852  0.00  0.00    +0.000 A 
ATOM     25  C   UNL     1       4.486   3.031  11.735  0.00  0.00    +0.000 A 
ATOM     26  C   UNL     1       5.515   2.385  11.052  0.00  0.00    +0.000 A 
ATOM     27  C   UNL     1       6.823   2.525  11.497  0.00  0.00    +0.000 A 
ATOM     28  F   UNL     1       7.810   1.895  10.849  0.00  0.00    +0.000 F 
ATOM     29  C   UNL     1       7.125   3.312  12.603  0.00  0.00    +0.000 A 
ENDBRANCH  21  23
ENDBRANCH  17  18
ENDBRANCH   4  17
TORSDOF 5
ENDMDL
MODEL 5
REMARK VINA RESULT:      -8.4      2.801      4.297
REMARK  Name = 
REMARK  5 active torsions:
REMARK  status: ('A' for Active; 'I' for Inactive)
REMARK    1  A    between atoms: C_2  and  C_4
REMARK    2  A    between atoms: C_4  and  C_5
REMARK    3  A    between atoms: N_13  and  C_14
REMARK    4  A    between atoms: C_14  and  C_15
REMARK    5  A    between atoms: C_18  and  C_19
REMARK                            x       y       z     vdW  Elec       q    Type
REMARK                         _______ _______ _______ _____ _____    ______ ____
ROOT
ATOM      1  C   UNL     1       3.552   3.872  18.306  0.00  0.00    +0.000 C 
ATOM      2  C   UNL     1       3.774   3.850  19.834  0.00  0.00    +0.000 C 
ATOM      3  C   UNL     1       2.494   4.439  20.404  0.00  0.00    +0.000 C 
ATOM      4  N   UNL     1       2.108   5.506  19.473  0.00  0.00    +0.000 NA
ATOM      5  C   UNL     1       2.497   5.001  18.133  0.00  0.00    +0.000 C 
ENDROOT
BRANCH   1   6
ATOM      6  C   UNL     1       4.926   4.104  17.640  0.00  0.00    +0.000 A 
ATOM      7  C   UNL     1       5.115   3.995  16.255  0.00  0.00    +0.000 A 
ATOM      8  C   UNL     1       6.335   4.312  15.652  0.00  0.00    +0.000 A 
ATOM      9  C   UNL     1       7.403   4.756  16.426  0.00  0.00    +0.000 A 
ATOM     10  C   UNL     1       7.248   4.876  17.801  0.00  0.00    +0.000 A 
ATOM     11  C   UNL     1       6.020   4.561  18.405  0.00  0.00    +0.000 A 
ENDBRANCH   1   6
BRANCH   1  13
ATOM     12  N   UNL     1       3.564   1.375  18.195  0.00  0.00    +0.000 N 
ATOM     13  C   UNL     1       2.917   2.529  17.854  0.00  0.00    +0.000 C 
ATOM     14  O   UNL     1       1.847   2.445  17.252  0.00  0.00    +0.000 OA
ATOM     15  H   UNL     1       3.117   0.508  17.925  0.00  0.00    +0.000 HD
ATOM     16  H   UNL     1       4.314   1.338  18.870  0.00  0.00    +0.000 HD
ENDBRANCH   1  13
BRANCH   4  17
ATOM     17  C   UNL     1       2.741   6.795  19.815  0.00  0.00    +0.000 C 
BRANCH  17  18
ATOM     18  C   UNL     1       2.208   7.941  19.015  0.00  0.00    +0.000 A 
ATOM     19  N   UNL     1       2.627   8.384  17.848  0.00  0.00    +0.000 NA
ATOM     20  N   UNL     1       1.712   9.338  17.450  0.00  0.00    +0.000 NA
ATOM     21  C   UNL     1       0.802   9.415  18.402  0.00  0.00    +0.000 A 
ATOM     22  O   UNL     1       1.064   8.561  19.446  0.00  0.00    +0.000 OA
BRANCH  21  23
ATOM     23  C   UNL     1      -0.410  10.218  18.457  0.00  0.00    +0.000 A 
ATOM     24  C   UNL     1      -0.617  11.201  19.436  0.00  0.00    +0.000 A 
ATOM     25  C   UNL     1      -1.787  11.973  19.441  0.00  0.00    +0.000 A 
ATOM     26  C   UNL     1      -2.762  11.762  18.468  0.00  0.00    +0.000 A 
ATOM     27  C   UNL     1      -2.569  10.776  17.510  0.00  0.00    +0.000 A 
ATOM     28  F   UNL     1      -3.510  10.564  16.584  0.00  0.00    +0.000 F 
ATOM     29  C   UNL     1      -1.410  10.006  17.496  0.00  0.00    +0.000 A 
ENDBRANCH  21  23
ENDBRANCH  17  18
ENDBRANCH   4  17
TORSDOF 5
ENDMDL
MODEL 6
REMARK VINA RESULT:      -8.4      4.648      6.491
REMARK  Name = 
REMARK  5 active torsions:
REMARK  status: ('A' for Active; 'I' for Inactive)
REMARK    1  A    between atoms: C_2  and  C_4
REMARK    2  A    between atoms: C_4  and  C_5
REMARK    3  A    between atoms: N_13  and  C_14
REMARK    4  A    between atoms: C_14  and  C_15
REMARK    5  A    between atoms: C_18  and  C_19
REMARK                            x       y       z     vdW  Elec       q    Type
REMARK                         _______ _______ _______ _____ _____    ______ ____
ROOT
ATOM      1  C   UNL     1       4.260   3.965  18.261  0.00  0.00    +0.000 C 
ATOM      2  C   UNL     1       3.832   4.132  16.786  0.00  0.00    +0.000 C 
ATOM      3  C   UNL     1       5.126   3.979  16.004  0.00  0.00    +0.000 C 
ATOM      4  N   UNL     1       6.154   4.635  16.819  0.00  0.00    +0.000 NA
ATOM      5  C   UNL     1       5.765   4.355  18.223  0.00  0.00    +0.000 C 
ENDROOT
BRANCH   1   6
ATOM      6  C   UNL     1       3.338   4.860  19.117  0.00  0.00    +0.000 A 
ATOM      7  C   UNL     1       3.309   6.254  18.979  0.00  0.00    +0.000 A 
ATOM      8  C   UNL     1       2.395   7.044  19.683  0.00  0.00    +0.000 A 
ATOM      9  C   UNL     1       1.477   6.451  20.544  0.00  0.00    +0.000 A 
ATOM     10  C   UNL     1       1.478   5.071  20.702  0.00  0.00    +0.000 A 
ATOM     11  C   UNL     1       2.395   4.279  19.992  0.00  0.00    +0.000 A 
ENDBRANCH   1   6
BRANCH   1  13
ATOM     12  N   UNL     1       4.924   2.035  19.704  0.00  0.00    +0.000 N 
ATOM     13  C   UNL     1       4.147   2.471  18.668  0.00  0.00    +0.000 C 
ATOM     14  O   UNL     1       3.367   1.675  18.146  0.00  0.00    +0.000 OA
ATOM     15  H   UNL     1       4.811   1.069  19.981  0.00  0.00    +0.000 HD
ATOM     16  H   UNL     1       5.417   2.658  20.328  0.00  0.00    +0.000 HD
ENDBRANCH   1  13
BRANCH   4  17
ATOM     17  C   UNL     1       6.258   6.078  16.522  0.00  0.00    +0.000 C 
BRANCH  17  18
ATOM     18  C   UNL     1       7.106   6.820  17.504  0.00  0.00    +0.000 A 
ATOM     19  N   UNL     1       7.872   6.329  18.456  0.00  0.00    +0.000 NA
ATOM     20  N   UNL     1       8.576   7.398  18.972  0.00  0.00    +0.000 NA
ATOM     21  C   UNL     1       8.189   8.468  18.305  0.00  0.00    +0.000 A 
ATOM     22  O   UNL     1       7.234   8.178  17.360  0.00  0.00    +0.000 OA
BRANCH  21  23
ATOM     23  C   UNL     1       8.659   9.841  18.409  0.00  0.00    +0.000 A 
ATOM     24  C   UNL     1       8.219  10.854  17.545  0.00  0.00    +0.000 A 
ATOM     25  C   UNL     1       8.674  12.171  17.693  0.00  0.00    +0.000 A 
ATOM     26  C   UNL     1       9.580  12.483  18.705  0.00  0.00    +0.000 A 
ATOM     27  C   UNL     1      10.032  11.478  19.550  0.00  0.00    +0.000 A 
ATOM     28  F   UNL     1      10.911  11.775  20.514  0.00  0.00    +0.000 F 
ATOM     29  C   UNL     1       9.584  10.168  19.412  0.00  0.00    +0.000 A 
ENDBRANCH  21  23
ENDBRANCH  17  18
ENDBRANCH   4  17
TORSDOF 5
ENDMDL
MODEL 7
REMARK VINA RESULT:      -8.3      2.849      4.325
REMARK  Name = 
REMARK  5 active torsions:
REMARK  status: ('A' for Active; 'I' for Inactive)
REMARK    1  A    between atoms: C_2  and  C_4
REMARK    2  A    between atoms: C_4  and  C_5
REMARK    3  A    between atoms: N_13  and  C_14
REMARK    4  A    between atoms: C_14  and  C_15
REMARK    5  A    between atoms: C_18  and  C_19
REMARK                            x       y       z     vdW  Elec       q    Type
REMARK                         _______ _______ _______ _____ _____    ______ ____
ROOT
ATOM      1  C   UNL     1       3.624   3.792  18.122  0.00  0.00    +0.000 C 
ATOM      2  C   UNL     1       4.005   3.916  19.613  0.00  0.00    +0.000 C 
ATOM      3  C   UNL     1       2.761   4.492  20.268  0.00  0.00    +0.000 C 
ATOM      4  N   UNL     1       2.219   5.452  19.300  0.00  0.00    +0.000 NA
ATOM      5  C   UNL     1       2.494   4.850  17.972  0.00  0.00    +0.000 C 
ENDROOT
BRANCH   1   6
ATOM      6  C   UNL     1       4.905   4.030  17.292  0.00  0.00    +0.000 A 
ATOM      7  C   UNL     1       4.908   3.991  15.892  0.00  0.00    +0.000 A 
ATOM      8  C   UNL     1       6.047   4.313  15.149  0.00  0.00    +0.000 A 
ATOM      9  C   UNL     1       7.219   4.691  15.797  0.00  0.00    +0.000 A 
ATOM     10  C   UNL     1       7.250   4.741  17.185  0.00  0.00    +0.000 A 
ATOM     11  C   UNL     1       6.102   4.420  17.929  0.00  0.00    +0.000 A 
ENDBRANCH   1   6
BRANCH   1  13
ATOM     12  N   UNL     1       3.791   1.298  18.159  0.00  0.00    +0.000 N 
ATOM     13  C   UNL     1       3.022   2.386  17.855  0.00  0.00    +0.000 C 
ATOM     14  O   UNL     1       1.882   2.196  17.432  0.00  0.00    +0.000 OA
ATOM     15  H   UNL     1       3.370   0.389  18.015  0.00  0.00    +0.000 HD
ATOM     16  H   UNL     1       4.635   1.353  18.712  0.00  0.00    +0.000 HD
ENDBRANCH   1  13
BRANCH   4  17
ATOM     17  C   UNL     1       2.810   6.795  19.463  0.00  0.00    +0.000 C 
BRANCH  17  18
ATOM     18  C   UNL     1       1.826   7.814  19.944  0.00  0.00    +0.000 A 
ATOM     19  N   UNL     1       1.230   7.883  21.117  0.00  0.00    +0.000 NA
ATOM     20  N   UNL     1       0.557   9.087  21.134  0.00  0.00    +0.000 NA
ATOM     21  C   UNL     1       0.783   9.668  19.972  0.00  0.00    +0.000 A 
ATOM     22  O   UNL     1       1.575   8.903  19.150  0.00  0.00    +0.000 OA
BRANCH  21  23
ATOM     23  C   UNL     1       0.359  10.976  19.496  0.00  0.00    +0.000 A 
ATOM     24  C   UNL     1      -0.974  11.406  19.563  0.00  0.00    +0.000 A 
ATOM     25  C   UNL     1      -1.339  12.684  19.119  0.00  0.00    +0.000 A 
ATOM     26  C   UNL     1      -0.372  13.541  18.598  0.00  0.00    +0.000 A 
ATOM     27  C   UNL     1       0.946  13.111  18.513  0.00  0.00    +0.000 A 
ATOM     28  F   UNL     1       1.873  13.929  18.001  0.00  0.00    +0.000 F 
ATOM     29  C   UNL     1       1.318  11.845  18.953  0.00  0.00    +0.000 A 
ENDBRANCH  21  23
ENDBRANCH  17  18
ENDBRANCH   4  17
TORSDOF 5
ENDMDL
MODEL 8
REMARK VINA RESULT:      -8.3      2.354      3.950
REMARK  Name = 
REMARK  5 active torsions:
REMARK  status: ('A' for Active; 'I' for Inactive)
REMARK    1  A    between atoms: C_2  and  C_4
REMARK    2  A    between atoms: C_4  and  C_5
REMARK    3  A    between atoms: N_13  and  C_14
REMARK    4  A    between atoms: C_14  and  C_15
REMARK    5  A    between atoms: C_18  and  C_19
REMARK                            x       y       z     vdW  Elec       q    Type
REMARK                         _______ _______ _______ _____ _____    ______ ____
ROOT
ATOM      1  C   UNL     1       3.632   3.841  18.192  0.00  0.00    +0.000 C 
ATOM      2  C   UNL     1       3.933   3.842  19.707  0.00  0.00    +0.000 C 
ATOM      3  C   UNL     1       2.683   4.436  20.334  0.00  0.00    +0.000 C 
ATOM      4  N   UNL     1       2.245   5.488  19.409  0.00  0.00    +0.000 NA
ATOM      5  C   UNL     1       2.566   4.966  18.059  0.00  0.00    +0.000 C 
ENDROOT
BRANCH   1   6
ATOM      6  C   UNL     1       4.968   4.067  17.452  0.00  0.00    +0.000 A 
ATOM      7  C   UNL     1       5.073   3.995  16.057  0.00  0.00    +0.000 A 
ATOM      8  C   UNL     1       6.262   4.306  15.391  0.00  0.00    +0.000 A 
ATOM      9  C   UNL     1       7.382   4.707  16.112  0.00  0.00    +0.000 A 
ATOM     10  C   UNL     1       7.312   4.790  17.497  0.00  0.00    +0.000 A 
ATOM     11  C   UNL     1       6.115   4.480  18.164  0.00  0.00    +0.000 A 
ENDBRANCH   1   6
BRANCH   1  13
ATOM     12  N   UNL     1       3.642   1.343  18.121  0.00  0.00    +0.000 N 
ATOM     13  C   UNL     1       2.978   2.491  17.793  0.00  0.00    +0.000 C 
ATOM     14  O   UNL     1       1.881   2.396  17.244  0.00  0.00    +0.000 OA
ATOM     15  H   UNL     1       3.184   0.471  17.888  0.00  0.00    +0.000 HD
ATOM     16  H   UNL     1       4.423   1.317  18.761  0.00  0.00    +0.000 HD
ENDBRANCH   1  13
BRANCH   4  17
ATOM     17  C   UNL     1       2.892   6.784  19.701  0.00  0.00    +0.000 C 
BRANCH  17  18
ATOM     18  C   UNL     1       2.279   7.925  18.954  0.00  0.00    +0.000 A 
ATOM     19  N   UNL     1       2.502   8.301  17.712  0.00  0.00    +0.000 NA
ATOM     20  N   UNL     1       1.576   9.288  17.438  0.00  0.00    +0.000 NA
ATOM     21  C   UNL     1       0.856   9.450  18.530  0.00  0.00    +0.000 A 
ATOM     22  O   UNL     1       1.260   8.623  19.551  0.00  0.00    +0.000 OA
BRANCH  21  23
ATOM     23  C   UNL     1      -0.288  10.318  18.762  0.00  0.00    +0.000 A 
ATOM     24  C   UNL     1      -1.314  10.479  17.818  0.00  0.00    +0.000 A 
ATOM     25  C   UNL     1      -2.414  11.304  18.089  0.00  0.00    +0.000 A 
ATOM     26  C   UNL     1      -2.493  11.980  19.305  0.00  0.00    +0.000 A 
ATOM     27  C   UNL     1      -1.470  11.838  20.232  0.00  0.00    +0.000 A 
ATOM     28  F   UNL     1      -1.539  12.497  21.395  0.00  0.00    +0.000 F 
ATOM     29  C   UNL     1      -0.375  11.020  19.974  0.00  0.00    +0.000 A 
ENDBRANCH  21  23
ENDBRANCH  17  18
ENDBRANCH   4  17
TORSDOF 5
ENDMDL
MODEL 9
REMARK VINA RESULT:      -8.3      2.510      3.979
REMARK  Name = 
REMARK  5 active torsions:
REMARK  status: ('A' for Active; 'I' for Inactive)
REMARK    1  A    between atoms: C_2  and  C_4
REMARK    2  A    between atoms: C_4  and  C_5
REMARK    3  A    between atoms: N_13  and  C_14
REMARK    4  A    between atoms: C_14  and  C_15
REMARK    5  A    between atoms: C_18  and  C_19
REMARK                            x       y       z     vdW  Elec       q    Type
REMARK                         _______ _______ _______ _____ _____    ______ ____
ROOT
ATOM      1  C   UNL     1       3.523   4.016  18.153  0.00  0.00    +0.000 C 
ATOM      2  C   UNL     1       3.860   3.969  19.659  0.00  0.00    +0.000 C 
ATOM      3  C   UNL     1       2.616   4.521  20.336  0.00  0.00    +0.000 C 
ATOM      4  N   UNL     1       2.140   5.596  19.459  0.00  0.00    +0.000 NA
ATOM      5  C   UNL     1       2.436   5.126  18.083  0.00  0.00    +0.000 C 
ENDROOT
BRANCH   1   6
ATOM      6  C   UNL     1       4.837   4.290  17.389  0.00  0.00    +0.000 A 
ATOM      7  C   UNL     1       6.059   4.483  18.047  0.00  0.00    +0.000 A 
ATOM      8  C   UNL     1       7.259   4.623  17.344  0.00  0.00    +0.000 A 
ATOM      9  C   UNL     1       7.264   4.566  15.954  0.00  0.00    +0.000 A 
ATOM     10  C   UNL     1       6.070   4.374  15.271  0.00  0.00    +0.000 A 
ATOM     11  C   UNL     1       4.866   4.230  15.980  0.00  0.00    +0.000 A 
ENDBRANCH   1   6
BRANCH   1  13
ATOM     12  N   UNL     1       3.406   1.521  18.243  0.00  0.00    +0.000 N 
ATOM     13  C   UNL     1       2.881   2.669  17.722  0.00  0.00    +0.000 C 
ATOM     14  O   UNL     1       1.902   2.582  16.981  0.00  0.00    +0.000 OA
ATOM     15  H   UNL     1       2.953   0.654  17.982  0.00  0.00    +0.000 HD
ATOM     16  H   UNL     1       4.052   1.508  19.020  0.00  0.00    +0.000 HD
ENDBRANCH   1  13
BRANCH   4  17
ATOM     17  C   UNL     1       2.772   6.892  19.779  0.00  0.00    +0.000 C 
BRANCH  17  18
ATOM     18  C   UNL     1       2.210   8.030  18.990  0.00  0.00    +0.000 A 
ATOM     19  N   UNL     1       2.615   8.495  17.826  0.00  0.00    +0.000 NA
ATOM     20  N   UNL     1       1.676   9.428  17.437  0.00  0.00    +0.000 NA
ATOM     21  C   UNL     1       0.765   9.473  18.390  0.00  0.00    +0.000 A 
ATOM     22  O   UNL     1       1.049   8.617  19.427  0.00  0.00    +0.000 OA
BRANCH  21  23
ATOM     23  C   UNL     1      -0.468  10.243  18.453  0.00  0.00    +0.000 A 
ATOM     24  C   UNL     1      -1.492  10.104  17.504  0.00  0.00    +0.000 A 
ATOM     25  C   UNL     1      -2.677  10.843  17.614  0.00  0.00    +0.000 A 
ATOM     26  C   UNL     1      -2.844  11.735  18.672  0.00  0.00    +0.000 A 
ATOM     27  C   UNL     1      -1.824  11.889  19.601  0.00  0.00    +0.000 A 
ATOM     28  F   UNL     1      -1.978  12.755  20.611  0.00  0.00    +0.000 F 
ATOM     29  C   UNL     1      -0.645  11.158  19.502  0.00  0.00    +0.000 A 
ENDBRANCH  21  23
ENDBRANCH  17  18
ENDBRANCH   4  17
TORSDOF 5
ENDMDL
