MODEL 1
REMARK VINA RESULT:      -8.4      0.000      0.000
REMARK  Name = 
REMARK  3 active torsions:
REMARK  status: ('A' for Active; 'I' for Inactive)
REMARK    1  A    between atoms: C_2  and  C_19
REMARK    2  A    between atoms: N_3  and  C_4
REMARK    3  A    between atoms: N_22  and  C_23
REMARK                            x       y       z     vdW  Elec       q    Type
REMARK                         _______ _______ _______ _____ _____    ______ ____
ROOT
ATOM      1  O   UNL     1       4.002   5.597  19.716  0.00  0.00    +0.000 OA
ATOM      2  C   UNL     1       3.785   5.898  18.548  0.00  0.00    +0.000 C 
ATOM      3  N   UNL     1       2.950   6.914  18.117  0.00  0.00    +0.000 N 
ATOM      4  H   UNL     1       2.753   6.965  17.128  0.00  0.00    +0.000 HD
ENDROOT
BRANCH   3   5
ATOM      5  C   UNL     1       2.218   7.793  18.944  0.00  0.00    +0.000 A 
ATOM      6  C   UNL     1       1.830   7.461  20.252  0.00  0.00    +0.000 A 
ATOM      7  C   UNL     1       1.073   8.336  21.050  0.00  0.00    +0.000 A 
ATOM      8  C   UNL     1       0.697   9.562  20.499  0.00  0.00    +0.000 A 
ATOM      9  N   UNL     1      -0.044  10.597  21.006  0.00  0.00    +0.000 NA
ATOM     10  C   UNL     1      -0.068  11.478  20.028  0.00  0.00    +0.000 A 
ATOM     11  N   UNL     1      -0.625  12.700  20.002  0.00  0.00    +0.000 N 
ATOM     12  C   UNL     1      -0.644  13.524  18.800  0.00  0.00    +0.000 C 
ATOM     13  C   UNL     1      -0.344  14.977  19.197  0.00  0.00    +0.000 C 
ATOM     14  O   UNL     1      -1.252  15.448  20.208  0.00  0.00    +0.000 OA
ATOM     15  C   UNL     1      -1.179  14.622  21.386  0.00  0.00    +0.000 C 
ATOM     16  C   UNL     1      -1.513  13.154  21.068  0.00  0.00    +0.000 C 
ATOM     17  O   UNL     1       0.617  11.091  18.905  0.00  0.00    +0.000 OA
ATOM     18  C   UNL     1       1.107   9.863  19.215  0.00  0.00    +0.000 A 
ATOM     19  C   UNL     1       1.879   9.041  18.401  0.00  0.00    +0.000 A 
ENDBRANCH   3   5
BRANCH   2  20
ATOM     20  C   UNL     1       4.389   5.117  17.486  0.00  0.00    +0.000 A 
ATOM     21  C   UNL     1       4.556   3.716  17.465  0.00  0.00    +0.000 A 
ATOM     22  N   UNL     1       5.119   3.279  16.341  0.00  0.00    +0.000 NA
ATOM     23  N   UNL     1       5.382   4.404  15.632  0.00  0.00    +0.000 N 
ATOM     24  C   UNL     1       4.940   5.529  16.294  0.00  0.00    +0.000 A 
BRANCH  23  25
ATOM     25  C   UNL     1       6.040   4.353  14.375  0.00  0.00    +0.000 A 
ATOM     26  C   UNL     1       5.571   3.478  13.385  0.00  0.00    +0.000 A 
ATOM     27  C   UNL     1       6.217   3.413  12.150  0.00  0.00    +0.000 A 
ATOM     28  C   UNL     1       7.335   4.207  11.904  0.00  0.00    +0.000 A 
ATOM     29  C   UNL     1       7.806   5.077  12.888  0.00  0.00    +0.000 A 
ATOM     30  C   UNL     1       7.159   5.154  14.120  0.00  0.00    +0.000 A 
ENDBRANCH  23  25
ENDBRANCH   2  20
TORSDOF 3
ENDMDL
MODEL 2
REMARK VINA RESULT:      -8.2      3.182      4.429
REMARK  Name = 
REMARK  3 active torsions:
REMARK  status: ('A' for Active; 'I' for Inactive)
REMARK    1  A    between atoms: C_2  and  C_19
REMARK    2  A    between atoms: N_3  and  C_4
REMARK    3  A    between atoms: N_22  and  C_23
REMARK                            x       y       z     vdW  Elec       q    Type
REMARK                         _______ _______ _______ _____ _____    ______ ____
ROOT
ATOM      1  O   UNL     1       1.892  10.140  17.506  0.00  0.00    +0.000 OA
ATOM      2  C   UNL     1       1.696   9.222  18.295  0.00  0.00    +0.000 C 
ATOM      3  N   UNL     1       0.731   9.201  19.286  0.00  0.00    +0.000 N 
ATOM      4  H   UNL     1       0.769   8.444  19.954  0.00  0.00    +0.000 HD
ENDROOT
BRANCH   3   5
ATOM      5  C   UNL     1      -0.209  10.219  19.552  0.00  0.00    +0.000 A 
ATOM      6  C   UNL     1       0.018  11.236  20.494  0.00  0.00    +0.000 A 
ATOM      7  C   UNL     1      -0.943  12.224  20.770  0.00  0.00    +0.000 A 
ATOM      8  C   UNL     1      -2.156  12.165  20.083  0.00  0.00    +0.000 A 
ATOM      9  N   UNL     1      -3.275  12.954  20.146  0.00  0.00    +0.000 NA
ATOM     10  C   UNL     1      -4.096  12.409  19.272  0.00  0.00    +0.000 A 
ATOM     11  N   UNL     1      -5.325  12.806  18.902  0.00  0.00    +0.000 N 
ATOM     12  C   UNL     1      -6.149  12.035  17.980  0.00  0.00    +0.000 C 
ATOM     13  C   UNL     1      -6.845  13.006  17.015  0.00  0.00    +0.000 C 
ATOM     14  O   UNL     1      -7.592  14.011  17.722  0.00  0.00    +0.000 OA
ATOM     15  C   UNL     1      -6.732  14.765  18.598  0.00  0.00    +0.000 C 
ATOM     16  C   UNL     1      -6.034  13.857  19.624  0.00  0.00    +0.000 C 
ATOM     17  O   UNL     1      -3.586  11.309  18.632  0.00  0.00    +0.000 OA
ATOM     18  C   UNL     1      -2.341  11.161  19.154  0.00  0.00    +0.000 A 
ATOM     19  C   UNL     1      -1.410  10.181  18.829  0.00  0.00    +0.000 A 
ENDBRANCH   3   5
BRANCH   2  20
ATOM     20  C   UNL     1       2.560   8.058  18.263  0.00  0.00    +0.000 A 
ATOM     21  C   UNL     1       2.535   6.969  19.158  0.00  0.00    +0.000 A 
ATOM     22  N   UNL     1       3.432   6.032  18.859  0.00  0.00    +0.000 NA
ATOM     23  N   UNL     1       4.099   6.528  17.788  0.00  0.00    +0.000 N 
ATOM     24  C   UNL     1       3.585   7.746  17.398  0.00  0.00    +0.000 A 
BRANCH  23  25
ATOM     25  C   UNL     1       5.186   5.830  17.201  0.00  0.00    +0.000 A 
ATOM     26  C   UNL     1       5.186   5.589  15.819  0.00  0.00    +0.000 A 
ATOM     27  C   UNL     1       6.244   4.895  15.233  0.00  0.00    +0.000 A 
ATOM     28  C   UNL     1       7.295   4.428  16.020  0.00  0.00    +0.000 A 
ATOM     29  C   UNL     1       7.297   4.663  17.395  0.00  0.00    +0.000 A 
ATOM     30  C   UNL     1       6.248   5.365  17.986  0.00  0.00    +0.000 A 
ENDBRANCH  23  25
ENDBRANCH   2  20
TORSDOF 3
ENDMDL
MODEL 3
REMARK VINA RESULT:      -8.1      2.439      4.219
REMARK  Name = 
REMARK  3 active torsions:
REMARK  status: ('A' for Active; 'I' for Inactive)
REMARK    1  A    between atoms: C_2  and  C_19
REMARK    2  A    between atoms: N_3  and  C_4
REMARK    3  A    between atoms: N_22  and  C_23
REMARK                            x       y       z     vdW  Elec       q    Type
REMARK                         _______ _______ _______ _____ _____    ______ ____
ROOT
ATOM      1  O   UNL     1       1.546   9.849  17.481  0.00  0.00    +0.000 OA
ATOM      2  C   UNL     1       1.547   9.091  18.445  0.00  0.00    +0.000 C 
ATOM      3  N   UNL     1       0.782   9.237  19.588  0.00  0.00    +0.000 N 
ATOM      4  H   UNL     1       0.981   8.620  20.362  0.00  0.00    +0.000 HD
ENDROOT
BRANCH   3   5
ATOM      5  C   UNL     1      -0.147  10.270  19.839  0.00  0.00    +0.000 A 
ATOM      6  C   UNL     1      -1.143  10.637  18.920  0.00  0.00    +0.000 A 
ATOM      7  C   UNL     1      -2.039  11.691  19.172  0.00  0.00    +0.000 A 
ATOM      8  C   UNL     1      -1.906  12.387  20.374  0.00  0.00    +0.000 A 
ATOM      9  N   UNL     1      -2.597  13.453  20.888  0.00  0.00    +0.000 NA
ATOM     10  C   UNL     1      -2.019  13.675  22.049  0.00  0.00    +0.000 A 
ATOM     11  N   UNL     1      -2.327  14.584  22.989  0.00  0.00    +0.000 N 
ATOM     12  C   UNL     1      -1.525  14.765  24.193  0.00  0.00    +0.000 C 
ATOM     13  C   UNL     1      -2.470  14.968  25.386  0.00  0.00    +0.000 C 
ATOM     14  O   UNL     1      -3.384  16.055  25.158  0.00  0.00    +0.000 OA
ATOM     15  C   UNL     1      -4.174  15.819  23.977  0.00  0.00    +0.000 C 
ATOM     16  C   UNL     1      -3.289  15.650  22.730  0.00  0.00    +0.000 C 
ATOM     17  O   UNL     1      -0.989  12.817  22.338  0.00  0.00    +0.000 OA
ATOM     18  C   UNL     1      -0.924  11.993  21.261  0.00  0.00    +0.000 A 
ATOM     19  C   UNL     1      -0.036  10.941  21.066  0.00  0.00    +0.000 A 
ENDBRANCH   3   5
BRANCH   2  20
ATOM     20  C   UNL     1       2.451   7.957  18.459  0.00  0.00    +0.000 A 
ATOM     21  C   UNL     1       2.481   6.920  19.415  0.00  0.00    +0.000 A 
ATOM     22  N   UNL     1       3.405   5.999  19.149  0.00  0.00    +0.000 NA
ATOM     23  N   UNL     1       4.034   6.457  18.039  0.00  0.00    +0.000 N 
ATOM     24  C   UNL     1       3.470   7.633  17.593  0.00  0.00    +0.000 A 
BRANCH  23  25
ATOM     25  C   UNL     1       5.134   5.765  17.469  0.00  0.00    +0.000 A 
ATOM     26  C   UNL     1       5.075   5.362  16.127  0.00  0.00    +0.000 A 
ATOM     27  C   UNL     1       6.146   4.672  15.559  0.00  0.00    +0.000 A 
ATOM     28  C   UNL     1       7.269   4.369  16.328  0.00  0.00    +0.000 A 
ATOM     29  C   UNL     1       7.329   4.766  17.664  0.00  0.00    +0.000 A 
ATOM     30  C   UNL     1       6.267   5.465  18.234  0.00  0.00    +0.000 A 
ENDBRANCH  23  25
ENDBRANCH   2  20
TORSDOF 3
ENDMDL
MODEL 4
REMARK VINA RESULT:      -8.1      3.461      4.676
REMARK  Name = 
REMARK  3 active torsions:
REMARK  status: ('A' for Active; 'I' for Inactive)
REMARK    1  A    between atoms: C_2  and  C_19
REMARK    2  A    between atoms: N_3  and  C_4
REMARK    3  A    between atoms: N_22  and  C_23
REMARK                            x       y       z     vdW  Elec       q    Type
REMARK                         _______ _______ _______ _____ _____    ______ ____
ROOT
ATOM      1  O   UNL     1       2.090  10.045  17.432  0.00  0.00    +0.000 OA
ATOM      2  C   UNL     1       1.941   9.149  18.256  0.00  0.00    +0.000 C 
ATOM      3  N   UNL     1       1.197   9.236  19.419  0.00  0.00    +0.000 N 
ATOM      4  H   UNL     1       1.272   8.472  20.075  0.00  0.00    +0.000 HD
ENDROOT
BRANCH   3   5
ATOM      5  C   UNL     1       0.463  10.360  19.853  0.00  0.00    +0.000 A 
ATOM      6  C   UNL     1       1.017  11.362  20.667  0.00  0.00    +0.000 A 
ATOM      7  C   UNL     1       0.262  12.459  21.117  0.00  0.00    +0.000 A 
ATOM      8  C   UNL     1      -1.080  12.526  20.742  0.00  0.00    +0.000 A 
ATOM      9  N   UNL     1      -2.060  13.438  21.032  0.00  0.00    +0.000 NA
ATOM     10  C   UNL     1      -3.120  12.974  20.404  0.00  0.00    +0.000 A 
ATOM     11  N   UNL     1      -4.353  13.502  20.319  0.00  0.00    +0.000 N 
ATOM     12  C   UNL     1      -5.453  12.813  19.656  0.00  0.00    +0.000 C 
ATOM     13  C   UNL     1      -6.253  13.838  18.839  0.00  0.00    +0.000 C 
ATOM     14  O   UNL     1      -6.697  14.936  19.657  0.00  0.00    +0.000 OA
ATOM     15  C   UNL     1      -5.575  15.604  20.267  0.00  0.00    +0.000 C 
ATOM     16  C   UNL     1      -4.751  14.641  21.140  0.00  0.00    +0.000 C 
ATOM     17  O   UNL     1      -2.900  11.812  19.712  0.00  0.00    +0.000 OA
ATOM     18  C   UNL     1      -1.589  11.532  19.930  0.00  0.00    +0.000 A 
ATOM     19  C   UNL     1      -0.874  10.445  19.439  0.00  0.00    +0.000 A 
ENDBRANCH   3   5
BRANCH   2  20
ATOM     20  C   UNL     1       2.630   7.887  18.067  0.00  0.00    +0.000 A 
ATOM     21  C   UNL     1       3.829   7.684  17.353  0.00  0.00    +0.000 A 
ATOM     22  N   UNL     1       4.236   6.416  17.377  0.00  0.00    +0.000 NA
ATOM     23  N   UNL     1       3.270   5.760  18.064  0.00  0.00    +0.000 N 
ATOM     24  C   UNL     1       2.293   6.626  18.505  0.00  0.00    +0.000 A 
BRANCH  23  25
ATOM     25  C   UNL     1       3.320   4.356  18.260  0.00  0.00    +0.000 A 
ATOM     26  C   UNL     1       2.445   3.526  17.544  0.00  0.00    +0.000 A 
ATOM     27  C   UNL     1       2.479   2.145  17.736  0.00  0.00    +0.000 A 
ATOM     28  C   UNL     1       3.374   1.589  18.649  0.00  0.00    +0.000 A 
ATOM     29  C   UNL     1       4.245   2.411  19.365  0.00  0.00    +0.000 A 
ATOM     30  C   UNL     1       4.222   3.791  19.170  0.00  0.00    +0.000 A 
ENDBRANCH  23  25
ENDBRANCH   2  20
TORSDOF 3
ENDMDL
MODEL 5
REMARK VINA RESULT:      -8.0      3.448      4.725
REMARK  Name = 
REMARK  3 active torsions:
REMARK  status: ('A' for Active; 'I' for Inactive)
REMARK    1  A    between atoms: C_2  and  C_19
REMARK    2  A    between atoms: N_3  and  C_4
REMARK    3  A    between atoms: N_22  and  C_23
REMARK                            x       y       z     vdW  Elec       q    Type
REMARK                         _______ _______ _______ _____ _____    ______ ____
ROOT
ATOM      1  O   UNL     1       2.291  10.224  17.645  0.00  0.00    +0.000 OA
ATOM      2  C   UNL     1       1.831   9.205  18.147  0.00  0.00    +0.000 C 
ATOM      3  N   UNL     1       0.672   9.125  18.899  0.00  0.00    +0.000 N 
ATOM      4  H   UNL     1       0.482   8.252  19.368  0.00  0.00    +0.000 HD
ENDROOT
BRANCH   3   5
ATOM      5  C   UNL     1      -0.195  10.196  19.202  0.00  0.00    +0.000 A 
ATOM      6  C   UNL     1      -1.150  10.683  18.294  0.00  0.00    +0.000 A 
ATOM      7  C   UNL     1      -1.983  11.773  18.601  0.00  0.00    +0.000 A 
ATOM      8  C   UNL     1      -1.830  12.381  19.848  0.00  0.00    +0.000 A 
ATOM      9  N   UNL     1      -2.464  13.453  20.419  0.00  0.00    +0.000 NA
ATOM     10  C   UNL     1      -1.894  13.564  21.601  0.00  0.00    +0.000 A 
ATOM     11  N   UNL     1      -2.164  14.429  22.594  0.00  0.00    +0.000 N 
ATOM     12  C   UNL     1      -1.375  14.482  23.818  0.00  0.00    +0.000 C 
ATOM     13  C   UNL     1      -2.327  14.667  25.008  0.00  0.00    +0.000 C 
ATOM     14  O   UNL     1      -3.168  15.822  24.838  0.00  0.00    +0.000 OA
ATOM     15  C   UNL     1      -3.949  15.712  23.632  0.00  0.00    +0.000 C 
ATOM     16  C   UNL     1      -3.053  15.567  22.390  0.00  0.00    +0.000 C 
ATOM     17  O   UNL     1      -0.925  12.627  21.849  0.00  0.00    +0.000 OA
ATOM     18  C   UNL     1      -0.891  11.870  20.721  0.00  0.00    +0.000 A 
ATOM     19  C   UNL     1      -0.066  10.779  20.472  0.00  0.00    +0.000 A 
ENDBRANCH   3   5
BRANCH   2  20
ATOM     20  C   UNL     1       2.558   7.957  18.018  0.00  0.00    +0.000 A 
ATOM     21  C   UNL     1       3.800   7.771  17.375  0.00  0.00    +0.000 A 
ATOM     22  N   UNL     1       4.234   6.514  17.442  0.00  0.00    +0.000 NA
ATOM     23  N   UNL     1       3.245   5.846  18.084  0.00  0.00    +0.000 N 
ATOM     24  C   UNL     1       2.225   6.694  18.455  0.00  0.00    +0.000 A 
BRANCH  23  25
ATOM     25  C   UNL     1       3.317   4.446  18.304  0.00  0.00    +0.000 A 
ATOM     26  C   UNL     1       2.538   3.582  17.520  0.00  0.00    +0.000 A 
ATOM     27  C   UNL     1       2.593   2.205  17.735  0.00  0.00    +0.000 A 
ATOM     28  C   UNL     1       3.411   1.687  18.737  0.00  0.00    +0.000 A 
ATOM     29  C   UNL     1       4.185   2.543  19.521  0.00  0.00    +0.000 A 
ATOM     30  C   UNL     1       4.142   3.919  19.304  0.00  0.00    +0.000 A 
ENDBRANCH  23  25
ENDBRANCH   2  20
TORSDOF 3
ENDMDL
MODEL 6
REMARK VINA RESULT:      -8.0      2.775      4.893
REMARK  Name = 
REMARK  3 active torsions:
REMARK  status: ('A' for Active; 'I' for Inactive)
REMARK    1  A    between atoms: C_2  and  C_19
REMARK    2  A    between atoms: N_3  and  C_4
REMARK    3  A    between atoms: N_22  and  C_23
REMARK                            x       y       z     vdW  Elec       q    Type
REMARK                         _______ _______ _______ _____ _____    ______ ____
ROOT
ATOM      1  O   UNL     1       0.498   9.905  18.255  0.00  0.00    +0.000 OA
ATOM      2  C   UNL     1       1.086   9.414  19.213  0.00  0.00    +0.000 C 
ATOM      3  N   UNL     1       1.097   9.921  20.500  0.00  0.00    +0.000 N 
ATOM      4  H   UNL     1       1.732   9.496  21.160  0.00  0.00    +0.000 HD
ENDROOT
BRANCH   3   5
ATOM      5  C   UNL     1       0.420  11.077  20.943  0.00  0.00    +0.000 A 
ATOM      6  C   UNL     1       0.962  12.368  20.825  0.00  0.00    +0.000 A 
ATOM      7  C   UNL     1       0.288  13.505  21.301  0.00  0.00    +0.000 A 
ATOM      8  C   UNL     1      -0.950  13.321  21.918  0.00  0.00    +0.000 A 
ATOM      9  N   UNL     1      -1.821  14.210  22.491  0.00  0.00    +0.000 NA
ATOM     10  C   UNL     1      -2.814  13.454  22.910  0.00  0.00    +0.000 A 
ATOM     11  N   UNL     1      -3.959  13.817  23.512  0.00  0.00    +0.000 N 
ATOM     12  C   UNL     1      -4.927  12.843  24.001  0.00  0.00    +0.000 C 
ATOM     13  C   UNL     1      -6.339  13.343  23.665  0.00  0.00    +0.000 C 
ATOM     14  O   UNL     1      -6.570  14.665  24.185  0.00  0.00    +0.000 OA
ATOM     15  C   UNL     1      -5.610  15.598  23.652  0.00  0.00    +0.000 C 
ATOM     16  C   UNL     1      -4.168  15.180  23.990  0.00  0.00    +0.000 C 
ATOM     17  O   UNL     1      -2.656  12.119  22.645  0.00  0.00    +0.000 OA
ATOM     18  C   UNL     1      -1.460  12.041  22.006  0.00  0.00    +0.000 A 
ATOM     19  C   UNL     1      -0.843  10.891  21.525  0.00  0.00    +0.000 A 
ENDBRANCH   3   5
BRANCH   2  20
ATOM     20  C   UNL     1       1.899   8.229  19.019  0.00  0.00    +0.000 A 
ATOM     21  C   UNL     1       2.190   7.244  19.984  0.00  0.00    +0.000 A 
ATOM     22  N   UNL     1       2.941   6.255  19.504  0.00  0.00    +0.000 NA
ATOM     23  N   UNL     1       3.200   6.615  18.223  0.00  0.00    +0.000 N 
ATOM     24  C   UNL     1       2.572   7.797  17.898  0.00  0.00    +0.000 A 
BRANCH  23  25
ATOM     25  C   UNL     1       4.029   5.826  17.383  0.00  0.00    +0.000 A 
ATOM     26  C   UNL     1       4.835   6.454  16.422  0.00  0.00    +0.000 A 
ATOM     27  C   UNL     1       5.646   5.688  15.585  0.00  0.00    +0.000 A 
ATOM     28  C   UNL     1       5.646   4.298  15.692  0.00  0.00    +0.000 A 
ATOM     29  C   UNL     1       4.843   3.670  16.645  0.00  0.00    +0.000 A 
ATOM     30  C   UNL     1       4.039   4.431  17.492  0.00  0.00    +0.000 A 
ENDBRANCH  23  25
ENDBRANCH   2  20
TORSDOF 3
ENDMDL
MODEL 7
REMARK VINA RESULT:      -7.9      2.150      2.900
REMARK  Name = 
REMARK  3 active torsions:
REMARK  status: ('A' for Active; 'I' for Inactive)
REMARK    1  A    between atoms: C_2  and  C_19
REMARK    2  A    between atoms: N_3  and  C_4
REMARK    3  A    between atoms: N_22  and  C_23
REMARK                            x       y       z     vdW  Elec       q    Type
REMARK                         _______ _______ _______ _____ _____    ______ ____
ROOT
ATOM      1  O   UNL     1       1.395   5.875  21.132  0.00  0.00    +0.000 OA
ATOM      2  C   UNL     1       1.817   6.521  20.179  0.00  0.00    +0.000 C 
ATOM      3  N   UNL     1       1.663   7.883  19.995  0.00  0.00    +0.000 N 
ATOM      4  H   UNL     1       1.938   8.264  19.101  0.00  0.00    +0.000 HD
ENDROOT
BRANCH   3   5
ATOM      5  C   UNL     1       1.013   8.772  20.878  0.00  0.00    +0.000 A 
ATOM      6  C   UNL     1       1.138   8.683  22.275  0.00  0.00    +0.000 A 
ATOM      7  C   UNL     1       0.458   9.556  23.140  0.00  0.00    +0.000 A 
ATOM      8  C   UNL     1      -0.372  10.524  22.573  0.00  0.00    +0.000 A 
ATOM      9  N   UNL     1      -1.167  11.485  23.140  0.00  0.00    +0.000 NA
ATOM     10  C   UNL     1      -1.713  12.093  22.108  0.00  0.00    +0.000 A 
ATOM     11  N   UNL     1      -2.550  13.144  22.089  0.00  0.00    +0.000 N 
ATOM     12  C   UNL     1      -3.144  13.647  20.857  0.00  0.00    +0.000 C 
ATOM     13  C   UNL     1      -3.127  15.182  20.895  0.00  0.00    +0.000 C 
ATOM     14  O   UNL     1      -3.777  15.690  22.073  0.00  0.00    +0.000 OA
ATOM     15  C   UNL     1      -3.139  15.190  23.264  0.00  0.00    +0.000 C 
ATOM     16  C   UNL     1      -3.160  13.652  23.314  0.00  0.00    +0.000 C 
ATOM     17  O   UNL     1      -1.324  11.596  20.891  0.00  0.00    +0.000 OA
ATOM     18  C   UNL     1      -0.462  10.592  21.197  0.00  0.00    +0.000 A 
ATOM     19  C   UNL     1       0.214   9.769  20.302  0.00  0.00    +0.000 A 
ENDBRANCH   3   5
BRANCH   2  20
ATOM     20  C   UNL     1       2.495   5.834  19.097  0.00  0.00    +0.000 A 
ATOM     21  C   UNL     1       1.994   4.751  18.345  0.00  0.00    +0.000 A 
ATOM     22  N   UNL     1       2.835   4.347  17.396  0.00  0.00    +0.000 NA
ATOM     23  N   UNL     1       3.930   5.131  17.554  0.00  0.00    +0.000 N 
ATOM     24  C   UNL     1       3.748   6.047  18.567  0.00  0.00    +0.000 A 
BRANCH  23  25
ATOM     25  C   UNL     1       5.085   4.965  16.746  0.00  0.00    +0.000 A 
ATOM     26  C   UNL     1       6.337   4.802  17.357  0.00  0.00    +0.000 A 
ATOM     27  C   UNL     1       7.480   4.649  16.572  0.00  0.00    +0.000 A 
ATOM     28  C   UNL     1       7.382   4.671  15.182  0.00  0.00    +0.000 A 
ATOM     29  C   UNL     1       6.138   4.836  14.572  0.00  0.00    +0.000 A 
ATOM     30  C   UNL     1       4.991   4.979  15.350  0.00  0.00    +0.000 A 
ENDBRANCH  23  25
ENDBRANCH   2  20
TORSDOF 3
ENDMDL
MODEL 8
REMARK VINA RESULT:      -7.9      2.706      4.090
REMARK  Name = 
REMARK  3 active torsions:
REMARK  status: ('A' for Active; 'I' for Inactive)
REMARK    1  A    between atoms: C_2  and  C_19
REMARK    2  A    between atoms: N_3  and  C_4
REMARK    3  A    between atoms: N_22  and  C_23
REMARK                            x       y       z     vdW  Elec       q    Type
REMARK                         _______ _______ _______ _____ _____    ______ ____
ROOT
ATOM      1  O   UNL     1       1.716   9.822  17.464  0.00  0.00    +0.000 OA
ATOM      2  C   UNL     1       1.771   9.054  18.418  0.00  0.00    +0.000 C 
ATOM      3  N   UNL     1       1.157   9.241  19.644  0.00  0.00    +0.000 N 
ATOM      4  H   UNL     1       1.398   8.601  20.386  0.00  0.00    +0.000 HD
ENDROOT
BRANCH   3   5
ATOM      5  C   UNL     1       0.344  10.337  20.005  0.00  0.00    +0.000 A 
ATOM      6  C   UNL     1       0.782  11.358  20.865  0.00  0.00    +0.000 A 
ATOM      7  C   UNL     1      -0.053  12.425  21.241  0.00  0.00    +0.000 A 
ATOM      8  C   UNL     1      -1.356  12.441  20.742  0.00  0.00    +0.000 A 
ATOM      9  N   UNL     1      -2.392  13.316  20.938  0.00  0.00    +0.000 NA
ATOM     10  C   UNL     1      -3.372  12.812  20.217  0.00  0.00    +0.000 A 
ATOM     11  N   UNL     1      -4.610  13.293  20.016  0.00  0.00    +0.000 N 
ATOM     12  C   UNL     1      -5.617  12.564  19.256  0.00  0.00    +0.000 C 
ATOM     13  C   UNL     1      -6.377  13.559  18.366  0.00  0.00    +0.000 C 
ATOM     14  O   UNL     1      -6.935  14.638  19.136  0.00  0.00    +0.000 OA
ATOM     15  C   UNL     1      -5.901  15.347  19.847  0.00  0.00    +0.000 C 
ATOM     16  C   UNL     1      -5.126  14.415  20.794  0.00  0.00    +0.000 C 
ATOM     17  O   UNL     1      -3.045  11.660  19.550  0.00  0.00    +0.000 OA
ATOM     18  C   UNL     1      -1.750  11.430  19.889  0.00  0.00    +0.000 A 
ATOM     19  C   UNL     1      -0.951  10.372  19.469  0.00  0.00    +0.000 A 
ENDBRANCH   3   5
BRANCH   2  20
ATOM     20  C   UNL     1       2.584   7.856  18.323  0.00  0.00    +0.000 A 
ATOM     21  C   UNL     1       2.489   6.710  19.139  0.00  0.00    +0.000 A 
ATOM     22  N   UNL     1       3.351   5.756  18.794  0.00  0.00    +0.000 NA
ATOM     23  N   UNL     1       4.066   6.295  17.776  0.00  0.00    +0.000 N 
ATOM     24  C   UNL     1       3.615   7.559  17.461  0.00  0.00    +0.000 A 
BRANCH  23  25
ATOM     25  C   UNL     1       5.134   5.590  17.164  0.00  0.00    +0.000 A 
ATOM     26  C   UNL     1       6.301   5.330  17.898  0.00  0.00    +0.000 A 
ATOM     27  C   UNL     1       7.361   4.646  17.303  0.00  0.00    +0.000 A 
ATOM     28  C   UNL     1       7.269   4.233  15.975  0.00  0.00    +0.000 A 
ATOM     29  C   UNL     1       6.111   4.493  15.241  0.00  0.00    +0.000 A 
ATOM     30  C   UNL     1       5.044   5.166  15.833  0.00  0.00    +0.000 A 
ENDBRANCH  23  25
ENDBRANCH   2  20
TORSDOF 3
ENDMDL
MODEL 9
REMARK VINA RESULT:      -7.9      3.246     12.028
REMARK  Name = 
REMARK  3 active torsions:
REMARK  status: ('A' for Active; 'I' for Inactive)
REMARK    1  A    between atoms: C_2  and  C_19
REMARK    2  A    between atoms: N_3  and  C_4
REMARK    3  A    between atoms: N_22  and  C_23
REMARK                            x       y       z     vdW  Elec       q    Type
REMARK                         _______ _______ _______ _____ _____    ______ ____
ROOT
ATOM      1  O   UNL     1      -0.091  10.669  22.908  0.00  0.00    +0.000 OA
ATOM      2  C   UNL     1      -0.737  11.399  22.164  0.00  0.00    +0.000 C 
ATOM      3  N   UNL     1      -0.591  11.485  20.791  0.00  0.00    +0.000 N 
ATOM      4  H   UNL     1      -1.089  12.226  20.317  0.00  0.00    +0.000 HD
ENDROOT
BRANCH   3   5
ATOM      5  C   UNL     1       0.310  10.738  20.003  0.00  0.00    +0.000 A 
ATOM      6  C   UNL     1       0.949  11.266  18.869  0.00  0.00    +0.000 A 
ATOM      7  C   UNL     1       1.818  10.497  18.077  0.00  0.00    +0.000 A 
ATOM      8  C   UNL     1       2.027   9.166  18.441  0.00  0.00    +0.000 A 
ATOM      9  N   UNL     1       2.784   8.177  17.870  0.00  0.00    +0.000 NA
ATOM     10  C   UNL     1       2.586   7.136  18.652  0.00  0.00    +0.000 A 
ATOM     11  N   UNL     1       3.121   5.906  18.576  0.00  0.00    +0.000 N 
ATOM     12  C   UNL     1       2.725   4.827  19.473  0.00  0.00    +0.000 C 
ATOM     13  C   UNL     1       3.982   4.049  19.889  0.00  0.00    +0.000 C 
ATOM     14  O   UNL     1       4.718   3.580  18.746  0.00  0.00    +0.000 OA
ATOM     15  C   UNL     1       5.112   4.682  17.905  0.00  0.00    +0.000 C 
ATOM     16  C   UNL     1       3.893   5.482  17.413  0.00  0.00    +0.000 C 
ATOM     17  O   UNL     1       1.746   7.378  19.708  0.00  0.00    +0.000 OA
ATOM     18  C   UNL     1       1.395   8.682  19.569  0.00  0.00    +0.000 A 
ATOM     19  C   UNL     1       0.550   9.413  20.397  0.00  0.00    +0.000 A 
ENDBRANCH   3   5
BRANCH   2  20
ATOM     20  C   UNL     1      -1.713  12.309  22.730  0.00  0.00    +0.000 A 
ATOM     21  C   UNL     1      -1.441  13.467  23.489  0.00  0.00    +0.000 A 
ATOM     22  N   UNL     1      -2.543  14.120  23.850  0.00  0.00    +0.000 NA
ATOM     23  N   UNL     1      -3.561  13.360  23.377  0.00  0.00    +0.000 N 
ATOM     24  C   UNL     1      -3.089  12.265  22.685  0.00  0.00    +0.000 A 
BRANCH  23  25
ATOM     25  C   UNL     1      -4.917  13.705  23.610  0.00  0.00    +0.000 A 
ATOM     26  C   UNL     1      -5.297  15.055  23.605  0.00  0.00    +0.000 A 
ATOM     27  C   UNL     1      -6.626  15.406  23.843  0.00  0.00    +0.000 A 
ATOM     28  C   UNL     1      -7.574  14.418  24.100  0.00  0.00    +0.000 A 
ATOM     29  C   UNL     1      -7.199  13.074  24.109  0.00  0.00    +0.000 A 
ATOM     30  C   UNL     1      -5.875  12.716  23.861  0.00  0.00    +0.000 A 
ENDBRANCH  23  25
ENDBRANCH   2  20
TORSDOF 3
ENDMDL
