MODEL 1
REMARK VINA RESULT:      -7.6      0.000      0.000
REMARK  Name = 
REMARK  5 active torsions:
REMARK  status: ('A' for Active; 'I' for Inactive)
REMARK    1  A    between atoms: C_1  and  N_2
REMARK    2  A    between atoms: N_2  and  C_3
REMARK    3  A    between atoms: C_7  and  N_8
REMARK    4  A    between atoms: C_12  and  C_13
REMARK    5  A    between atoms: N_27  and  C_28
REMARK                            x       y       z     vdW  Elec       q    Type
REMARK                         _______ _______ _______ _____ _____    ______ ____
ROOT
ATOM      1  C   UNL     1       2.010   6.864  19.365  0.00  0.00    +0.000 A 
ATOM      2  C   UNL     1       1.907   7.345  18.042  0.00  0.00    +0.000 A 
ATOM      3  C   UNL     1       1.895   8.706  17.756  0.00  0.00    +0.000 A 
ATOM      4  C   UNL     1       1.873   9.620  18.797  0.00  0.00    +0.000 A 
ATOM      5  C   UNL     1       1.701   9.169  20.112  0.00  0.00    +0.000 A 
ATOM      6  C   UNL     1       1.894   7.809  20.397  0.00  0.00    +0.000 A 
ENDROOT
BRANCH   5   7
ATOM      7  N   UNL     1       0.920   9.963  21.057  0.00  0.00    +0.000 N 
ATOM      8  C   UNL     1      -0.493   9.512  21.028  0.00  0.00    +0.000 C 
ATOM      9  C   UNL     1      -1.061  10.377  19.945  0.00  0.00    +0.000 A 
ATOM     10  C   UNL     1      -1.854  10.017  18.868  0.00  0.00    +0.000 A 
ATOM     11  C   UNL     1      -1.900  10.881  17.758  0.00  0.00    +0.000 A 
ATOM     12  C   UNL     1      -1.232  12.133  17.806  0.00  0.00    +0.000 A 
ATOM     13  C   UNL     1      -0.439  12.489  18.900  0.00  0.00    +0.000 A 
ATOM     14  C   UNL     1      -0.341  11.572  19.931  0.00  0.00    +0.000 A 
ATOM     15  C   UNL     1       0.862  11.364  20.777  0.00  0.00    +0.000 C 
ATOM     16  O   UNL     1       1.708  12.207  20.985  0.00  0.00    +0.000 OA
BRANCH  11  17
ATOM     17  C   UNL     1      -2.531  10.432  16.456  0.00  0.00    +0.000 C 
ATOM     18  F   UNL     1      -3.850  10.116  16.573  0.00  0.00    +0.000 F 
ATOM     19  F   UNL     1      -2.452  11.379  15.482  0.00  0.00    +0.000 F 
ATOM     20  F   UNL     1      -1.930   9.317  15.949  0.00  0.00    +0.000 F 
ENDBRANCH  11  17
ENDBRANCH   5   7
BRANCH   1  22
ATOM     21  C   UNL     1       1.255   4.819  20.486  0.00  0.00    +0.000 C 
ATOM     22  N   UNL     1       2.197   5.467  19.581  0.00  0.00    +0.000 N 
ATOM     23  C   UNL     1       3.482   4.973  19.458  0.00  0.00    +0.000 A 
ATOM     24  N   UNL     1       4.600   5.675  19.292  0.00  0.00    +0.000 NA
ATOM     25  N   UNL     1       5.671   4.829  19.197  0.00  0.00    +0.000 NA
ATOM     26  C   UNL     1       5.207   3.615  19.296  0.00  0.00    +0.000 A 
ATOM     27  N   UNL     1       3.851   3.645  19.452  0.00  0.00    +0.000 N 
ATOM     28  C   UNL     1       3.031   2.467  19.499  0.00  0.00    +0.000 C 
ENDBRANCH   1  22
TORSDOF 3
ENDMDL
MODEL 2
REMARK VINA RESULT:      -7.4      4.340      7.942
REMARK  Name = 
REMARK  5 active torsions:
REMARK  status: ('A' for Active; 'I' for Inactive)
REMARK    1  A    between atoms: C_1  and  N_2
REMARK    2  A    between atoms: N_2  and  C_3
REMARK    3  A    between atoms: C_7  and  N_8
REMARK    4  A    between atoms: C_12  and  C_13
REMARK    5  A    between atoms: N_27  and  C_28
REMARK                            x       y       z     vdW  Elec       q    Type
REMARK                         _______ _______ _______ _____ _____    ______ ____
ROOT
ATOM      1  C   UNL     1       2.187   6.491  19.657  0.00  0.00    +0.000 A 
ATOM      2  C   UNL     1       1.357   5.893  20.629  0.00  0.00    +0.000 A 
ATOM      3  C   UNL     1       1.684   4.679  21.225  0.00  0.00    +0.000 A 
ATOM      4  C   UNL     1       2.795   3.981  20.783  0.00  0.00    +0.000 A 
ATOM      5  C   UNL     1       3.479   4.418  19.641  0.00  0.00    +0.000 A 
ATOM      6  C   UNL     1       3.253   5.718  19.166  0.00  0.00    +0.000 A 
ENDROOT
BRANCH   5   7
ATOM      7  N   UNL     1       4.051   3.441  18.717  0.00  0.00    +0.000 N 
ATOM      8  C   UNL     1       5.516   3.361  18.933  0.00  0.00    +0.000 C 
ATOM      9  C   UNL     1       6.014   4.423  18.002  0.00  0.00    +0.000 A 
ATOM     10  C   UNL     1       6.931   5.433  18.244  0.00  0.00    +0.000 A 
ATOM     11  C   UNL     1       6.917   6.559  17.398  0.00  0.00    +0.000 A 
ATOM     12  C   UNL     1       6.054   6.589  16.271  0.00  0.00    +0.000 A 
ATOM     13  C   UNL     1       5.137   5.562  16.035  0.00  0.00    +0.000 A 
ATOM     14  C   UNL     1       5.114   4.517  16.941  0.00  0.00    +0.000 A 
ATOM     15  C   UNL     1       3.902   3.752  17.330  0.00  0.00    +0.000 C 
ATOM     16  O   UNL     1       2.918   3.624  16.633  0.00  0.00    +0.000 OA
BRANCH  11  17
ATOM     17  C   UNL     1       7.705   7.802  17.757  0.00  0.00    +0.000 C 
ATOM     18  F   UNL     1       6.922   8.887  18.013  0.00  0.00    +0.000 F 
ATOM     19  F   UNL     1       8.483   7.628  18.859  0.00  0.00    +0.000 F 
ATOM     20  F   UNL     1       8.548   8.186  16.756  0.00  0.00    +0.000 F 
ENDBRANCH  11  17
ENDBRANCH   5   7
BRANCH   1  22
ATOM     21  C   UNL     1       2.577   8.261  18.007  0.00  0.00    +0.000 C 
ATOM     22  N   UNL     1       1.891   7.814  19.214  0.00  0.00    +0.000 N 
ATOM     23  C   UNL     1       1.519   8.735  20.175  0.00  0.00    +0.000 A 
ATOM     24  N   UNL     1       1.532   8.569  21.494  0.00  0.00    +0.000 NA
ATOM     25  N   UNL     1       1.078   9.704  22.111  0.00  0.00    +0.000 NA
ATOM     26  C   UNL     1       0.780  10.554  21.169  0.00  0.00    +0.000 A 
ATOM     27  N   UNL     1       1.027  10.003  19.945  0.00  0.00    +0.000 N 
ATOM     28  C   UNL     1       0.718  10.653  18.703  0.00  0.00    +0.000 C 
ENDBRANCH   1  22
TORSDOF 3
ENDMDL
MODEL 3
REMARK VINA RESULT:      -7.3      3.878      7.820
REMARK  Name = 
REMARK  5 active torsions:
REMARK  status: ('A' for Active; 'I' for Inactive)
REMARK    1  A    between atoms: C_1  and  N_2
REMARK    2  A    between atoms: N_2  and  C_3
REMARK    3  A    between atoms: C_7  and  N_8
REMARK    4  A    between atoms: C_12  and  C_13
REMARK    5  A    between atoms: N_27  and  C_28
REMARK                            x       y       z     vdW  Elec       q    Type
REMARK                         _______ _______ _______ _____ _____    ______ ____
ROOT
ATOM      1  C   UNL     1       1.544   8.508  19.940  0.00  0.00    +0.000 A 
ATOM      2  C   UNL     1       2.058   8.851  18.671  0.00  0.00    +0.000 A 
ATOM      3  C   UNL     1       2.495   7.884  17.771  0.00  0.00    +0.000 A 
ATOM      4  C   UNL     1       2.531   6.556  18.163  0.00  0.00    +0.000 A 
ATOM      5  C   UNL     1       2.284   6.222  19.501  0.00  0.00    +0.000 A 
ATOM      6  C   UNL     1       1.678   7.168  20.340  0.00  0.00    +0.000 A 
ENDROOT
BRANCH   5   7
ATOM      7  N   UNL     1       3.021   5.126  20.125  0.00  0.00    +0.000 N 
ATOM      8  C   UNL     1       4.475   5.335  19.923  0.00  0.00    +0.000 C 
ATOM      9  C   UNL     1       4.698   4.641  18.614  0.00  0.00    +0.000 A 
ATOM     10  C   UNL     1       5.382   5.090  17.495  0.00  0.00    +0.000 A 
ATOM     11  C   UNL     1       5.094   4.489  16.255  0.00  0.00    +0.000 A 
ATOM     12  C   UNL     1       4.207   3.383  16.192  0.00  0.00    +0.000 A 
ATOM     13  C   UNL     1       3.526   2.935  17.328  0.00  0.00    +0.000 A 
ATOM     14  C   UNL     1       3.762   3.613  18.511  0.00  0.00    +0.000 A 
ATOM     15  C   UNL     1       2.759   3.828  19.585  0.00  0.00    +0.000 C 
ATOM     16  O   UNL     1       1.803   3.110  19.785  0.00  0.00    +0.000 OA
BRANCH  11  17
ATOM     17  C   UNL     1       5.606   5.098  14.966  0.00  0.00    +0.000 C 
ATOM     18  F   UNL     1       5.232   4.407  13.853  0.00  0.00    +0.000 F 
ATOM     19  F   UNL     1       5.174   6.375  14.783  0.00  0.00    +0.000 F 
ATOM     20  F   UNL     1       6.969   5.150  14.926  0.00  0.00    +0.000 F 
ENDBRANCH  11  17
ENDBRANCH   5   7
BRANCH   1  22
ATOM     21  C   UNL     1       1.002   9.324  22.186  0.00  0.00    +0.000 C 
ATOM     22  N   UNL     1       0.949   9.525  20.743  0.00  0.00    +0.000 N 
ATOM     23  C   UNL     1      -0.093  10.244  20.187  0.00  0.00    +0.000 A 
ATOM     24  N   UNL     1      -0.701  10.009  19.028  0.00  0.00    +0.000 NA
ATOM     25  N   UNL     1      -1.675  10.947  18.815  0.00  0.00    +0.000 NA
ATOM     26  C   UNL     1      -1.652  11.756  19.837  0.00  0.00    +0.000 A 
ATOM     27  N   UNL     1      -0.682  11.372  20.717  0.00  0.00    +0.000 N 
ATOM     28  C   UNL     1      -0.345  12.110  21.901  0.00  0.00    +0.000 C 
ENDBRANCH   1  22
TORSDOF 3
ENDMDL
MODEL 4
REMARK VINA RESULT:      -7.2      4.165      7.972
REMARK  Name = 
REMARK  5 active torsions:
REMARK  status: ('A' for Active; 'I' for Inactive)
REMARK    1  A    between atoms: C_1  and  N_2
REMARK    2  A    between atoms: N_2  and  C_3
REMARK    3  A    between atoms: C_7  and  N_8
REMARK    4  A    between atoms: C_12  and  C_13
REMARK    5  A    between atoms: N_27  and  C_28
REMARK                            x       y       z     vdW  Elec       q    Type
REMARK                         _______ _______ _______ _____ _____    ______ ____
ROOT
ATOM      1  C   UNL     1       1.431   8.434  19.765  0.00  0.00    +0.000 A 
ATOM      2  C   UNL     1       2.223   8.902  18.694  0.00  0.00    +0.000 A 
ATOM      3  C   UNL     1       2.628   8.064  17.660  0.00  0.00    +0.000 A 
ATOM      4  C   UNL     1       2.341   6.711  17.729  0.00  0.00    +0.000 A 
ATOM      5  C   UNL     1       1.796   6.177  18.904  0.00  0.00    +0.000 A 
ATOM      6  C   UNL     1       1.236   7.045  19.852  0.00  0.00    +0.000 A 
ENDROOT
BRANCH   5   7
ATOM      7  N   UNL     1       2.188   4.841  19.346  0.00  0.00    +0.000 N 
ATOM      8  C   UNL     1       3.378   4.944  20.225  0.00  0.00    +0.000 C 
ATOM      9  C   UNL     1       4.493   4.861  19.229  0.00  0.00    +0.000 A 
ATOM     10  C   UNL     1       5.617   5.664  19.110  0.00  0.00    +0.000 A 
ATOM     11  C   UNL     1       6.283   5.694  17.870  0.00  0.00    +0.000 A 
ATOM     12  C   UNL     1       5.865   4.836  16.819  0.00  0.00    +0.000 A 
ATOM     13  C   UNL     1       4.734   4.027  16.952  0.00  0.00    +0.000 A 
ATOM     14  C   UNL     1       4.048   4.095  18.152  0.00  0.00    +0.000 A 
ATOM     15  C   UNL     1       2.579   3.943  18.304  0.00  0.00    +0.000 C 
ATOM     16  O   UNL     1       1.870   3.327  17.538  0.00  0.00    +0.000 OA
BRANCH  11  17
ATOM     17  C   UNL     1       7.349   6.734  17.592  0.00  0.00    +0.000 C 
ATOM     18  F   UNL     1       8.329   6.773  18.538  0.00  0.00    +0.000 F 
ATOM     19  F   UNL     1       7.977   6.535  16.402  0.00  0.00    +0.000 F 
ATOM     20  F   UNL     1       6.837   7.998  17.543  0.00  0.00    +0.000 F 
ENDBRANCH  11  17
ENDBRANCH   5   7
BRANCH   1  22
ATOM     21  C   UNL     1       0.984   9.006  22.105  0.00  0.00    +0.000 C 
ATOM     22  N   UNL     1       0.901   9.374  20.697  0.00  0.00    +0.000 N 
ATOM     23  C   UNL     1      -0.123  10.192  20.259  0.00  0.00    +0.000 A 
ATOM     24  N   UNL     1      -0.772  10.117  19.100  0.00  0.00    +0.000 NA
ATOM     25  N   UNL     1      -1.710  11.110  19.026  0.00  0.00    +0.000 NA
ATOM     26  C   UNL     1      -1.626  11.795  20.132  0.00  0.00    +0.000 A 
ATOM     27  N   UNL     1      -0.650  11.274  20.932  0.00  0.00    +0.000 N 
ATOM     28  C   UNL     1      -0.251  11.857  22.181  0.00  0.00    +0.000 C 
ENDBRANCH   1  22
TORSDOF 3
ENDMDL
MODEL 5
REMARK VINA RESULT:      -7.0      0.909      1.820
REMARK  Name = 
REMARK  5 active torsions:
REMARK  status: ('A' for Active; 'I' for Inactive)
REMARK    1  A    between atoms: C_1  and  N_2
REMARK    2  A    between atoms: N_2  and  C_3
REMARK    3  A    between atoms: C_7  and  N_8
REMARK    4  A    between atoms: C_12  and  C_13
REMARK    5  A    between atoms: N_27  and  C_28
REMARK                            x       y       z     vdW  Elec       q    Type
REMARK                         _______ _______ _______ _____ _____    ______ ____
ROOT
ATOM      1  C   UNL     1       2.552   6.939  19.005  0.00  0.00    +0.000 A 
ATOM      2  C   UNL     1       2.142   7.380  17.728  0.00  0.00    +0.000 A 
ATOM      3  C   UNL     1       1.719   8.685  17.504  0.00  0.00    +0.000 A 
ATOM      4  C   UNL     1       1.591   9.553  18.576  0.00  0.00    +0.000 A 
ATOM      5  C   UNL     1       1.730   9.066  19.882  0.00  0.00    +0.000 A 
ATOM      6  C   UNL     1       2.324   7.811  20.082  0.00  0.00    +0.000 A 
ENDROOT
BRANCH   5   7
ATOM      7  N   UNL     1       0.899   9.608  20.953  0.00  0.00    +0.000 N 
ATOM      8  C   UNL     1      -0.466   9.039  20.852  0.00  0.00    +0.000 C 
ATOM      9  C   UNL     1      -1.133  10.020  19.938  0.00  0.00    +0.000 A 
ATOM     10  C   UNL     1      -1.911   9.779  18.817  0.00  0.00    +0.000 A 
ATOM     11  C   UNL     1      -2.058  10.814  17.874  0.00  0.00    +0.000 A 
ATOM     12  C   UNL     1      -1.506  12.095  18.136  0.00  0.00    +0.000 A 
ATOM     13  C   UNL     1      -0.727  12.329  19.272  0.00  0.00    +0.000 A 
ATOM     14  C   UNL     1      -0.526  11.261  20.129  0.00  0.00    +0.000 A 
ATOM     15  C   UNL     1       0.708  11.025  20.921  0.00  0.00    +0.000 C 
ATOM     16  O   UNL     1       1.477  11.895  21.269  0.00  0.00    +0.000 OA
BRANCH  11  17
ATOM     17  C   UNL     1      -2.671  10.538  16.517  0.00  0.00    +0.000 C 
ATOM     18  F   UNL     1      -2.262   9.362  15.964  0.00  0.00    +0.000 F 
ATOM     19  F   UNL     1      -4.030  10.486  16.557  0.00  0.00    +0.000 F 
ATOM     20  F   UNL     1      -2.357  11.502  15.603  0.00  0.00    +0.000 F 
ENDBRANCH  11  17
ENDBRANCH   5   7
BRANCH   1  22
ATOM     21  C   UNL     1       4.173   5.305  18.162  0.00  0.00    +0.000 C 
ATOM     22  N   UNL     1       3.141   5.647  19.135  0.00  0.00    +0.000 N 
ATOM     23  C   UNL     1       2.364   4.649  19.692  0.00  0.00    +0.000 A 
ATOM     24  N   UNL     1       1.073   4.716  20.003  0.00  0.00    +0.000 NA
ATOM     25  N   UNL     1       0.663   3.530  20.548  0.00  0.00    +0.000 NA
ATOM     26  C   UNL     1       1.704   2.746  20.578  0.00  0.00    +0.000 A 
ATOM     27  N   UNL     1       2.791   3.392  20.065  0.00  0.00    +0.000 N 
ATOM     28  C   UNL     1       4.112   2.830  20.041  0.00  0.00    +0.000 C 
ENDBRANCH   1  22
TORSDOF 3
ENDMDL
MODEL 6
REMARK VINA RESULT:      -7.0      4.083      7.903
REMARK  Name = 
REMARK  5 active torsions:
REMARK  status: ('A' for Active; 'I' for Inactive)
REMARK    1  A    between atoms: C_1  and  N_2
REMARK    2  A    between atoms: N_2  and  C_3
REMARK    3  A    between atoms: C_7  and  N_8
REMARK    4  A    between atoms: C_12  and  C_13
REMARK    5  A    between atoms: N_27  and  C_28
REMARK                            x       y       z     vdW  Elec       q    Type
REMARK                         _______ _______ _______ _____ _____    ______ ____
ROOT
ATOM      1  C   UNL     1       0.627   9.677  19.730  0.00  0.00    +0.000 A 
ATOM      2  C   UNL     1       0.504   8.839  20.859  0.00  0.00    +0.000 A 
ATOM      3  C   UNL     1       1.342   7.746  21.055  0.00  0.00    +0.000 A 
ATOM      4  C   UNL     1       2.253   7.401  20.071  0.00  0.00    +0.000 A 
ATOM      5  C   UNL     1       2.211   8.049  18.830  0.00  0.00    +0.000 A 
ATOM      6  C   UNL     1       1.494   9.249  18.711  0.00  0.00    +0.000 A 
ENDROOT
BRANCH   5   7
ATOM      7  N   UNL     1       2.503   7.303  17.609  0.00  0.00    +0.000 N 
ATOM      8  C   UNL     1       1.588   6.140  17.513  0.00  0.00    +0.000 C 
ATOM      9  C   UNL     1       2.360   5.090  18.252  0.00  0.00    +0.000 A 
ATOM     10  C   UNL     1       1.925   4.221  19.240  0.00  0.00    +0.000 A 
ATOM     11  C   UNL     1       2.888   3.646  20.090  0.00  0.00    +0.000 A 
ATOM     12  C   UNL     1       4.269   3.876  19.856  0.00  0.00    +0.000 A 
ATOM     13  C   UNL     1       4.697   4.751  18.853  0.00  0.00    +0.000 A 
ATOM     14  C   UNL     1       3.718   5.372  18.099  0.00  0.00    +0.000 A 
ATOM     15  C   UNL     1       3.816   6.743  17.535  0.00  0.00    +0.000 C 
ATOM     16  O   UNL     1       4.859   7.303  17.273  0.00  0.00    +0.000 OA
BRANCH  11  17
ATOM     17  C   UNL     1       2.466   2.902  21.341  0.00  0.00    +0.000 C 
ATOM     18  F   UNL     1       3.403   2.021  21.790  0.00  0.00    +0.000 F 
ATOM     19  F   UNL     1       2.200   3.737  22.381  0.00  0.00    +0.000 F 
ATOM     20  F   UNL     1       1.334   2.167  21.146  0.00  0.00    +0.000 F 
ENDBRANCH  11  17
ENDBRANCH   5   7
BRANCH   1  22
ATOM     21  C   UNL     1      -0.967  11.063  18.487  0.00  0.00    +0.000 C 
ATOM     22  N   UNL     1      -0.139  10.878  19.673  0.00  0.00    +0.000 N 
ATOM     23  C   UNL     1       0.361  11.981  20.341  0.00  0.00    +0.000 A 
ATOM     24  N   UNL     1       1.549  12.095  20.927  0.00  0.00    +0.000 NA
ATOM     25  N   UNL     1       1.671  13.333  21.495  0.00  0.00    +0.000 NA
ATOM     26  C   UNL     1       0.557  13.968  21.266  0.00  0.00    +0.000 A 
ATOM     27  N   UNL     1      -0.298  13.172  20.559  0.00  0.00    +0.000 N 
ATOM     28  C   UNL     1      -1.643  13.549  20.226  0.00  0.00    +0.000 C 
ENDBRANCH   1  22
TORSDOF 3
ENDMDL
MODEL 7
REMARK VINA RESULT:      -6.9      2.012      2.892
REMARK  Name = 
REMARK  5 active torsions:
REMARK  status: ('A' for Active; 'I' for Inactive)
REMARK    1  A    between atoms: C_1  and  N_2
REMARK    2  A    between atoms: N_2  and  C_3
REMARK    3  A    between atoms: C_7  and  N_8
REMARK    4  A    between atoms: C_12  and  C_13
REMARK    5  A    between atoms: N_27  and  C_28
REMARK                            x       y       z     vdW  Elec       q    Type
REMARK                         _______ _______ _______ _____ _____    ______ ____
ROOT
ATOM      1  C   UNL     1       2.621   6.624  19.438  0.00  0.00    +0.000 A 
ATOM      2  C   UNL     1       2.503   7.329  18.220  0.00  0.00    +0.000 A 
ATOM      3  C   UNL     1       1.981   8.617  18.166  0.00  0.00    +0.000 A 
ATOM      4  C   UNL     1       1.462   9.190  19.315  0.00  0.00    +0.000 A 
ATOM      5  C   UNL     1       1.319   8.414  20.473  0.00  0.00    +0.000 A 
ATOM      6  C   UNL     1       2.004   7.193  20.564  0.00  0.00    +0.000 A 
ENDROOT
BRANCH   5   7
ATOM      7  N   UNL     1       0.172   8.623  21.352  0.00  0.00    +0.000 N 
ATOM      8  C   UNL     1      -0.996   9.046  20.542  0.00  0.00    +0.000 C 
ATOM      9  C   UNL     1      -0.828  10.534  20.530  0.00  0.00    +0.000 A 
ATOM     10  C   UNL     1      -0.893  11.410  19.458  0.00  0.00    +0.000 A 
ATOM     11  C   UNL     1      -0.277  12.669  19.591  0.00  0.00    +0.000 A 
ATOM     12  C   UNL     1       0.293  13.053  20.833  0.00  0.00    +0.000 A 
ATOM     13  C   UNL     1       0.348  12.163  21.909  0.00  0.00    +0.000 A 
ATOM     14  C   UNL     1      -0.182  10.901  21.711  0.00  0.00    +0.000 A 
ATOM     15  C   UNL     1       0.332   9.653  22.331  0.00  0.00    +0.000 C 
ATOM     16  O   UNL     1       0.944   9.608  23.376  0.00  0.00    +0.000 OA
BRANCH  11  17
ATOM     17  C   UNL     1      -0.085  13.564  18.384  0.00  0.00    +0.000 C 
ATOM     18  F   UNL     1      -0.444  14.859  18.605  0.00  0.00    +0.000 F 
ATOM     19  F   UNL     1       1.206  13.597  17.957  0.00  0.00    +0.000 F 
ATOM     20  F   UNL     1      -0.827  13.155  17.315  0.00  0.00    +0.000 F 
ENDBRANCH  11  17
ENDBRANCH   5   7
BRANCH   1  22
ATOM     21  C   UNL     1       4.766   5.455  19.247  0.00  0.00    +0.000 C 
ATOM     22  N   UNL     1       3.324   5.384  19.454  0.00  0.00    +0.000 N 
ATOM     23  C   UNL     1       2.628   4.255  19.064  0.00  0.00    +0.000 A 
ATOM     24  N   UNL     1       1.406   4.206  18.543  0.00  0.00    +0.000 NA
ATOM     25  N   UNL     1       1.055   2.905  18.300  0.00  0.00    +0.000 NA
ATOM     26  C   UNL     1       2.056   2.165  18.683  0.00  0.00    +0.000 A 
ATOM     27  N   UNL     1       3.059   2.950  19.174  0.00  0.00    +0.000 N 
ATOM     28  C   UNL     1       4.263   2.430  19.758  0.00  0.00    +0.000 C 
ENDBRANCH   1  22
TORSDOF 3
ENDMDL
MODEL 8
REMARK VINA RESULT:      -6.9      4.117      8.038
REMARK  Name = 
REMARK  5 active torsions:
REMARK  status: ('A' for Active; 'I' for Inactive)
REMARK    1  A    between atoms: C_1  and  N_2
REMARK    2  A    between atoms: N_2  and  C_3
REMARK    3  A    between atoms: C_7  and  N_8
REMARK    4  A    between atoms: C_12  and  C_13
REMARK    5  A    between atoms: N_27  and  C_28
REMARK                            x       y       z     vdW  Elec       q    Type
REMARK                         _______ _______ _______ _____ _____    ______ ____
ROOT
ATOM      1  C   UNL     1       1.190   9.537  19.469  0.00  0.00    +0.000 A 
ATOM      2  C   UNL     1       0.925   8.783  20.633  0.00  0.00    +0.000 A 
ATOM      3  C   UNL     1       1.575   7.581  20.891  0.00  0.00    +0.000 A 
ATOM      4  C   UNL     1       2.426   7.048  19.936  0.00  0.00    +0.000 A 
ATOM      5  C   UNL     1       2.497   7.636  18.667  0.00  0.00    +0.000 A 
ATOM      6  C   UNL     1       1.984   8.929  18.484  0.00  0.00    +0.000 A 
ENDROOT
BRANCH   5   7
ATOM      7  N   UNL     1       2.675   6.796  17.485  0.00  0.00    +0.000 N 
ATOM      8  C   UNL     1       1.675   5.701  17.507  0.00  0.00    +0.000 C 
ATOM      9  C   UNL     1       2.406   4.644  18.277  0.00  0.00    +0.000 A 
ATOM     10  C   UNL     1       1.959   3.873  19.338  0.00  0.00    +0.000 A 
ATOM     11  C   UNL     1       2.919   3.281  20.180  0.00  0.00    +0.000 A 
ATOM     12  C   UNL     1       4.300   3.392  19.869  0.00  0.00    +0.000 A 
ATOM     13  C   UNL     1       4.739   4.169  18.793  0.00  0.00    +0.000 A 
ATOM     14  C   UNL     1       3.770   4.814  18.045  0.00  0.00    +0.000 A 
ATOM     15  C   UNL     1       3.939   6.136  17.389  0.00  0.00    +0.000 C 
ATOM     16  O   UNL     1       5.005   6.600  17.045  0.00  0.00    +0.000 OA
BRANCH  11  17
ATOM     17  C   UNL     1       2.508   2.649  21.494  0.00  0.00    +0.000 C 
ATOM     18  F   UNL     1       1.358   1.923  21.411  0.00  0.00    +0.000 F 
ATOM     19  F   UNL     1       3.454   1.805  21.987  0.00  0.00    +0.000 F 
ATOM     20  F   UNL     1       2.286   3.579  22.467  0.00  0.00    +0.000 F 
ENDBRANCH  11  17
ENDBRANCH   5   7
BRANCH   1  22
ATOM     21  C   UNL     1       0.863  11.755  20.460  0.00  0.00    +0.000 C 
ATOM     22  N   UNL     1       0.627  10.842  19.348  0.00  0.00    +0.000 N 
ATOM     23  C   UNL     1      -0.518  10.969  18.584  0.00  0.00    +0.000 A 
ATOM     24  N   UNL     1      -1.242   9.989  18.052  0.00  0.00    +0.000 NA
ATOM     25  N   UNL     1      -2.294  10.514  17.352  0.00  0.00    +0.000 NA
ATOM     26  C   UNL     1      -2.205  11.810  17.449  0.00  0.00    +0.000 A 
ATOM     27  N   UNL     1      -1.115  12.150  18.197  0.00  0.00    +0.000 N 
ATOM     28  C   UNL     1      -0.691  13.504  18.414  0.00  0.00    +0.000 C 
ENDBRANCH   1  22
TORSDOF 3
ENDMDL
MODEL 9
REMARK VINA RESULT:      -6.9      3.605      4.932
REMARK  Name = 
REMARK  5 active torsions:
REMARK  status: ('A' for Active; 'I' for Inactive)
REMARK    1  A    between atoms: C_1  and  N_2
REMARK    2  A    between atoms: N_2  and  C_3
REMARK    3  A    between atoms: C_7  and  N_8
REMARK    4  A    between atoms: C_12  and  C_13
REMARK    5  A    between atoms: N_27  and  C_28
REMARK                            x       y       z     vdW  Elec       q    Type
REMARK                         _______ _______ _______ _____ _____    ______ ____
ROOT
ATOM      1  C   UNL     1       0.433  10.357  19.599  0.00  0.00    +0.000 A 
ATOM      2  C   UNL     1      -0.889  10.400  19.107  0.00  0.00    +0.000 A 
ATOM      3  C   UNL     1      -1.396  11.522  18.460  0.00  0.00    +0.000 A 
ATOM      4  C   UNL     1      -0.625  12.671  18.387  0.00  0.00    +0.000 A 
ATOM      5  C   UNL     1       0.578  12.744  19.100  0.00  0.00    +0.000 A 
ATOM      6  C   UNL     1       1.154  11.563  19.591  0.00  0.00    +0.000 A 
ENDROOT
BRANCH   5   7
ATOM      7  N   UNL     1       0.990  14.009  19.703  0.00  0.00    +0.000 N 
ATOM      8  C   UNL     1       1.197  13.814  21.159  0.00  0.00    +0.000 C 
ATOM      9  C   UNL     1      -0.174  14.090  21.695  0.00  0.00    +0.000 A 
ATOM     10  C   UNL     1      -0.917  13.356  22.606  0.00  0.00    +0.000 A 
ATOM     11  C   UNL     1      -2.313  13.542  22.627  0.00  0.00    +0.000 A 
ATOM     12  C   UNL     1      -2.909  14.536  21.808  0.00  0.00    +0.000 A 
ATOM     13  C   UNL     1      -2.148  15.274  20.897  0.00  0.00    +0.000 A 
ATOM     14  C   UNL     1      -0.794  14.997  20.836  0.00  0.00    +0.000 A 
ATOM     15  C   UNL     1       0.038  15.071  19.608  0.00  0.00    +0.000 C 
ATOM     16  O   UNL     1      -0.213  15.772  18.651  0.00  0.00    +0.000 OA
BRANCH  11  17
ATOM     17  C   UNL     1      -3.204  12.596  23.405  0.00  0.00    +0.000 C 
ATOM     18  F   UNL     1      -3.542  13.060  24.640  0.00  0.00    +0.000 F 
ATOM     19  F   UNL     1      -4.376  12.335  22.764  0.00  0.00    +0.000 F 
ATOM     20  F   UNL     1      -2.612  11.385  23.617  0.00  0.00    +0.000 F 
ENDBRANCH  11  17
ENDBRANCH   5   7
BRANCH   1  22
ATOM     21  C   UNL     1       1.104   9.017  21.537  0.00  0.00    +0.000 C 
ATOM     22  N   UNL     1       0.949   9.123  20.091  0.00  0.00    +0.000 N 
ATOM     23  C   UNL     1       1.786   8.408  19.256  0.00  0.00    +0.000 A 
ATOM     24  N   UNL     1       2.280   8.801  18.085  0.00  0.00    +0.000 NA
ATOM     25  N   UNL     1       3.057   7.809  17.551  0.00  0.00    +0.000 NA
ATOM     26  C   UNL     1       3.028   6.811  18.388  0.00  0.00    +0.000 A 
ATOM     27  N   UNL     1       2.247   7.125  19.463  0.00  0.00    +0.000 N 
ATOM     28  C   UNL     1       1.940   6.202  20.519  0.00  0.00    +0.000 C 
ENDBRANCH   1  22
TORSDOF 3
ENDMDL
