MODEL 1
REMARK VINA RESULT:      -9.4      0.000      0.000
REMARK  Name = 
REMARK  6 active torsions:
REMARK  status: ('A' for Active; 'I' for Inactive)
REMARK    1  A    between atoms: C_1  and  N_2
REMARK    2  A    between atoms: C_6  and  C_7
REMARK    3  A    between atoms: C_7  and  C_8
REMARK    4  A    between atoms: C_8  and  C_9
REMARK    5  A    between atoms: C_11  and  N_12
REMARK    6  A    between atoms: C_19  and  C_20
REMARK                            x       y       z     vdW  Elec       q    Type
REMARK                         _______ _______ _______ _____ _____    ______ ____
ROOT
ATOM      1  C   UNL     1       3.928   4.827  17.835  0.00  0.00    +0.000 A 
ATOM      2  C   UNL     1       3.309   6.058  18.077  0.00  0.00    +0.000 A 
ATOM      3  C   UNL     1       2.554   6.270  19.239  0.00  0.00    +0.000 A 
ATOM      4  C   UNL     1       2.393   5.230  20.158  0.00  0.00    +0.000 A 
ATOM      5  C   UNL     1       2.945   3.977  19.896  0.00  0.00    +0.000 A 
ATOM      6  C   UNL     1       3.694   3.793  18.742  0.00  0.00    +0.000 A 
ATOM      7  F   UNL     1       4.239   2.587  18.525  0.00  0.00    +0.000 F 
ENDROOT
BRANCH   3   8
ATOM      8  N   UNL     1       1.973   7.529  19.480  0.00  0.00    +0.000 N 
ATOM      9  C   UNL     1       1.299   7.854  20.722  0.00  0.00    +0.000 C 
ATOM     10  C   UNL     1       0.870   9.269  20.504  0.00  0.00    +0.000 A 
ATOM     11  C   UNL     1       1.238   9.670  19.222  0.00  0.00    +0.000 A 
ATOM     12  C   UNL     1       0.934  10.911  18.702  0.00  0.00    +0.000 A 
ATOM     13  C   UNL     1       0.247  11.791  19.529  0.00  0.00    +0.000 A 
ATOM     14  C   UNL     1      -0.109  11.417  20.840  0.00  0.00    +0.000 A 
ATOM     15  C   UNL     1       0.197  10.141  21.352  0.00  0.00    +0.000 A 
ATOM     16  C   UNL     1       1.952   8.581  18.576  0.00  0.00    +0.000 C 
ATOM     17  O   UNL     1       2.392   8.669  17.433  0.00  0.00    +0.000 OA
BRANCH  15  18
ATOM     18  C   UNL     1      -0.183   9.772  22.762  0.00  0.00    +0.000 C 
ATOM     19  F   UNL     1      -0.865  10.756  23.411  0.00  0.00    +0.000 F 
ATOM     20  F   UNL     1      -0.983   8.672  22.811  0.00  0.00    +0.000 F 
ATOM     21  F   UNL     1       0.894   9.491  23.543  0.00  0.00    +0.000 F 
ENDBRANCH  15  18
ENDBRANCH   3   8
BRANCH   1  22
ATOM     22  C   UNL     1       4.806   4.573  16.633  0.00  0.00    +0.000 C 
BRANCH  22  23
ATOM     23  C   UNL     1       6.315   4.494  16.888  0.00  0.00    +0.000 C 
BRANCH  23  29
ATOM     24  C   UNL     1       7.613   5.490  19.690  0.00  0.00    +0.000 C 
ATOM     25  N   UNL     1       7.727   6.073  18.378  0.00  0.00    +0.000 N 
ATOM     26  C   UNL     1       8.040   7.484  18.276  0.00  0.00    +0.000 C 
ATOM     27  N   UNL     1       7.354   7.945  17.075  0.00  0.00    +0.000 N 
ATOM     28  N   UNL     1       6.768   6.859  16.458  0.00  0.00    +0.000 NA
ATOM     29  C   UNL     1       6.934   5.822  17.264  0.00  0.00    +0.000 C 
ATOM     30  H   UNL     1       7.967   8.458  16.445  0.00  0.00    +0.000 HD
ENDBRANCH  23  29
ENDBRANCH  22  23
ENDBRANCH   1  22
TORSDOF 5
ENDMDL
MODEL 2
REMARK VINA RESULT:      -9.3      2.290      3.687
REMARK  Name = 
REMARK  6 active torsions:
REMARK  status: ('A' for Active; 'I' for Inactive)
REMARK    1  A    between atoms: C_1  and  N_2
REMARK    2  A    between atoms: C_6  and  C_7
REMARK    3  A    between atoms: C_7  and  C_8
REMARK    4  A    between atoms: C_8  and  C_9
REMARK    5  A    between atoms: C_11  and  N_12
REMARK    6  A    between atoms: C_19  and  C_20
REMARK                            x       y       z     vdW  Elec       q    Type
REMARK                         _______ _______ _______ _____ _____    ______ ____
ROOT
ATOM      1  C   UNL     1       2.851   4.714  17.603  0.00  0.00    +0.000 A 
ATOM      2  C   UNL     1       2.152   5.811  18.117  0.00  0.00    +0.000 A 
ATOM      3  C   UNL     1       2.817   6.995  18.462  0.00  0.00    +0.000 A 
ATOM      4  C   UNL     1       4.205   7.075  18.315  0.00  0.00    +0.000 A 
ATOM      5  C   UNL     1       4.924   5.967  17.870  0.00  0.00    +0.000 A 
ATOM      6  C   UNL     1       4.242   4.808  17.530  0.00  0.00    +0.000 A 
ATOM      7  F   UNL     1       4.951   3.763  17.078  0.00  0.00    +0.000 F 
ENDROOT
BRANCH   3   8
ATOM      8  N   UNL     1       2.088   8.099  18.941  0.00  0.00    +0.000 N 
ATOM      9  C   UNL     1       1.445   8.106  20.241  0.00  0.00    +0.000 C 
ATOM     10  C   UNL     1       0.821   9.463  20.292  0.00  0.00    +0.000 A 
ATOM     11  C   UNL     1       1.063  10.128  19.093  0.00  0.00    +0.000 A 
ATOM     12  C   UNL     1       0.570  11.385  18.812  0.00  0.00    +0.000 A 
ATOM     13  C   UNL     1      -0.183  12.003  19.804  0.00  0.00    +0.000 A 
ATOM     14  C   UNL     1      -0.415  11.362  21.036  0.00  0.00    +0.000 A 
ATOM     15  C   UNL     1       0.084  10.072  21.302  0.00  0.00    +0.000 A 
ATOM     16  C   UNL     1       1.880   9.279  18.242  0.00  0.00    +0.000 C 
ATOM     17  O   UNL     1       2.242   9.624  17.120  0.00  0.00    +0.000 OA
BRANCH  15  18
ATOM     18  C   UNL     1      -0.168   9.415  22.633  0.00  0.00    +0.000 C 
ATOM     19  F   UNL     1      -0.829   8.228  22.533  0.00  0.00    +0.000 F 
ATOM     20  F   UNL     1       0.986   9.141  23.301  0.00  0.00    +0.000 F 
ATOM     21  F   UNL     1      -0.915  10.185  23.470  0.00  0.00    +0.000 F 
ENDBRANCH  15  18
ENDBRANCH   3   8
BRANCH   1  22
ATOM     22  C   UNL     1       2.170   3.444  17.154  0.00  0.00    +0.000 C 
BRANCH  22  23
ATOM     23  C   UNL     1       2.332   2.218  18.059  0.00  0.00    +0.000 C 
BRANCH  23  29
ATOM     24  C   UNL     1       4.424   2.108  20.537  0.00  0.00    +0.000 C 
ATOM     25  N   UNL     1       3.131   2.737  20.468  0.00  0.00    +0.000 N 
ATOM     26  C   UNL     1       2.409   2.967  21.703  0.00  0.00    +0.000 C 
ATOM     27  N   UNL     1       1.000   2.837  21.356  0.00  0.00    +0.000 N 
ATOM     28  N   UNL     1       0.897   2.650  19.993  0.00  0.00    +0.000 NA
ATOM     29  C   UNL     1       2.129   2.522  19.527  0.00  0.00    +0.000 C 
ATOM     30  H   UNL     1       0.441   3.625  21.677  0.00  0.00    +0.000 HD
ENDBRANCH  23  29
ENDBRANCH  22  23
ENDBRANCH   1  22
TORSDOF 5
ENDMDL
MODEL 3
REMARK VINA RESULT:      -9.2      0.598      1.350
REMARK  Name = 
REMARK  6 active torsions:
REMARK  status: ('A' for Active; 'I' for Inactive)
REMARK    1  A    between atoms: C_1  and  N_2
REMARK    2  A    between atoms: C_6  and  C_7
REMARK    3  A    between atoms: C_7  and  C_8
REMARK    4  A    between atoms: C_8  and  C_9
REMARK    5  A    between atoms: C_11  and  N_12
REMARK    6  A    between atoms: C_19  and  C_20
REMARK                            x       y       z     vdW  Elec       q    Type
REMARK                         _______ _______ _______ _____ _____    ______ ____
ROOT
ATOM      1  C   UNL     1       3.869   4.891  17.702  0.00  0.00    +0.000 A 
ATOM      2  C   UNL     1       3.242   6.112  17.970  0.00  0.00    +0.000 A 
ATOM      3  C   UNL     1       2.568   6.329  19.179  0.00  0.00    +0.000 A 
ATOM      4  C   UNL     1       2.497   5.301  20.124  0.00  0.00    +0.000 A 
ATOM      5  C   UNL     1       3.057   4.056  19.843  0.00  0.00    +0.000 A 
ATOM      6  C   UNL     1       3.724   3.868  18.641  0.00  0.00    +0.000 A 
ATOM      7  F   UNL     1       4.279   2.671  18.404  0.00  0.00    +0.000 F 
ENDROOT
BRANCH   3   8
ATOM      8  N   UNL     1       1.977   7.579  19.441  0.00  0.00    +0.000 N 
ATOM      9  C   UNL     1       1.301   7.878  20.689  0.00  0.00    +0.000 C 
ATOM     10  C   UNL     1       0.861   9.293  20.495  0.00  0.00    +0.000 A 
ATOM     11  C   UNL     1       1.226   9.719  19.221  0.00  0.00    +0.000 A 
ATOM     12  C   UNL     1       0.913  10.965  18.721  0.00  0.00    +0.000 A 
ATOM     13  C   UNL     1       0.219  11.826  19.564  0.00  0.00    +0.000 A 
ATOM     14  C   UNL     1      -0.134  11.428  20.868  0.00  0.00    +0.000 A 
ATOM     15  C   UNL     1       0.181  10.145  21.357  0.00  0.00    +0.000 A 
ATOM     16  C   UNL     1       1.949   8.646  18.556  0.00  0.00    +0.000 C 
ATOM     17  O   UNL     1       2.388   8.757  17.415  0.00  0.00    +0.000 OA
BRANCH  15  18
ATOM     18  C   UNL     1      -0.197   9.749  22.761  0.00  0.00    +0.000 C 
ATOM     19  F   UNL     1       0.876   9.442  23.542  0.00  0.00    +0.000 F 
ATOM     20  F   UNL     1      -0.861  10.739  23.416  0.00  0.00    +0.000 F 
ATOM     21  F   UNL     1      -1.008   8.658  22.802  0.00  0.00    +0.000 F 
ENDBRANCH  15  18
ENDBRANCH   3   8
BRANCH   1  22
ATOM     22  C   UNL     1       4.664   4.634  16.445  0.00  0.00    +0.000 C 
BRANCH  22  23
ATOM     23  C   UNL     1       5.888   5.525  16.210  0.00  0.00    +0.000 C 
BRANCH  23  29
ATOM     24  C   UNL     1       7.572   8.026  17.412  0.00  0.00    +0.000 C 
ATOM     25  N   UNL     1       7.265   6.758  18.024  0.00  0.00    +0.000 N 
ATOM     26  C   UNL     1       8.131   6.278  19.082  0.00  0.00    +0.000 C 
ATOM     27  N   UNL     1       8.122   4.825  18.957  0.00  0.00    +0.000 N 
ATOM     28  N   UNL     1       7.232   4.474  17.963  0.00  0.00    +0.000 NA
ATOM     29  C   UNL     1       6.818   5.598  17.401  0.00  0.00    +0.000 C 
ATOM     30  H   UNL     1       7.918   4.356  19.836  0.00  0.00    +0.000 HD
ENDBRANCH  23  29
ENDBRANCH  22  23
ENDBRANCH   1  22
TORSDOF 5
ENDMDL
MODEL 4
REMARK VINA RESULT:      -9.0      2.372      3.478
REMARK  Name = 
REMARK  6 active torsions:
REMARK  status: ('A' for Active; 'I' for Inactive)
REMARK    1  A    between atoms: C_1  and  N_2
REMARK    2  A    between atoms: C_6  and  C_7
REMARK    3  A    between atoms: C_7  and  C_8
REMARK    4  A    between atoms: C_8  and  C_9
REMARK    5  A    between atoms: C_11  and  N_12
REMARK    6  A    between atoms: C_19  and  C_20
REMARK                            x       y       z     vdW  Elec       q    Type
REMARK                         _______ _______ _______ _____ _____    ______ ____
ROOT
ATOM      1  C   UNL     1       2.518   4.900  17.649  0.00  0.00    +0.000 A 
ATOM      2  C   UNL     1       1.893   6.009  18.228  0.00  0.00    +0.000 A 
ATOM      3  C   UNL     1       2.580   7.218  18.402  0.00  0.00    +0.000 A 
ATOM      4  C   UNL     1       3.921   7.311  18.017  0.00  0.00    +0.000 A 
ATOM      5  C   UNL     1       4.578   6.195  17.503  0.00  0.00    +0.000 A 
ATOM      6  C   UNL     1       3.874   5.011  17.334  0.00  0.00    +0.000 A 
ATOM      7  F   UNL     1       4.519   3.958  16.812  0.00  0.00    +0.000 F 
ENDROOT
BRANCH   3   8
ATOM      8  N   UNL     1       1.919   8.331  18.952  0.00  0.00    +0.000 N 
ATOM      9  C   UNL     1       1.278   8.297  20.253  0.00  0.00    +0.000 C 
ATOM     10  C   UNL     1       0.737   9.683  20.390  0.00  0.00    +0.000 A 
ATOM     11  C   UNL     1       1.017  10.405  19.234  0.00  0.00    +0.000 A 
ATOM     12  C   UNL     1       0.600  11.704  19.033  0.00  0.00    +0.000 A 
ATOM     13  C   UNL     1      -0.114  12.303  20.064  0.00  0.00    +0.000 A 
ATOM     14  C   UNL     1      -0.383  11.602  21.256  0.00  0.00    +0.000 A 
ATOM     15  C   UNL     1       0.038  10.271  21.439  0.00  0.00    +0.000 A 
ATOM     16  C   UNL     1       1.781   9.562  18.328  0.00  0.00    +0.000 C 
ATOM     17  O   UNL     1       2.162   9.954  17.228  0.00  0.00    +0.000 OA
BRANCH  15  18
ATOM     18  C   UNL     1      -0.251   9.549  22.729  0.00  0.00    +0.000 C 
ATOM     19  F   UNL     1      -0.883   8.356  22.549  0.00  0.00    +0.000 F 
ATOM     20  F   UNL     1       0.881   9.267  23.429  0.00  0.00    +0.000 F 
ATOM     21  F   UNL     1      -1.046  10.265  23.568  0.00  0.00    +0.000 F 
ENDBRANCH  15  18
ENDBRANCH   3   8
BRANCH   1  22
ATOM     22  C   UNL     1       1.800   3.600  17.379  0.00  0.00    +0.000 C 
BRANCH  22  23
ATOM     23  C   UNL     1       1.523   2.701  18.588  0.00  0.00    +0.000 C 
BRANCH  23  29
ATOM     24  C   UNL     1       2.499   3.784  21.487  0.00  0.00    +0.000 C 
ATOM     25  N   UNL     1       2.964   2.644  20.739  0.00  0.00    +0.000 N 
ATOM     26  C   UNL     1       4.299   2.145  21.003  0.00  0.00    +0.000 C 
ATOM     27  N   UNL     1       4.776   1.628  19.726  0.00  0.00    +0.000 N 
ATOM     28  N   UNL     1       3.753   1.720  18.804  0.00  0.00    +0.000 NA
ATOM     29  C   UNL     1       2.762   2.372  19.391  0.00  0.00    +0.000 C 
ATOM     30  H   UNL     1       5.142   0.682  19.797  0.00  0.00    +0.000 HD
ENDBRANCH  23  29
ENDBRANCH  22  23
ENDBRANCH   1  22
TORSDOF 5
ENDMDL
MODEL 5
REMARK VINA RESULT:      -8.9      1.895      2.643
REMARK  Name = 
REMARK  6 active torsions:
REMARK  status: ('A' for Active; 'I' for Inactive)
REMARK    1  A    between atoms: C_1  and  N_2
REMARK    2  A    between atoms: C_6  and  C_7
REMARK    3  A    between atoms: C_7  and  C_8
REMARK    4  A    between atoms: C_8  and  C_9
REMARK    5  A    between atoms: C_11  and  N_12
REMARK    6  A    between atoms: C_19  and  C_20
REMARK                            x       y       z     vdW  Elec       q    Type
REMARK                         _______ _______ _______ _____ _____    ______ ____
ROOT
ATOM      1  C   UNL     1       4.340   4.426  17.498  0.00  0.00    +0.000 A 
ATOM      2  C   UNL     1       3.842   5.696  17.806  0.00  0.00    +0.000 A 
ATOM      3  C   UNL     1       2.692   5.851  18.591  0.00  0.00    +0.000 A 
ATOM      4  C   UNL     1       2.014   4.719  19.052  0.00  0.00    +0.000 A 
ATOM      5  C   UNL     1       2.457   3.447  18.696  0.00  0.00    +0.000 A 
ATOM      6  C   UNL     1       3.603   3.320  17.923  0.00  0.00    +0.000 A 
ATOM      7  F   UNL     1       4.027   2.086  17.615  0.00  0.00    +0.000 F 
ENDROOT
BRANCH   3   8
ATOM      8  N   UNL     1       2.232   7.139  18.919  0.00  0.00    +0.000 N 
ATOM      9  C   UNL     1       1.627   7.451  20.200  0.00  0.00    +0.000 C 
ATOM     10  C   UNL     1       1.318   8.907  20.073  0.00  0.00    +0.000 A 
ATOM     11  C   UNL     1       1.682   9.348  18.803  0.00  0.00    +0.000 A 
ATOM     12  C   UNL     1       1.474  10.637  18.361  0.00  0.00    +0.000 A 
ATOM     13  C   UNL     1       0.892  11.525  19.258  0.00  0.00    +0.000 A 
ATOM     14  C   UNL     1       0.544  11.110  20.559  0.00  0.00    +0.000 A 
ATOM     15  C   UNL     1       0.750   9.785  20.990  0.00  0.00    +0.000 A 
ATOM     16  C   UNL     1       2.278   8.239  18.075  0.00  0.00    +0.000 C 
ATOM     17  O   UNL     1       2.689   8.353  16.924  0.00  0.00    +0.000 OA
BRANCH  15  18
ATOM     18  C   UNL     1       0.381   9.371  22.390  0.00  0.00    +0.000 C 
ATOM     19  F   UNL     1       1.441   8.924  23.118  0.00  0.00    +0.000 F 
ATOM     20  F   UNL     1      -0.156  10.395  23.107  0.00  0.00    +0.000 F 
ATOM     21  F   UNL     1      -0.537   8.367  22.419  0.00  0.00    +0.000 F 
ENDBRANCH  15  18
ENDBRANCH   3   8
BRANCH   1  22
ATOM     22  C   UNL     1       5.613   4.211  16.715  0.00  0.00    +0.000 C 
BRANCH  22  23
ATOM     23  C   UNL     1       5.458   3.834  15.238  0.00  0.00    +0.000 C 
BRANCH  23  29
ATOM     24  C   UNL     1       6.295   3.138  12.181  0.00  0.00    +0.000 C 
ATOM     25  N   UNL     1       6.605   4.306  12.965  0.00  0.00    +0.000 N 
ATOM     26  C   UNL     1       7.775   5.083  12.609  0.00  0.00    +0.000 C 
ATOM     27  N   UNL     1       8.282   5.616  13.868  0.00  0.00    +0.000 N 
ATOM     28  N   UNL     1       7.409   5.264  14.877  0.00  0.00    +0.000 NA
ATOM     29  C   UNL     1       6.508   4.456  14.344  0.00  0.00    +0.000 C 
ATOM     30  H   UNL     1       8.442   6.620  13.833  0.00  0.00    +0.000 HD
ENDBRANCH  23  29
ENDBRANCH  22  23
ENDBRANCH   1  22
TORSDOF 5
ENDMDL
MODEL 6
REMARK VINA RESULT:      -8.8      1.144      1.958
REMARK  Name = 
REMARK  6 active torsions:
REMARK  status: ('A' for Active; 'I' for Inactive)
REMARK    1  A    between atoms: C_1  and  N_2
REMARK    2  A    between atoms: C_6  and  C_7
REMARK    3  A    between atoms: C_7  and  C_8
REMARK    4  A    between atoms: C_8  and  C_9
REMARK    5  A    between atoms: C_11  and  N_12
REMARK    6  A    between atoms: C_19  and  C_20
REMARK                            x       y       z     vdW  Elec       q    Type
REMARK                         _______ _______ _______ _____ _____    ______ ____
ROOT
ATOM      1  C   UNL     1       4.761   5.149  19.222  0.00  0.00    +0.000 A 
ATOM      2  C   UNL     1       4.061   6.348  19.393  0.00  0.00    +0.000 A 
ATOM      3  C   UNL     1       2.662   6.383  19.327  0.00  0.00    +0.000 A 
ATOM      4  C   UNL     1       1.953   5.208  19.061  0.00  0.00    +0.000 A 
ATOM      5  C   UNL     1       2.640   4.019  18.819  0.00  0.00    +0.000 A 
ATOM      6  C   UNL     1       4.025   4.008  18.895  0.00  0.00    +0.000 A 
ATOM      7  F   UNL     1       4.664   2.848  18.687  0.00  0.00    +0.000 F 
ENDROOT
BRANCH   3   8
ATOM      8  N   UNL     1       1.977   7.593  19.540  0.00  0.00    +0.000 N 
ATOM      9  C   UNL     1       1.286   7.893  20.779  0.00  0.00    +0.000 C 
ATOM     10  C   UNL     1       0.737   9.260  20.528  0.00  0.00    +0.000 A 
ATOM     11  C   UNL     1       1.062   9.658  19.233  0.00  0.00    +0.000 A 
ATOM     12  C   UNL     1       0.651  10.853  18.683  0.00  0.00    +0.000 A 
ATOM     13  C   UNL     1      -0.104  11.694  19.493  0.00  0.00    +0.000 A 
ATOM     14  C   UNL     1      -0.419  11.326  20.816  0.00  0.00    +0.000 A 
ATOM     15  C   UNL     1      -0.003  10.094  21.358  0.00  0.00    +0.000 A 
ATOM     16  C   UNL     1       1.862   8.616  18.610  0.00  0.00    +0.000 C 
ATOM     17  O   UNL     1       2.286   8.710  17.461  0.00  0.00    +0.000 OA
BRANCH  15  18
ATOM     18  C   UNL     1      -0.343   9.732  22.780  0.00  0.00    +0.000 C 
ATOM     19  F   UNL     1      -1.066   8.583  22.886  0.00  0.00    +0.000 F 
ATOM     20  F   UNL     1       0.767   9.543  23.545  0.00  0.00    +0.000 F 
ATOM     21  F   UNL     1      -1.076  10.690  23.408  0.00  0.00    +0.000 F 
ENDBRANCH  15  18
ENDBRANCH   3   8
BRANCH   1  22
ATOM     22  C   UNL     1       6.262   5.049  19.351  0.00  0.00    +0.000 C 
BRANCH  22  23
ATOM     23  C   UNL     1       7.095   5.923  18.408  0.00  0.00    +0.000 C 
BRANCH  23  29
ATOM     24  C   UNL     1       4.972   6.644  16.062  0.00  0.00    +0.000 C 
ATOM     25  N   UNL     1       6.280   6.051  15.953  0.00  0.00    +0.000 N 
ATOM     26  C   UNL     1       6.574   5.243  14.787  0.00  0.00    +0.000 C 
ATOM     27  N   UNL     1       7.498   4.216  15.253  0.00  0.00    +0.000 N 
ATOM     28  N   UNL     1       7.807   4.468  16.574  0.00  0.00    +0.000 NA
ATOM     29  C   UNL     1       7.039   5.474  16.964  0.00  0.00    +0.000 C 
ATOM     30  H   UNL     1       8.331   4.144  14.673  0.00  0.00    +0.000 HD
ENDBRANCH  23  29
ENDBRANCH  22  23
ENDBRANCH   1  22
TORSDOF 5
ENDMDL
MODEL 7
REMARK VINA RESULT:      -8.8      3.539      8.648
REMARK  Name = 
REMARK  6 active torsions:
REMARK  status: ('A' for Active; 'I' for Inactive)
REMARK    1  A    between atoms: C_1  and  N_2
REMARK    2  A    between atoms: C_6  and  C_7
REMARK    3  A    between atoms: C_7  and  C_8
REMARK    4  A    between atoms: C_8  and  C_9
REMARK    5  A    between atoms: C_11  and  N_12
REMARK    6  A    between atoms: C_19  and  C_20
REMARK                            x       y       z     vdW  Elec       q    Type
REMARK                         _______ _______ _______ _____ _____    ______ ____
ROOT
ATOM      1  C   UNL     1       0.326  10.041  19.783  0.00  0.00    +0.000 A 
ATOM      2  C   UNL     1       1.010   8.992  19.161  0.00  0.00    +0.000 A 
ATOM      3  C   UNL     1       1.692   8.026  19.913  0.00  0.00    +0.000 A 
ATOM      4  C   UNL     1       1.713   8.126  21.307  0.00  0.00    +0.000 A 
ATOM      5  C   UNL     1       1.095   9.204  21.939  0.00  0.00    +0.000 A 
ATOM      6  C   UNL     1       0.421  10.144  21.172  0.00  0.00    +0.000 A 
ATOM      7  F   UNL     1      -0.189  11.157  21.802  0.00  0.00    +0.000 F 
ENDROOT
BRANCH   3   8
ATOM      8  N   UNL     1       2.341   6.959  19.266  0.00  0.00    +0.000 N 
ATOM      9  C   UNL     1       3.291   7.158  18.189  0.00  0.00    +0.000 C 
ATOM     10  C   UNL     1       3.698   5.761  17.846  0.00  0.00    +0.000 A 
ATOM     11  C   UNL     1       2.989   4.865  18.641  0.00  0.00    +0.000 A 
ATOM     12  C   UNL     1       3.105   3.496  18.526  0.00  0.00    +0.000 A 
ATOM     13  C   UNL     1       3.999   3.017  17.576  0.00  0.00    +0.000 A 
ATOM     14  C   UNL     1       4.750   3.905  16.781  0.00  0.00    +0.000 A 
ATOM     15  C   UNL     1       4.609   5.301  16.902  0.00  0.00    +0.000 A 
ATOM     16  C   UNL     1       2.143   5.616  19.555  0.00  0.00    +0.000 C 
ATOM     17  O   UNL     1       1.408   5.068  20.372  0.00  0.00    +0.000 OA
BRANCH  15  18
ATOM     18  C   UNL     1       5.434   6.229  16.049  0.00  0.00    +0.000 C 
ATOM     19  F   UNL     1       6.255   5.575  15.181  0.00  0.00    +0.000 F 
ATOM     20  F   UNL     1       4.665   7.051  15.285  0.00  0.00    +0.000 F 
ATOM     21  F   UNL     1       6.243   7.041  16.782  0.00  0.00    +0.000 F 
ENDBRANCH  15  18
ENDBRANCH   3   8
BRANCH   1  22
ATOM     22  C   UNL     1      -0.479  11.064  19.019  0.00  0.00    +0.000 C 
BRANCH  22  23
ATOM     23  C   UNL     1      -1.277  10.554  17.815  0.00  0.00    +0.000 C 
BRANCH  23  29
ATOM     24  C   UNL     1      -3.293  10.844  15.289  0.00  0.00    +0.000 C 
ATOM     25  N   UNL     1      -3.582  10.936  16.697  0.00  0.00    +0.000 N 
ATOM     26  C   UNL     1      -4.752  11.682  17.112  0.00  0.00    +0.000 C 
ATOM     27  N   UNL     1      -4.400  12.266  18.401  0.00  0.00    +0.000 N 
ATOM     28  N   UNL     1      -3.150  11.808  18.765  0.00  0.00    +0.000 NA
ATOM     29  C   UNL     1      -2.680  11.115  17.740  0.00  0.00    +0.000 C 
ATOM     30  H   UNL     1      -5.097  12.084  19.119  0.00  0.00    +0.000 HD
ENDBRANCH  23  29
ENDBRANCH  22  23
ENDBRANCH   1  22
TORSDOF 5
ENDMDL
MODEL 8
REMARK VINA RESULT:      -8.8      3.320      8.493
REMARK  Name = 
REMARK  6 active torsions:
REMARK  status: ('A' for Active; 'I' for Inactive)
REMARK    1  A    between atoms: C_1  and  N_2
REMARK    2  A    between atoms: C_6  and  C_7
REMARK    3  A    between atoms: C_7  and  C_8
REMARK    4  A    between atoms: C_8  and  C_9
REMARK    5  A    between atoms: C_11  and  N_12
REMARK    6  A    between atoms: C_19  and  C_20
REMARK                            x       y       z     vdW  Elec       q    Type
REMARK                         _______ _______ _______ _____ _____    ______ ____
ROOT
ATOM      1  C   UNL     1       0.416  10.219  19.757  0.00  0.00    +0.000 A 
ATOM      2  C   UNL     1       1.089   9.157  19.145  0.00  0.00    +0.000 A 
ATOM      3  C   UNL     1       1.680   8.140  19.907  0.00  0.00    +0.000 A 
ATOM      4  C   UNL     1       1.621   8.200  21.302  0.00  0.00    +0.000 A 
ATOM      5  C   UNL     1       1.015   9.288  21.928  0.00  0.00    +0.000 A 
ATOM      6  C   UNL     1       0.431  10.279  21.152  0.00  0.00    +0.000 A 
ATOM      7  F   UNL     1      -0.170  11.302  21.775  0.00  0.00    +0.000 F 
ENDROOT
BRANCH   3   8
ATOM      8  N   UNL     1       2.318   7.062  19.268  0.00  0.00    +0.000 N 
ATOM      9  C   UNL     1       3.268   7.244  18.187  0.00  0.00    +0.000 C 
ATOM     10  C   UNL     1       3.663   5.841  17.855  0.00  0.00    +0.000 A 
ATOM     11  C   UNL     1       2.948   4.958  18.659  0.00  0.00    +0.000 A 
ATOM     12  C   UNL     1       3.051   3.587  18.555  0.00  0.00    +0.000 A 
ATOM     13  C   UNL     1       3.940   3.092  17.607  0.00  0.00    +0.000 A 
ATOM     14  C   UNL     1       4.697   3.967  16.803  0.00  0.00    +0.000 A 
ATOM     15  C   UNL     1       4.568   5.366  16.913  0.00  0.00    +0.000 A 
ATOM     16  C   UNL     1       2.110   5.723  19.568  0.00  0.00    +0.000 C 
ATOM     17  O   UNL     1       1.372   5.189  20.391  0.00  0.00    +0.000 OA
BRANCH  15  18
ATOM     18  C   UNL     1       5.399   6.279  16.051  0.00  0.00    +0.000 C 
ATOM     19  F   UNL     1       6.217   7.100  16.766  0.00  0.00    +0.000 F 
ATOM     20  F   UNL     1       6.213   5.591  15.204  0.00  0.00    +0.000 F 
ATOM     21  F   UNL     1       4.645   7.098  15.268  0.00  0.00    +0.000 F 
ENDBRANCH  15  18
ENDBRANCH   3   8
BRANCH   1  22
ATOM     22  C   UNL     1      -0.294  11.299  18.978  0.00  0.00    +0.000 C 
BRANCH  22  23
ATOM     23  C   UNL     1      -1.826  11.275  19.005  0.00  0.00    +0.000 C 
BRANCH  23  29
ATOM     24  C   UNL     1      -4.811  11.830  17.859  0.00  0.00    +0.000 C 
ATOM     25  N   UNL     1      -3.621  11.442  17.146  0.00  0.00    +0.000 N 
ATOM     26  C   UNL     1      -3.772  10.762  15.875  0.00  0.00    +0.000 C 
ATOM     27  N   UNL     1      -2.636   9.852  15.788  0.00  0.00    +0.000 N 
ATOM     28  N   UNL     1      -1.820  10.061  16.881  0.00  0.00    +0.000 NA
ATOM     29  C   UNL     1      -2.447  10.916  17.672  0.00  0.00    +0.000 C 
ATOM     30  H   UNL     1      -2.129   9.940  14.910  0.00  0.00    +0.000 HD
ENDBRANCH  23  29
ENDBRANCH  22  23
ENDBRANCH   1  22
TORSDOF 5
ENDMDL
MODEL 9
REMARK VINA RESULT:      -8.7      3.069      4.389
REMARK  Name = 
REMARK  6 active torsions:
REMARK  status: ('A' for Active; 'I' for Inactive)
REMARK    1  A    between atoms: C_1  and  N_2
REMARK    2  A    between atoms: C_6  and  C_7
REMARK    3  A    between atoms: C_7  and  C_8
REMARK    4  A    between atoms: C_8  and  C_9
REMARK    5  A    between atoms: C_11  and  N_12
REMARK    6  A    between atoms: C_19  and  C_20
REMARK                            x       y       z     vdW  Elec       q    Type
REMARK                         _______ _______ _______ _____ _____    ______ ____
ROOT
ATOM      1  C   UNL     1       2.952   4.642  17.375  0.00  0.00    +0.000 A 
ATOM      2  C   UNL     1       2.255   5.547  18.182  0.00  0.00    +0.000 A 
ATOM      3  C   UNL     1       2.751   6.837  18.416  0.00  0.00    +0.000 A 
ATOM      4  C   UNL     1       3.975   7.218  17.858  0.00  0.00    +0.000 A 
ATOM      5  C   UNL     1       4.714   6.304  17.109  0.00  0.00    +0.000 A 
ATOM      6  C   UNL     1       4.199   5.035  16.886  0.00  0.00    +0.000 A 
ATOM      7  F   UNL     1       4.915   4.182  16.140  0.00  0.00    +0.000 F 
ENDROOT
BRANCH   3   8
ATOM      8  N   UNL     1       2.014   7.743  19.200  0.00  0.00    +0.000 N 
ATOM      9  C   UNL     1       1.609   9.048  18.715  0.00  0.00    +0.000 C 
ATOM     10  C   UNL     1       0.865   9.617  19.879  0.00  0.00    +0.000 A 
ATOM     11  C   UNL     1       0.902   8.712  20.937  0.00  0.00    +0.000 A 
ATOM     12  C   UNL     1       0.348   8.971  22.173  0.00  0.00    +0.000 A 
ATOM     13  C   UNL     1      -0.294  10.193  22.333  0.00  0.00    +0.000 A 
ATOM     14  C   UNL     1      -0.370  11.112  21.268  0.00  0.00    +0.000 A 
ATOM     15  C   UNL     1       0.214  10.838  20.015  0.00  0.00    +0.000 A 
ATOM     16  C   UNL     1       1.610   7.517  20.509  0.00  0.00    +0.000 C 
ATOM     17  O   UNL     1       1.788   6.555  21.250  0.00  0.00    +0.000 OA
BRANCH  15  18
ATOM     18  C   UNL     1       0.106  11.831  18.889  0.00  0.00    +0.000 C 
ATOM     19  F   UNL     1      -0.646  11.384  17.845  0.00  0.00    +0.000 F 
ATOM     20  F   UNL     1      -0.466  13.001  19.284  0.00  0.00    +0.000 F 
ATOM     21  F   UNL     1       1.314  12.162  18.358  0.00  0.00    +0.000 F 
ENDBRANCH  15  18
ENDBRANCH   3   8
BRANCH   1  22
ATOM     22  C   UNL     1       2.425   3.268  17.039  0.00  0.00    +0.000 C 
BRANCH  22  23
ATOM     23  C   UNL     1       2.745   2.145  18.031  0.00  0.00    +0.000 C 
BRANCH  23  29
ATOM     24  C   UNL     1       4.483   2.062  20.769  0.00  0.00    +0.000 C 
ATOM     25  N   UNL     1       3.213   2.693  20.518  0.00  0.00    +0.000 N 
ATOM     26  C   UNL     1       2.332   2.938  21.643  0.00  0.00    +0.000 C 
ATOM     27  N   UNL     1       0.982   2.806  21.110  0.00  0.00    +0.000 N 
ATOM     28  N   UNL     1       1.063   2.603  19.748  0.00  0.00    +0.000 NA
ATOM     29  C   UNL     1       2.347   2.467  19.454  0.00  0.00    +0.000 C 
ATOM     30  H   UNL     1       0.388   3.599  21.343  0.00  0.00    +0.000 HD
ENDBRANCH  23  29
ENDBRANCH  22  23
ENDBRANCH   1  22
TORSDOF 5
ENDMDL
