MODEL 1
REMARK VINA RESULT:      -8.1      0.000      0.000
REMARK  Name = 
REMARK  3 active torsions:
REMARK  status: ('A' for Active; 'I' for Inactive)
REMARK    1  A    between atoms: C_4  and  C_5
REMARK    2  A    between atoms: C_5  and  N_6
REMARK    3  A    between atoms: C_9  and  C_10
REMARK                            x       y       z     vdW  Elec       q    Type
REMARK                         _______ _______ _______ _____ _____    ______ ____
ROOT
ATOM      1  N   UNL     1       3.943   6.935  18.011  0.00  0.00    +0.000 NA
ATOM      2  C   UNL     1       3.675   5.536  17.663  0.00  0.00    +0.000 C 
ATOM      3  C   UNL     1       4.721   4.567  18.198  0.00  0.00    +0.000 C 
ATOM      4  C   UNL     1       6.139   4.957  17.795  0.00  0.00    +0.000 C 
ATOM      5  C   UNL     1       6.405   6.398  18.233  0.00  0.00    +0.000 C 
ATOM      6  C   UNL     1       5.322   7.384  17.807  0.00  0.00    +0.000 C 
ENDROOT
BRANCH   4   7
ATOM      7  C   UNL     1       6.504   4.649  16.347  0.00  0.00    +0.000 A 
ATOM      8  N   UNL     1       7.355   5.291  15.568  0.00  0.00    +0.000 NA
ATOM      9  C   UNL     1       7.226   4.859  14.242  0.00  0.00    +0.000 A 
ATOM     10  C   UNL     1       7.919   5.345  13.109  0.00  0.00    +0.000 A 
ATOM     11  C   UNL     1       7.606   4.860  11.827  0.00  0.00    +0.000 A 
ATOM     12  C   UNL     1       6.622   3.892  11.658  0.00  0.00    +0.000 A 
ATOM     13  C   UNL     1       5.953   3.366  12.763  0.00  0.00    +0.000 A 
ATOM     14  C   UNL     1       6.271   3.860  14.040  0.00  0.00    +0.000 A 
ATOM     15  S   UNL     1       5.610   3.400  15.554  0.00  0.00    +0.000 S 
ENDBRANCH   4   7
BRANCH   1  16
ATOM     16  C   UNL     1       2.976   7.846  17.348  0.00  0.00    +0.000 C 
BRANCH  16  20
ATOM     17  O   UNL     1      -0.664  10.907  18.116  0.00  0.00    +0.000 OA
ATOM     18  C   UNL     1       0.138  10.118  18.611  0.00  0.00    +0.000 A 
ATOM     19  C   UNL     1       1.067   9.407  17.717  0.00  0.00    +0.000 A 
ATOM     20  C   UNL     1       1.922   8.519  18.239  0.00  0.00    +0.000 A 
ATOM     21  N   UNL     1       1.938   8.207  19.578  0.00  0.00    +0.000 NA
ATOM     22  C   UNL     1       1.177   8.881  20.376  0.00  0.00    +0.000 A 
ATOM     23  C   UNL     1       1.277   8.634  21.844  0.00  0.00    +0.000 A 
ATOM     24  C   UNL     1       0.504   9.320  22.692  0.00  0.00    +0.000 A 
ATOM     25  C   UNL     1      -0.439  10.289  22.196  0.00  0.00    +0.000 A 
ATOM     26 CL   UNL     1      -1.419  11.140  23.325  0.00  0.00    +0.000 Cl
ATOM     27  C   UNL     1      -0.533  10.517  20.880  0.00  0.00    +0.000 A 
ATOM     28  N   UNL     1       0.266   9.844  19.963  0.00  0.00    +0.000 N 
ENDBRANCH  16  20
ENDBRANCH   1  16
TORSDOF 3
ENDMDL
MODEL 2
REMARK VINA RESULT:      -8.0      5.321     10.773
REMARK  Name = 
REMARK  3 active torsions:
REMARK  status: ('A' for Active; 'I' for Inactive)
REMARK    1  A    between atoms: C_4  and  C_5
REMARK    2  A    between atoms: C_5  and  N_6
REMARK    3  A    between atoms: C_9  and  C_10
REMARK                            x       y       z     vdW  Elec       q    Type
REMARK                         _______ _______ _______ _____ _____    ______ ____
ROOT
ATOM      1  N   UNL     1       0.576  10.003  20.165  0.00  0.00    +0.000 NA
ATOM      2  C   UNL     1      -0.801   9.898  19.675  0.00  0.00    +0.000 C 
ATOM      3  C   UNL     1      -1.261  11.120  18.892  0.00  0.00    +0.000 C 
ATOM      4  C   UNL     1      -1.066  12.419  19.666  0.00  0.00    +0.000 C 
ATOM      5  C   UNL     1       0.396  12.527  20.102  0.00  0.00    +0.000 C 
ATOM      6  C   UNL     1       0.927  11.277  20.799  0.00  0.00    +0.000 C 
ENDROOT
BRANCH   4   7
ATOM      7  C   UNL     1      -2.085  12.668  20.772  0.00  0.00    +0.000 A 
ATOM      8  N   UNL     1      -1.937  12.489  22.071  0.00  0.00    +0.000 NA
ATOM      9  C   UNL     1      -3.173  12.590  22.723  0.00  0.00    +0.000 A 
ATOM     10  C   UNL     1      -3.434  12.404  24.100  0.00  0.00    +0.000 A 
ATOM     11  C   UNL     1      -4.754  12.455  24.582  0.00  0.00    +0.000 A 
ATOM     12  C   UNL     1      -5.815  12.699  23.716  0.00  0.00    +0.000 A 
ATOM     13  C   UNL     1      -5.579  12.928  22.360  0.00  0.00    +0.000 A 
ATOM     14  C   UNL     1      -4.257  12.871  21.888  0.00  0.00    +0.000 A 
ATOM     15  S   UNL     1      -3.687  13.106  20.287  0.00  0.00    +0.000 S 
ENDBRANCH   4   7
BRANCH   1  16
ATOM     16  C   UNL     1       0.924   8.854  21.039  0.00  0.00    +0.000 C 
BRANCH  16  20
ATOM     17  O   UNL     1       3.526   6.802  17.543  0.00  0.00    +0.000 OA
ATOM     18  C   UNL     1       2.869   6.636  18.569  0.00  0.00    +0.000 A 
ATOM     19  C   UNL     1       2.305   7.818  19.241  0.00  0.00    +0.000 A 
ATOM     20  C   UNL     1       1.616   7.654  20.377  0.00  0.00    +0.000 A 
ATOM     21  N   UNL     1       1.451   6.426  20.972  0.00  0.00    +0.000 NA
ATOM     22  C   UNL     1       1.880   5.378  20.347  0.00  0.00    +0.000 A 
ATOM     23  C   UNL     1       1.598   4.031  20.925  0.00  0.00    +0.000 A 
ATOM     24  C   UNL     1       2.025   2.931  20.299  0.00  0.00    +0.000 A 
ATOM     25  C   UNL     1       2.775   3.037  19.073  0.00  0.00    +0.000 A 
ATOM     26 CL   UNL     1       3.313   1.593  18.308  0.00  0.00    +0.000 Cl
ATOM     27  C   UNL     1       3.030   4.241  18.548  0.00  0.00    +0.000 A 
ATOM     28  N   UNL     1       2.585   5.412  19.153  0.00  0.00    +0.000 N 
ENDBRANCH  16  20
ENDBRANCH   1  16
TORSDOF 3
ENDMDL
MODEL 3
REMARK VINA RESULT:      -7.9      0.887      1.035
REMARK  Name = 
REMARK  3 active torsions:
REMARK  status: ('A' for Active; 'I' for Inactive)
REMARK    1  A    between atoms: C_4  and  C_5
REMARK    2  A    between atoms: C_5  and  N_6
REMARK    3  A    between atoms: C_9  and  C_10
REMARK                            x       y       z     vdW  Elec       q    Type
REMARK                         _______ _______ _______ _____ _____    ______ ____
ROOT
ATOM      1  N   UNL     1       4.375   6.501  18.489  0.00  0.00    +0.000 NA
ATOM      2  C   UNL     1       4.940   5.151  18.564  0.00  0.00    +0.000 C 
ATOM      3  C   UNL     1       6.462   5.131  18.589  0.00  0.00    +0.000 C 
ATOM      4  C   UNL     1       7.077   5.905  17.428  0.00  0.00    +0.000 C 
ATOM      5  C   UNL     1       6.516   7.327  17.422  0.00  0.00    +0.000 C 
ATOM      6  C   UNL     1       4.993   7.392  17.504  0.00  0.00    +0.000 C 
ENDROOT
BRANCH   4   7
ATOM      7  C   UNL     1       7.028   5.191  16.082  0.00  0.00    +0.000 A 
ATOM      8  N   UNL     1       7.713   5.468  14.988  0.00  0.00    +0.000 NA
ATOM      9  C   UNL     1       7.208   4.749  13.898  0.00  0.00    +0.000 A 
ATOM     10  C   UNL     1       7.635   4.817  12.552  0.00  0.00    +0.000 A 
ATOM     11  C   UNL     1       6.959   4.089  11.557  0.00  0.00    +0.000 A 
ATOM     12  C   UNL     1       5.871   3.286  11.885  0.00  0.00    +0.000 A 
ATOM     13  C   UNL     1       5.456   3.169  13.212  0.00  0.00    +0.000 A 
ATOM     14  C   UNL     1       6.136   3.904  14.198  0.00  0.00    +0.000 A 
ATOM     15  S   UNL     1       5.839   3.951  15.886  0.00  0.00    +0.000 S 
ENDBRANCH   4   7
BRANCH   1  16
ATOM     16  C   UNL     1       2.900   6.457  18.324  0.00  0.00    +0.000 C 
BRANCH  16  20
ATOM     17  O   UNL     1       1.045  10.892  18.011  0.00  0.00    +0.000 OA
ATOM     18  C   UNL     1       1.234   9.903  18.717  0.00  0.00    +0.000 A 
ATOM     19  C   UNL     1       1.915   8.738  18.128  0.00  0.00    +0.000 A 
ATOM     20  C   UNL     1       2.096   7.644  18.876  0.00  0.00    +0.000 A 
ATOM     21  N   UNL     1       1.630   7.542  20.165  0.00  0.00    +0.000 NA
ATOM     22  C   UNL     1       1.099   8.587  20.710  0.00  0.00    +0.000 A 
ATOM     23  C   UNL     1       0.701   8.524  22.147  0.00  0.00    +0.000 A 
ATOM     24  C   UNL     1       0.154   9.591  22.737  0.00  0.00    +0.000 A 
ATOM     25  C   UNL     1      -0.072  10.801  21.988  0.00  0.00    +0.000 A 
ATOM     26 CL   UNL     1      -0.789  12.144  22.788  0.00  0.00    +0.000 Cl
ATOM     27  C   UNL     1       0.284  10.865  20.700  0.00  0.00    +0.000 A 
ATOM     28  N   UNL     1       0.877   9.788  20.051  0.00  0.00    +0.000 N 
ENDBRANCH  16  20
ENDBRANCH   1  16
TORSDOF 3
ENDMDL
MODEL 4
REMARK VINA RESULT:      -7.7      4.511      9.155
REMARK  Name = 
REMARK  3 active torsions:
REMARK  status: ('A' for Active; 'I' for Inactive)
REMARK    1  A    between atoms: C_4  and  C_5
REMARK    2  A    between atoms: C_5  and  N_6
REMARK    3  A    between atoms: C_9  and  C_10
REMARK                            x       y       z     vdW  Elec       q    Type
REMARK                         _______ _______ _______ _____ _____    ______ ____
ROOT
ATOM      1  N   UNL     1       1.867   8.132  20.272  0.00  0.00    +0.000 NA
ATOM      2  C   UNL     1       1.930   8.687  18.916  0.00  0.00    +0.000 C 
ATOM      3  C   UNL     1       1.895  10.208  18.881  0.00  0.00    +0.000 C 
ATOM      4  C   UNL     1       0.703  10.783  19.640  0.00  0.00    +0.000 C 
ATOM      5  C   UNL     1       0.709  10.236  21.068  0.00  0.00    +0.000 C 
ATOM      6  C   UNL     1       0.851   8.719  21.148  0.00  0.00    +0.000 C 
ENDROOT
BRANCH   4   7
ATOM      7  C   UNL     1      -0.634  10.674  18.916  0.00  0.00    +0.000 A 
ATOM      8  N   UNL     1      -0.896  10.061  17.777  0.00  0.00    +0.000 NA
ATOM      9  C   UNL     1      -2.177  10.398  17.323  0.00  0.00    +0.000 A 
ATOM     10  C   UNL     1      -2.795   9.991  16.118  0.00  0.00    +0.000 A 
ATOM     11  C   UNL     1      -4.061  10.493  15.768  0.00  0.00    +0.000 A 
ATOM     12  C   UNL     1      -4.724  11.386  16.604  0.00  0.00    +0.000 A 
ATOM     13  C   UNL     1      -4.153  11.771  17.818  0.00  0.00    +0.000 A 
ATOM     14  C   UNL     1      -2.887  11.265  18.156  0.00  0.00    +0.000 A 
ATOM     15  S   UNL     1      -1.961  11.571  19.568  0.00  0.00    +0.000 S 
ENDBRANCH   4   7
BRANCH   1  16
ATOM     16  C   UNL     1       1.762   6.651  20.241  0.00  0.00    +0.000 C 
BRANCH  16  20
ATOM     17  O   UNL     1       2.207   2.907  17.243  0.00  0.00    +0.000 OA
ATOM     18  C   UNL     1       2.643   4.001  17.594  0.00  0.00    +0.000 A 
ATOM     19  C   UNL     1       1.950   4.720  18.676  0.00  0.00    +0.000 A 
ATOM     20  C   UNL     1       2.395   5.928  19.043  0.00  0.00    +0.000 A 
ATOM     21  N   UNL     1       3.450   6.550  18.419  0.00  0.00    +0.000 NA
ATOM     22  C   UNL     1       4.107   5.891  17.521  0.00  0.00    +0.000 A 
ATOM     23  C   UNL     1       5.327   6.511  16.925  0.00  0.00    +0.000 A 
ATOM     24  C   UNL     1       6.028   5.852  15.998  0.00  0.00    +0.000 A 
ATOM     25  C   UNL     1       5.602   4.548  15.555  0.00  0.00    +0.000 A 
ATOM     26 CL   UNL     1       6.531   3.743  14.351  0.00  0.00    +0.000 Cl
ATOM     27  C   UNL     1       4.510   3.986  16.086  0.00  0.00    +0.000 A 
ATOM     28  N   UNL     1       3.763   4.625  17.069  0.00  0.00    +0.000 N 
ENDBRANCH  16  20
ENDBRANCH   1  16
TORSDOF 3
ENDMDL
MODEL 5
REMARK VINA RESULT:      -7.7      8.000     11.936
REMARK  Name = 
REMARK  3 active torsions:
REMARK  status: ('A' for Active; 'I' for Inactive)
REMARK    1  A    between atoms: C_4  and  C_5
REMARK    2  A    between atoms: C_5  and  N_6
REMARK    3  A    between atoms: C_9  and  C_10
REMARK                            x       y       z     vdW  Elec       q    Type
REMARK                         _______ _______ _______ _____ _____    ______ ____
ROOT
ATOM      1  N   UNL     1      -2.064  13.422  23.422  0.00  0.00    +0.000 NA
ATOM      2  C   UNL     1      -2.828  14.554  22.889  0.00  0.00    +0.000 C 
ATOM      3  C   UNL     1      -4.142  14.796  23.618  0.00  0.00    +0.000 C 
ATOM      4  C   UNL     1      -5.013  13.546  23.684  0.00  0.00    +0.000 C 
ATOM      5  C   UNL     1      -4.206  12.407  24.308  0.00  0.00    +0.000 C 
ATOM      6  C   UNL     1      -2.834  12.201  23.672  0.00  0.00    +0.000 C 
ENDROOT
BRANCH   4   7
ATOM      7  C   UNL     1      -5.728  13.190  22.386  0.00  0.00    +0.000 A 
ATOM      8  N   UNL     1      -5.959  11.991  21.886  0.00  0.00    +0.000 NA
ATOM      9  C   UNL     1      -6.415  12.090  20.566  0.00  0.00    +0.000 A 
ATOM     10  C   UNL     1      -6.715  11.029  19.679  0.00  0.00    +0.000 A 
ATOM     11  C   UNL     1      -7.080  11.302  18.349  0.00  0.00    +0.000 A 
ATOM     12  C   UNL     1      -7.161  12.614  17.892  0.00  0.00    +0.000 A 
ATOM     13  C   UNL     1      -6.911  13.679  18.758  0.00  0.00    +0.000 A 
ATOM     14  C   UNL     1      -6.543  13.395  20.085  0.00  0.00    +0.000 A 
ATOM     15  S   UNL     1      -6.180  14.497  21.348  0.00  0.00    +0.000 S 
ENDBRANCH   4   7
BRANCH   1  16
ATOM     16  C   UNL     1      -0.867  13.143  22.589  0.00  0.00    +0.000 C 
BRANCH  16  20
ATOM     17  O   UNL     1       0.540   9.594  19.652  0.00  0.00    +0.000 OA
ATOM     18  C   UNL     1      -0.288  10.473  19.880  0.00  0.00    +0.000 A 
ATOM     19  C   UNL     1      -0.141  11.278  21.104  0.00  0.00    +0.000 A 
ATOM     20  C   UNL     1      -1.055  12.216  21.380  0.00  0.00    +0.000 A 
ATOM     21  N   UNL     1      -2.158  12.430  20.589  0.00  0.00    +0.000 NA
ATOM     22  C   UNL     1      -2.252  11.778  19.476  0.00  0.00    +0.000 A 
ATOM     23  C   UNL     1      -3.382  12.092  18.553  0.00  0.00    +0.000 A 
ATOM     24  C   UNL     1      -3.501  11.437  17.394  0.00  0.00    +0.000 A 
ATOM     25  C   UNL     1      -2.552  10.413  17.036  0.00  0.00    +0.000 A 
ATOM     26 CL   UNL     1      -2.753   9.589  15.539  0.00  0.00    +0.000 Cl
ATOM     27  C   UNL     1      -1.536  10.128  17.859  0.00  0.00    +0.000 A 
ATOM     28  N   UNL     1      -1.359  10.799  19.063  0.00  0.00    +0.000 N 
ENDBRANCH  16  20
ENDBRANCH   1  16
TORSDOF 3
ENDMDL
MODEL 6
REMARK VINA RESULT:      -7.7      1.367      2.021
REMARK  Name = 
REMARK  3 active torsions:
REMARK  status: ('A' for Active; 'I' for Inactive)
REMARK    1  A    between atoms: C_4  and  C_5
REMARK    2  A    between atoms: C_5  and  N_6
REMARK    3  A    between atoms: C_9  and  C_10
REMARK                            x       y       z     vdW  Elec       q    Type
REMARK                         _______ _______ _______ _____ _____    ______ ____
ROOT
ATOM      1  N   UNL     1       4.202   6.524  18.350  0.00  0.00    +0.000 NA
ATOM      2  C   UNL     1       4.451   5.080  18.302  0.00  0.00    +0.000 C 
ATOM      3  C   UNL     1       5.905   4.706  18.552  0.00  0.00    +0.000 C 
ATOM      4  C   UNL     1       6.866   5.446  17.628  0.00  0.00    +0.000 C 
ATOM      5  C   UNL     1       6.624   6.951  17.756  0.00  0.00    +0.000 C 
ATOM      6  C   UNL     1       5.160   7.355  17.616  0.00  0.00    +0.000 C 
ENDROOT
BRANCH   4   7
ATOM      7  C   UNL     1       6.914   4.923  16.197  0.00  0.00    +0.000 A 
ATOM      8  N   UNL     1       7.660   5.355  15.197  0.00  0.00    +0.000 NA
ATOM      9  C   UNL     1       7.235   4.787  13.989  0.00  0.00    +0.000 A 
ATOM     10  C   UNL     1       7.744   5.043  12.694  0.00  0.00    +0.000 A 
ATOM     11  C   UNL     1       7.143   4.451  11.569  0.00  0.00    +0.000 A 
ATOM     12  C   UNL     1       6.053   3.599  11.715  0.00  0.00    +0.000 A 
ATOM     13  C   UNL     1       5.559   3.298  12.985  0.00  0.00    +0.000 A 
ATOM     14  C   UNL     1       6.164   3.898  14.102  0.00  0.00    +0.000 A 
ATOM     15  S   UNL     1       5.763   3.710  15.759  0.00  0.00    +0.000 S 
ENDBRANCH   4   7
BRANCH   1  16
ATOM     16  C   UNL     1       2.804   6.841  17.960  0.00  0.00    +0.000 C 
BRANCH  16  20
ATOM     17  O   UNL     1       1.179   8.556  22.157  0.00  0.00    +0.000 OA
ATOM     18  C   UNL     1       1.191   8.673  20.934  0.00  0.00    +0.000 A 
ATOM     19  C   UNL     1       2.006   7.733  20.146  0.00  0.00    +0.000 A 
ATOM     20  C   UNL     1       2.054   7.872  18.816  0.00  0.00    +0.000 A 
ATOM     21  N   UNL     1       1.409   8.889  18.153  0.00  0.00    +0.000 NA
ATOM     22  C   UNL     1       0.634   9.670  18.832  0.00  0.00    +0.000 A 
ATOM     23  C   UNL     1      -0.165  10.699  18.103  0.00  0.00    +0.000 A 
ATOM     24  C   UNL     1      -0.977  11.517  18.779  0.00  0.00    +0.000 A 
ATOM     25  C   UNL     1      -1.075  11.423  20.214  0.00  0.00    +0.000 A 
ATOM     26 CL   UNL     1      -2.126  12.505  21.042  0.00  0.00    +0.000 Cl
ATOM     27  C   UNL     1      -0.362  10.502  20.873  0.00  0.00    +0.000 A 
ATOM     28  N   UNL     1       0.478   9.615  20.209  0.00  0.00    +0.000 N 
ENDBRANCH  16  20
ENDBRANCH   1  16
TORSDOF 3
ENDMDL
MODEL 7
REMARK VINA RESULT:      -7.6      4.829     10.937
REMARK  Name = 
REMARK  3 active torsions:
REMARK  status: ('A' for Active; 'I' for Inactive)
REMARK    1  A    between atoms: C_4  and  C_5
REMARK    2  A    between atoms: C_5  and  N_6
REMARK    3  A    between atoms: C_9  and  C_10
REMARK                            x       y       z     vdW  Elec       q    Type
REMARK                         _______ _______ _______ _____ _____    ______ ____
ROOT
ATOM      1  N   UNL     1       0.552  10.189  20.170  0.00  0.00    +0.000 NA
ATOM      2  C   UNL     1      -0.824  10.054  19.683  0.00  0.00    +0.000 C 
ATOM      3  C   UNL     1      -1.319  11.273  18.916  0.00  0.00    +0.000 C 
ATOM      4  C   UNL     1      -1.155  12.566  19.706  0.00  0.00    +0.000 C 
ATOM      5  C   UNL     1       0.304  12.707  20.139  0.00  0.00    +0.000 C 
ATOM      6  C   UNL     1       0.871  11.464  20.818  0.00  0.00    +0.000 C 
ENDROOT
BRANCH   4   7
ATOM      7  C   UNL     1      -2.177  12.775  20.818  0.00  0.00    +0.000 A 
ATOM      8  N   UNL     1      -2.033  12.543  22.110  0.00  0.00    +0.000 NA
ATOM      9  C   UNL     1      -3.270  12.622  22.762  0.00  0.00    +0.000 A 
ATOM     10  C   UNL     1      -3.537  12.381  24.130  0.00  0.00    +0.000 A 
ATOM     11  C   UNL     1      -4.858  12.417  24.610  0.00  0.00    +0.000 A 
ATOM     12  C   UNL     1      -5.915  12.700  23.751  0.00  0.00    +0.000 A 
ATOM     13  C   UNL     1      -5.675  12.981  22.406  0.00  0.00    +0.000 A 
ATOM     14  C   UNL     1      -4.351  12.939  21.936  0.00  0.00    +0.000 A 
ATOM     15  S   UNL     1      -3.776  13.237  20.347  0.00  0.00    +0.000 S 
ENDBRANCH   4   7
BRANCH   1  16
ATOM     16  C   UNL     1       0.933   9.039  21.028  0.00  0.00    +0.000 C 
BRANCH  16  20
ATOM     17  O   UNL     1       2.110   4.374  20.790  0.00  0.00    +0.000 OA
ATOM     18  C   UNL     1       2.199   5.484  20.272  0.00  0.00    +0.000 A 
ATOM     19  C   UNL     1       1.499   6.614  20.905  0.00  0.00    +0.000 A 
ATOM     20  C   UNL     1       1.559   7.822  20.331  0.00  0.00    +0.000 A 
ATOM     21  N   UNL     1       2.213   8.045  19.143  0.00  0.00    +0.000 NA
ATOM     22  C   UNL     1       2.890   7.074  18.623  0.00  0.00    +0.000 A 
ATOM     23  C   UNL     1       3.703   7.339  17.399  0.00  0.00    +0.000 A 
ATOM     24  C   UNL     1       4.416   6.355  16.843  0.00  0.00    +0.000 A 
ATOM     25  C   UNL     1       4.393   5.030  17.409  0.00  0.00    +0.000 A 
ATOM     26 CL   UNL     1       5.318   3.794  16.652  0.00  0.00    +0.000 Cl
ATOM     27  C   UNL     1       3.668   4.786  18.507  0.00  0.00    +0.000 A 
ATOM     28  N   UNL     1       2.929   5.784  19.133  0.00  0.00    +0.000 N 
ENDBRANCH  16  20
ENDBRANCH   1  16
TORSDOF 3
ENDMDL
MODEL 8
REMARK VINA RESULT:      -7.6      5.315      7.796
REMARK  Name = 
REMARK  3 active torsions:
REMARK  status: ('A' for Active; 'I' for Inactive)
REMARK    1  A    between atoms: C_4  and  C_5
REMARK    2  A    between atoms: C_5  and  N_6
REMARK    3  A    between atoms: C_9  and  C_10
REMARK                            x       y       z     vdW  Elec       q    Type
REMARK                         _______ _______ _______ _____ _____    ______ ____
ROOT
ATOM      1  N   UNL     1       7.391   7.175  17.264  0.00  0.00    +0.000 NA
ATOM      2  C   UNL     1       7.452   5.712  17.202  0.00  0.00    +0.000 C 
ATOM      3  C   UNL     1       6.528   5.110  16.153  0.00  0.00    +0.000 C 
ATOM      4  C   UNL     1       5.085   5.579  16.306  0.00  0.00    +0.000 C 
ATOM      5  C   UNL     1       5.053   7.108  16.298  0.00  0.00    +0.000 C 
ATOM      6  C   UNL     1       6.044   7.752  17.263  0.00  0.00    +0.000 C 
ENDROOT
BRANCH   4   7
ATOM      7  C   UNL     1       4.314   4.927  17.448  0.00  0.00    +0.000 A 
ATOM      8  N   UNL     1       4.163   3.640  17.698  0.00  0.00    +0.000 NA
ATOM      9  C   UNL     1       3.186   3.444  18.682  0.00  0.00    +0.000 A 
ATOM     10  C   UNL     1       2.702   2.211  19.179  0.00  0.00    +0.000 A 
ATOM     11  C   UNL     1       1.650   2.188  20.111  0.00  0.00    +0.000 A 
ATOM     12  C   UNL     1       1.080   3.373  20.564  0.00  0.00    +0.000 A 
ATOM     13  C   UNL     1       1.567   4.604  20.122  0.00  0.00    +0.000 A 
ATOM     14  C   UNL     1       2.617   4.615  19.187  0.00  0.00    +0.000 A 
ATOM     15  S   UNL     1       3.398   5.969  18.480  0.00  0.00    +0.000 S 
ENDBRANCH   4   7
BRANCH   1  16
ATOM     16  C   UNL     1       8.200   7.698  18.393  0.00  0.00    +0.000 C 
BRANCH  16  20
ATOM     17  O   UNL     1       7.567  12.193  16.781  0.00  0.00    +0.000 OA
ATOM     18  C   UNL     1       8.175  11.453  17.551  0.00  0.00    +0.000 A 
ATOM     19  C   UNL     1       7.829  10.022  17.570  0.00  0.00    +0.000 A 
ATOM     20  C   UNL     1       8.461   9.211  18.428  0.00  0.00    +0.000 A 
ATOM     21  N   UNL     1       9.392   9.669  19.330  0.00  0.00    +0.000 NA
ATOM     22  C   UNL     1       9.752  10.909  19.265  0.00  0.00    +0.000 A 
ATOM     23  C   UNL     1      10.850  11.385  20.157  0.00  0.00    +0.000 A 
ATOM     24  C   UNL     1      11.245  12.661  20.109  0.00  0.00    +0.000 A 
ATOM     25  C   UNL     1      10.606  13.587  19.209  0.00  0.00    +0.000 A 
ATOM     26 CL   UNL     1      11.142  15.222  19.190  0.00  0.00    +0.000 Cl
ATOM     27  C   UNL     1       9.622  13.166  18.405  0.00  0.00    +0.000 A 
ATOM     28  N   UNL     1       9.193  11.843  18.405  0.00  0.00    +0.000 N 
ENDBRANCH  16  20
ENDBRANCH   1  16
TORSDOF 3
ENDMDL
MODEL 9
REMARK VINA RESULT:      -7.6      5.117      9.795
REMARK  Name = 
REMARK  3 active torsions:
REMARK  status: ('A' for Active; 'I' for Inactive)
REMARK    1  A    between atoms: C_4  and  C_5
REMARK    2  A    between atoms: C_5  and  N_6
REMARK    3  A    between atoms: C_9  and  C_10
REMARK                            x       y       z     vdW  Elec       q    Type
REMARK                         _______ _______ _______ _____ _____    ______ ____
ROOT
ATOM      1  N   UNL     1       0.965   9.794  20.639  0.00  0.00    +0.000 NA
ATOM      2  C   UNL     1       0.640   9.890  19.213  0.00  0.00    +0.000 C 
ATOM      3  C   UNL     1       0.760  11.302  18.657  0.00  0.00    +0.000 C 
ATOM      4  C   UNL     1      -0.047  12.317  19.460  0.00  0.00    +0.000 C 
ATOM      5  C   UNL     1       0.367  12.235  20.929  0.00  0.00    +0.000 C 
ATOM      6  C   UNL     1       0.362  10.819  21.496  0.00  0.00    +0.000 C 
ENDROOT
BRANCH   4   7
ATOM      7  C   UNL     1      -1.551  12.282  19.214  0.00  0.00    +0.000 A 
ATOM      8  N   UNL     1      -2.519  12.630  20.041  0.00  0.00    +0.000 NA
ATOM      9  C   UNL     1      -3.761  12.219  19.541  0.00  0.00    +0.000 A 
ATOM     10  C   UNL     1      -5.025  12.357  20.161  0.00  0.00    +0.000 A 
ATOM     11  C   UNL     1      -6.171  11.808  19.560  0.00  0.00    +0.000 A 
ATOM     12  C   UNL     1      -6.080  11.134  18.346  0.00  0.00    +0.000 A 
ATOM     13  C   UNL     1      -4.852  11.021  17.694  0.00  0.00    +0.000 A 
ATOM     14  C   UNL     1      -3.712  11.570  18.305  0.00  0.00    +0.000 A 
ATOM     15  S   UNL     1      -2.094  11.573  17.733  0.00  0.00    +0.000 S 
ENDBRANCH   4   7
BRANCH   1  16
ATOM     16  C   UNL     1       0.695   8.430  21.160  0.00  0.00    +0.000 C 
BRANCH  16  20
ATOM     17  O   UNL     1       3.825   6.594  17.992  0.00  0.00    +0.000 OA
ATOM     18  C   UNL     1       3.023   6.366  18.895  0.00  0.00    +0.000 A 
ATOM     19  C   UNL     1       2.347   7.505  19.539  0.00  0.00    +0.000 A 
ATOM     20  C   UNL     1       1.496   7.273  20.545  0.00  0.00    +0.000 A 
ATOM     21  N   UNL     1       1.259   6.012  21.038  0.00  0.00    +0.000 NA
ATOM     22  C   UNL     1       1.792   5.004  20.428  0.00  0.00    +0.000 A 
ATOM     23  C   UNL     1       1.442   3.625  20.880  0.00  0.00    +0.000 A 
ATOM     24  C   UNL     1       1.975   2.564  20.265  0.00  0.00    +0.000 A 
ATOM     25  C   UNL     1       2.900   2.744  19.175  0.00  0.00    +0.000 A 
ATOM     26 CL   UNL     1       3.568   1.349  18.422  0.00  0.00    +0.000 Cl
ATOM     27  C   UNL     1       3.217   3.978  18.764  0.00  0.00    +0.000 A 
ATOM     28  N   UNL     1       2.670   5.109  19.359  0.00  0.00    +0.000 N 
ENDBRANCH  16  20
ENDBRANCH   1  16
TORSDOF 3
ENDMDL
