MODEL 1
REMARK VINA RESULT:      -8.7      0.000      0.000
REMARK  Name = 
REMARK  5 active torsions:
REMARK  status: ('A' for Active; 'I' for Inactive)
REMARK    1  A    between atoms: C_1  and  C_2
REMARK    2  A    between atoms: C_4  and  C_5
REMARK    3  A    between atoms: C_9  and  N_10
REMARK    4  A    between atoms: C_11  and  C_13
REMARK    5  A    between atoms: C_18  and  N_19
REMARK                            x       y       z     vdW  Elec       q    Type
REMARK                         _______ _______ _______ _____ _____    ______ ____
ROOT
ATOM      1  N   UNL     1       2.982   7.542  18.790  0.00  0.00    +0.000 N 
ATOM      2  C   UNL     1       2.905   6.334  18.102  0.00  0.00    +0.000 C 
ATOM      3  O   UNL     1       1.876   5.681  17.937  0.00  0.00    +0.000 OA
ATOM      4  H   UNL     1       3.890   7.970  18.895  0.00  0.00    +0.000 HD
ENDROOT
BRANCH   1   9
ATOM      5  C   UNL     1      -0.017   9.743  19.052  0.00  0.00    +0.000 A 
ATOM      6  C   UNL     1      -0.327   9.620  20.413  0.00  0.00    +0.000 A 
ATOM      7  C   UNL     1       0.459   8.834  21.246  0.00  0.00    +0.000 A 
ATOM      8  C   UNL     1       1.561   8.154  20.726  0.00  0.00    +0.000 A 
ATOM      9  C   UNL     1       1.894   8.247  19.373  0.00  0.00    +0.000 A 
ATOM     10  C   UNL     1       1.102   9.058  18.542  0.00  0.00    +0.000 A 
BRANCH   5  14
ATOM     11  C   UNL     1      -3.250  10.977  15.544  0.00  0.00    +0.000 C 
ATOM     12  C   UNL     1      -2.288  11.001  16.665  0.00  0.00    +0.000 A 
ATOM     13  N   UNL     1      -1.714   9.978  17.255  0.00  0.00    +0.000 NA
ATOM     14  C   UNL     1      -0.885  10.553  18.199  0.00  0.00    +0.000 A 
ATOM     15  N   UNL     1      -0.935  11.894  18.212  0.00  0.00    +0.000 NA
ATOM     16  N   UNL     1      -1.819  12.150  17.233  0.00  0.00    +0.000 N 
ATOM     17  H   UNL     1      -2.046  13.110  17.006  0.00  0.00    +0.000 HD
ENDBRANCH   5  14
ENDBRANCH   1   9
BRANCH   2  18
ATOM     18  C   UNL     1       4.184   5.763  17.576  0.00  0.00    +0.000 A 
ATOM     19  C   UNL     1       5.002   6.626  16.813  0.00  0.00    +0.000 A 
ATOM     20  C   UNL     1       6.317   6.278  16.508  0.00  0.00    +0.000 A 
ATOM     21  C   UNL     1       6.836   5.087  16.990  0.00  0.00    +0.000 A 
ATOM     22  C   UNL     1       6.021   4.214  17.714  0.00  0.00    +0.000 A 
ATOM     23  C   UNL     1       4.667   4.494  18.000  0.00  0.00    +0.000 A 
BRANCH  23  24
ATOM     24  N   UNL     1       3.911   3.499  18.596  0.00  0.00    +0.000 N 
ATOM     25  C   UNL     1       3.263   2.417  17.835  0.00  0.00    +0.000 C 
ATOM     26  C   UNL     1       1.803   2.281  18.303  0.00  0.00    +0.000 C 
ATOM     27  O   UNL     1       1.721   2.050  19.721  0.00  0.00    +0.000 OA
ATOM     28  C   UNL     1       2.346   3.127  20.443  0.00  0.00    +0.000 C 
ATOM     29  C   UNL     1       3.827   3.307  20.052  0.00  0.00    +0.000 C 
ENDBRANCH  23  24
ENDBRANCH   2  18
TORSDOF 4
ENDMDL
MODEL 2
REMARK VINA RESULT:      -8.6      1.558      1.877
REMARK  Name = 
REMARK  5 active torsions:
REMARK  status: ('A' for Active; 'I' for Inactive)
REMARK    1  A    between atoms: C_1  and  C_2
REMARK    2  A    between atoms: C_4  and  C_5
REMARK    3  A    between atoms: C_9  and  N_10
REMARK    4  A    between atoms: C_11  and  C_13
REMARK    5  A    between atoms: C_18  and  N_19
REMARK                            x       y       z     vdW  Elec       q    Type
REMARK                         _______ _______ _______ _____ _____    ______ ____
ROOT
ATOM      1  N   UNL     1       2.688   7.205  18.019  0.00  0.00    +0.000 N 
ATOM      2  C   UNL     1       3.645   6.250  18.351  0.00  0.00    +0.000 C 
ATOM      3  O   UNL     1       4.050   6.026  19.490  0.00  0.00    +0.000 OA
ATOM      4  H   UNL     1       2.461   7.327  17.042  0.00  0.00    +0.000 HD
ENDROOT
BRANCH   1   9
ATOM      5  C   UNL     1       0.714  10.103  19.289  0.00  0.00    +0.000 A 
ATOM      6  C   UNL     1       0.516   9.733  20.626  0.00  0.00    +0.000 A 
ATOM      7  C   UNL     1       1.047   8.545  21.114  0.00  0.00    +0.000 A 
ATOM      8  C   UNL     1       1.776   7.709  20.267  0.00  0.00    +0.000 A 
ATOM      9  C   UNL     1       1.987   8.042  18.928  0.00  0.00    +0.000 A 
ATOM     10  C   UNL     1       1.459   9.254  18.448  0.00  0.00    +0.000 A 
BRANCH   5  14
ATOM     11  C   UNL     1      -0.175  14.910  18.673  0.00  0.00    +0.000 C 
ATOM     12  C   UNL     1      -0.205  13.435  18.591  0.00  0.00    +0.000 A 
ATOM     13  N   UNL     1       0.603  12.580  19.175  0.00  0.00    +0.000 NA
ATOM     14  C   UNL     1       0.114  11.343  18.802  0.00  0.00    +0.000 A 
ATOM     15  N   UNL     1      -0.964  11.410  18.005  0.00  0.00    +0.000 NA
ATOM     16  N   UNL     1      -1.148  12.737  17.895  0.00  0.00    +0.000 N 
ATOM     17  H   UNL     1      -1.922  13.088  17.346  0.00  0.00    +0.000 HD
ENDBRANCH   5  14
ENDBRANCH   1   9
BRANCH   2  18
ATOM     18  C   UNL     1       4.266   5.482  17.226  0.00  0.00    +0.000 A 
ATOM     19  C   UNL     1       4.957   6.231  16.248  0.00  0.00    +0.000 A 
ATOM     20  C   UNL     1       5.783   5.601  15.320  0.00  0.00    +0.000 A 
ATOM     21  C   UNL     1       5.956   4.227  15.383  0.00  0.00    +0.000 A 
ATOM     22  C   UNL     1       5.248   3.478  16.326  0.00  0.00    +0.000 A 
ATOM     23  C   UNL     1       4.355   4.063  17.250  0.00  0.00    +0.000 A 
BRANCH  23  24
ATOM     24  N   UNL     1       3.596   3.218  18.041  0.00  0.00    +0.000 N 
ATOM     25  C   UNL     1       2.251   2.752  17.660  0.00  0.00    +0.000 C 
ATOM     26  C   UNL     1       1.302   2.930  18.858  0.00  0.00    +0.000 C 
ATOM     27  O   UNL     1       1.787   2.242  20.025  0.00  0.00    +0.000 OA
ATOM     28  C   UNL     1       3.094   2.725  20.387  0.00  0.00    +0.000 C 
ATOM     29  C   UNL     1       4.115   2.551  19.244  0.00  0.00    +0.000 C 
ENDBRANCH  23  24
ENDBRANCH   2  18
TORSDOF 4
ENDMDL
MODEL 3
REMARK VINA RESULT:      -8.4      1.025      1.025
REMARK  Name = 
REMARK  5 active torsions:
REMARK  status: ('A' for Active; 'I' for Inactive)
REMARK    1  A    between atoms: C_1  and  C_2
REMARK    2  A    between atoms: C_4  and  C_5
REMARK    3  A    between atoms: C_9  and  N_10
REMARK    4  A    between atoms: C_11  and  C_13
REMARK    5  A    between atoms: C_18  and  N_19
REMARK                            x       y       z     vdW  Elec       q    Type
REMARK                         _______ _______ _______ _____ _____    ______ ____
ROOT
ATOM      1  N   UNL     1       2.622   7.239  17.964  0.00  0.00    +0.000 N 
ATOM      2  C   UNL     1       3.551   6.271  18.337  0.00  0.00    +0.000 C 
ATOM      3  O   UNL     1       3.869   6.010  19.496  0.00  0.00    +0.000 OA
ATOM      4  H   UNL     1       2.470   7.393  16.978  0.00  0.00    +0.000 HD
ENDROOT
BRANCH   1   9
ATOM      5  C   UNL     1       0.140   9.778  19.106  0.00  0.00    +0.000 A 
ATOM      6  C   UNL     1       0.236   9.646  20.497  0.00  0.00    +0.000 A 
ATOM      7  C   UNL     1       1.128   8.741  21.059  0.00  0.00    +0.000 A 
ATOM      8  C   UNL     1       1.930   7.951  20.235  0.00  0.00    +0.000 A 
ATOM      9  C   UNL     1       1.855   8.050  18.844  0.00  0.00    +0.000 A 
ATOM     10  C   UNL     1       0.961   8.979  18.285  0.00  0.00    +0.000 A 
BRANCH   5  14
ATOM     11  C   UNL     1      -3.919  11.518  16.921  0.00  0.00    +0.000 C 
ATOM     12  C   UNL     1      -2.614  11.385  17.599  0.00  0.00    +0.000 A 
ATOM     13  N   UNL     1      -2.045  10.289  18.044  0.00  0.00    +0.000 NA
ATOM     14  C   UNL     1      -0.833  10.716  18.549  0.00  0.00    +0.000 A 
ATOM     15  N   UNL     1      -0.640  12.040  18.434  0.00  0.00    +0.000 NA
ATOM     16  N   UNL     1      -1.771  12.435  17.827  0.00  0.00    +0.000 N 
ATOM     17  H   UNL     1      -1.897  13.412  17.596  0.00  0.00    +0.000 HD
ENDBRANCH   5  14
ENDBRANCH   1   9
BRANCH   2  18
ATOM     18  C   UNL     1       4.254   5.537  17.239  0.00  0.00    +0.000 A 
ATOM     19  C   UNL     1       4.959   6.320  16.298  0.00  0.00    +0.000 A 
ATOM     20  C   UNL     1       5.852   5.730  15.406  0.00  0.00    +0.000 A 
ATOM     21  C   UNL     1       6.078   4.364  15.470  0.00  0.00    +0.000 A 
ATOM     22  C   UNL     1       5.357   3.581  16.375  0.00  0.00    +0.000 A 
ATOM     23  C   UNL     1       4.399   4.122  17.259  0.00  0.00    +0.000 A 
BRANCH  23  24
ATOM     24  N   UNL     1       3.639   3.242  18.009  0.00  0.00    +0.000 N 
ATOM     25  C   UNL     1       2.324   2.742  17.574  0.00  0.00    +0.000 C 
ATOM     26  C   UNL     1       1.329   2.871  18.740  0.00  0.00    +0.000 C 
ATOM     27  O   UNL     1       1.794   2.179  19.913  0.00  0.00    +0.000 OA
ATOM     28  C   UNL     1       3.071   2.695  20.328  0.00  0.00    +0.000 C 
ATOM     29  C   UNL     1       4.136   2.571  19.220  0.00  0.00    +0.000 C 
ENDBRANCH  23  24
ENDBRANCH   2  18
TORSDOF 4
ENDMDL
MODEL 4
REMARK VINA RESULT:      -8.4      2.359      4.140
REMARK  Name = 
REMARK  5 active torsions:
REMARK  status: ('A' for Active; 'I' for Inactive)
REMARK    1  A    between atoms: C_1  and  C_2
REMARK    2  A    between atoms: C_4  and  C_5
REMARK    3  A    between atoms: C_9  and  N_10
REMARK    4  A    between atoms: C_11  and  C_13
REMARK    5  A    between atoms: C_18  and  N_19
REMARK                            x       y       z     vdW  Elec       q    Type
REMARK                         _______ _______ _______ _____ _____    ______ ____
ROOT
ATOM      1  N   UNL     1       2.363   6.965  20.067  0.00  0.00    +0.000 N 
ATOM      2  C   UNL     1       2.488   5.846  19.246  0.00  0.00    +0.000 C 
ATOM      3  O   UNL     1       2.090   5.777  18.085  0.00  0.00    +0.000 OA
ATOM      4  H   UNL     1       2.693   6.894  21.018  0.00  0.00    +0.000 HD
ENDROOT
BRANCH   1   9
ATOM      5  C   UNL     1       0.446  10.153  20.336  0.00  0.00    +0.000 A 
ATOM      6  C   UNL     1       0.716  10.739  19.093  0.00  0.00    +0.000 A 
ATOM      7  C   UNL     1       1.507  10.080  18.160  0.00  0.00    +0.000 A 
ATOM      8  C   UNL     1       2.045   8.829  18.464  0.00  0.00    +0.000 A 
ATOM      9  C   UNL     1       1.805   8.218  19.697  0.00  0.00    +0.000 A 
ATOM     10  C   UNL     1       0.989   8.887  20.627  0.00  0.00    +0.000 A 
BRANCH   5  14
ATOM     11  C   UNL     1      -2.956  13.192  22.200  0.00  0.00    +0.000 C 
ATOM     12  C   UNL     1      -1.857  12.219  22.028  0.00  0.00    +0.000 A 
ATOM     13  N   UNL     1      -1.411  11.698  20.909  0.00  0.00    +0.000 NA
ATOM     14  C   UNL     1      -0.363  10.890  21.305  0.00  0.00    +0.000 A 
ATOM     15  N   UNL     1      -0.154  10.893  22.631  0.00  0.00    +0.000 NA
ATOM     16  N   UNL     1      -1.103  11.743  23.061  0.00  0.00    +0.000 N 
ATOM     17  H   UNL     1      -1.172  11.953  24.049  0.00  0.00    +0.000 HD
ENDBRANCH   5  14
ENDBRANCH   1   9
BRANCH   2  18
ATOM     18  C   UNL     1       3.102   4.622  19.848  0.00  0.00    +0.000 A 
ATOM     19  C   UNL     1       2.362   3.967  20.858  0.00  0.00    +0.000 A 
ATOM     20  C   UNL     1       2.717   2.690  21.288  0.00  0.00    +0.000 A 
ATOM     21  C   UNL     1       3.786   2.042  20.690  0.00  0.00    +0.000 A 
ATOM     22  C   UNL     1       4.542   2.699  19.716  0.00  0.00    +0.000 A 
ATOM     23  C   UNL     1       4.260   4.014  19.288  0.00  0.00    +0.000 A 
BRANCH  23  24
ATOM     24  N   UNL     1       5.157   4.622  18.427  0.00  0.00    +0.000 N 
ATOM     25  C   UNL     1       5.016   4.587  16.962  0.00  0.00    +0.000 C 
ATOM     26  C   UNL     1       6.369   4.203  16.338  0.00  0.00    +0.000 C 
ATOM     27  O   UNL     1       7.414   5.104  16.745  0.00  0.00    +0.000 OA
ATOM     28  C   UNL     1       7.544   5.110  18.178  0.00  0.00    +0.000 C 
ATOM     29  C   UNL     1       6.232   5.518  18.879  0.00  0.00    +0.000 C 
ENDBRANCH  23  24
ENDBRANCH   2  18
TORSDOF 4
ENDMDL
MODEL 5
REMARK VINA RESULT:      -8.2      2.299      4.208
REMARK  Name = 
REMARK  5 active torsions:
REMARK  status: ('A' for Active; 'I' for Inactive)
REMARK    1  A    between atoms: C_1  and  C_2
REMARK    2  A    between atoms: C_4  and  C_5
REMARK    3  A    between atoms: C_9  and  N_10
REMARK    4  A    between atoms: C_11  and  C_13
REMARK    5  A    between atoms: C_18  and  N_19
REMARK                            x       y       z     vdW  Elec       q    Type
REMARK                         _______ _______ _______ _____ _____    ______ ____
ROOT
ATOM      1  N   UNL     1       2.309   7.002  20.051  0.00  0.00    +0.000 N 
ATOM      2  C   UNL     1       2.509   5.912  19.208  0.00  0.00    +0.000 C 
ATOM      3  O   UNL     1       2.191   5.872  18.021  0.00  0.00    +0.000 OA
ATOM      4  H   UNL     1       2.576   6.906  21.020  0.00  0.00    +0.000 HD
ENDROOT
BRANCH   1   9
ATOM      5  C   UNL     1       0.412  10.201  20.329  0.00  0.00    +0.000 A 
ATOM      6  C   UNL     1       0.672  10.781  19.081  0.00  0.00    +0.000 A 
ATOM      7  C   UNL     1       1.450  10.115  18.142  0.00  0.00    +0.000 A 
ATOM      8  C   UNL     1       1.985   8.862  18.445  0.00  0.00    +0.000 A 
ATOM      9  C   UNL     1       1.753   8.257  19.683  0.00  0.00    +0.000 A 
ATOM     10  C   UNL     1       0.952   8.933  20.619  0.00  0.00    +0.000 A 
BRANCH   5  14
ATOM     11  C   UNL     1      -2.938  13.283  22.216  0.00  0.00    +0.000 C 
ATOM     12  C   UNL     1      -1.855  12.294  22.036  0.00  0.00    +0.000 A 
ATOM     13  N   UNL     1      -1.420  11.771  20.914  0.00  0.00    +0.000 NA
ATOM     14  C   UNL     1      -0.384  10.945  21.303  0.00  0.00    +0.000 A 
ATOM     15  N   UNL     1      -0.171  10.939  22.629  0.00  0.00    +0.000 NA
ATOM     16  N   UNL     1      -1.106  11.801  23.065  0.00  0.00    +0.000 N 
ATOM     17  H   UNL     1      -1.170  12.007  24.054  0.00  0.00    +0.000 HD
ENDBRANCH   5  14
ENDBRANCH   1   9
BRANCH   2  18
ATOM     18  C   UNL     1       3.104   4.679  19.812  0.00  0.00    +0.000 A 
ATOM     19  C   UNL     1       2.399   4.090  20.885  0.00  0.00    +0.000 A 
ATOM     20  C   UNL     1       2.723   2.812  21.335  0.00  0.00    +0.000 A 
ATOM     21  C   UNL     1       3.725   2.098  20.697  0.00  0.00    +0.000 A 
ATOM     22  C   UNL     1       4.449   2.689  19.659  0.00  0.00    +0.000 A 
ATOM     23  C   UNL     1       4.198   4.003  19.205  0.00  0.00    +0.000 A 
BRANCH  23  24
ATOM     24  N   UNL     1       5.067   4.543  18.273  0.00  0.00    +0.000 N 
ATOM     25  C   UNL     1       6.148   5.478  18.630  0.00  0.00    +0.000 C 
ATOM     26  C   UNL     1       6.114   6.675  17.663  0.00  0.00    +0.000 C 
ATOM     27  O   UNL     1       6.215   6.251  16.291  0.00  0.00    +0.000 OA
ATOM     28  C   UNL     1       5.140   5.352  15.963  0.00  0.00    +0.000 C 
ATOM     29  C   UNL     1       5.126   4.106  16.870  0.00  0.00    +0.000 C 
ENDBRANCH  23  24
ENDBRANCH   2  18
TORSDOF 4
ENDMDL
MODEL 6
REMARK VINA RESULT:      -8.2      1.128      1.531
REMARK  Name = 
REMARK  5 active torsions:
REMARK  status: ('A' for Active; 'I' for Inactive)
REMARK    1  A    between atoms: C_1  and  C_2
REMARK    2  A    between atoms: C_4  and  C_5
REMARK    3  A    between atoms: C_9  and  N_10
REMARK    4  A    between atoms: C_11  and  C_13
REMARK    5  A    between atoms: C_18  and  N_19
REMARK                            x       y       z     vdW  Elec       q    Type
REMARK                         _______ _______ _______ _____ _____    ______ ____
ROOT
ATOM      1  N   UNL     1       2.488   7.584  19.880  0.00  0.00    +0.000 N 
ATOM      2  C   UNL     1       2.710   7.146  18.576  0.00  0.00    +0.000 C 
ATOM      3  O   UNL     1       2.036   7.470  17.600  0.00  0.00    +0.000 OA
ATOM      4  H   UNL     1       3.084   7.220  20.609  0.00  0.00    +0.000 HD
ENDROOT
BRANCH   1   9
ATOM      5  C   UNL     1      -0.224  10.134  19.662  0.00  0.00    +0.000 A 
ATOM      6  C   UNL     1      -0.557  10.294  21.013  0.00  0.00    +0.000 A 
ATOM      7  C   UNL     1       0.122   9.583  21.995  0.00  0.00    +0.000 A 
ATOM      8  C   UNL     1       1.138   8.696  21.635  0.00  0.00    +0.000 A 
ATOM      9  C   UNL     1       1.490   8.505  20.297  0.00  0.00    +0.000 A 
ATOM     10  C   UNL     1       0.808   9.241  19.313  0.00  0.00    +0.000 A 
BRANCH   5  14
ATOM     11  C   UNL     1      -3.345  11.106  15.974  0.00  0.00    +0.000 C 
ATOM     12  C   UNL     1      -2.350  11.209  17.062  0.00  0.00    +0.000 A 
ATOM     13  N   UNL     1      -1.926  10.256  17.859  0.00  0.00    +0.000 NA
ATOM     14  C   UNL     1      -0.982  10.874  18.655  0.00  0.00    +0.000 A 
ATOM     15  N   UNL     1      -0.814  12.177  18.376  0.00  0.00    +0.000 NA
ATOM     16  N   UNL     1      -1.681  12.359  17.366  0.00  0.00    +0.000 N 
ATOM     17  H   UNL     1      -1.759  13.273  16.935  0.00  0.00    +0.000 HD
ENDBRANCH   5  14
ENDBRANCH   1   9
BRANCH   2  18
ATOM     18  C   UNL     1       3.817   6.162  18.364  0.00  0.00    +0.000 A 
ATOM     19  C   UNL     1       4.939   6.611  17.631  0.00  0.00    +0.000 A 
ATOM     20  C   UNL     1       6.118   5.870  17.607  0.00  0.00    +0.000 A 
ATOM     21  C   UNL     1       6.202   4.697  18.341  0.00  0.00    +0.000 A 
ATOM     22  C   UNL     1       5.084   4.231  19.037  0.00  0.00    +0.000 A 
ATOM     23  C   UNL     1       3.849   4.915  19.046  0.00  0.00    +0.000 A 
BRANCH  23  24
ATOM     24  N   UNL     1       2.768   4.293  19.646  0.00  0.00    +0.000 N 
ATOM     25  C   UNL     1       2.463   4.417  21.081  0.00  0.00    +0.000 C 
ATOM     26  C   UNL     1       2.184   3.018  21.657  0.00  0.00    +0.000 C 
ATOM     27  O   UNL     1       1.121   2.356  20.948  0.00  0.00    +0.000 OA
ATOM     28  C   UNL     1       1.449   2.232  19.552  0.00  0.00    +0.000 C 
ATOM     29  C   UNL     1       1.712   3.600  18.892  0.00  0.00    +0.000 C 
ENDBRANCH  23  24
ENDBRANCH   2  18
TORSDOF 4
ENDMDL
MODEL 7
REMARK VINA RESULT:      -8.0      1.497      2.071
REMARK  Name = 
REMARK  5 active torsions:
REMARK  status: ('A' for Active; 'I' for Inactive)
REMARK    1  A    between atoms: C_1  and  C_2
REMARK    2  A    between atoms: C_4  and  C_5
REMARK    3  A    between atoms: C_9  and  N_10
REMARK    4  A    between atoms: C_11  and  C_13
REMARK    5  A    between atoms: C_18  and  N_19
REMARK                            x       y       z     vdW  Elec       q    Type
REMARK                         _______ _______ _______ _____ _____    ______ ____
ROOT
ATOM      1  N   UNL     1       1.790   8.515  17.966  0.00  0.00    +0.000 N 
ATOM      2  C   UNL     1       2.436   7.490  18.653  0.00  0.00    +0.000 C 
ATOM      3  O   UNL     1       2.341   7.284  19.862  0.00  0.00    +0.000 OA
ATOM      4  H   UNL     1       1.975   8.612  16.978  0.00  0.00    +0.000 HD
ENDROOT
BRANCH   1   9
ATOM      5  C   UNL     1      -1.196  10.726  18.282  0.00  0.00    +0.000 A 
ATOM      6  C   UNL     1      -1.007  11.258  19.564  0.00  0.00    +0.000 A 
ATOM      7  C   UNL     1       0.109  10.908  20.315  0.00  0.00    +0.000 A 
ATOM      8  C   UNL     1       1.046  10.015  19.793  0.00  0.00    +0.000 A 
ATOM      9  C   UNL     1       0.885   9.459  18.522  0.00  0.00    +0.000 A 
ATOM     10  C   UNL     1      -0.239   9.832  17.765  0.00  0.00    +0.000 A 
BRANCH   5  14
ATOM     11  C   UNL     1      -5.834  12.075  17.304  0.00  0.00    +0.000 C 
ATOM     12  C   UNL     1      -4.414  11.677  17.199  0.00  0.00    +0.000 A 
ATOM     13  N   UNL     1      -3.559  11.481  18.175  0.00  0.00    +0.000 NA
ATOM     14  C   UNL     1      -2.398  11.092  17.535  0.00  0.00    +0.000 A 
ATOM     15  N   UNL     1      -2.511  11.047  16.198  0.00  0.00    +0.000 NA
ATOM     16  N   UNL     1      -3.791  11.412  16.014  0.00  0.00    +0.000 N 
ATOM     17  H   UNL     1      -4.167  11.453  15.075  0.00  0.00    +0.000 HD
ENDBRANCH   5  14
ENDBRANCH   1   9
BRANCH   2  18
ATOM     18  C   UNL     1       3.359   6.614  17.867  0.00  0.00    +0.000 A 
ATOM     19  C   UNL     1       4.238   7.257  16.968  0.00  0.00    +0.000 A 
ATOM     20  C   UNL     1       5.303   6.566  16.394  0.00  0.00    +0.000 A 
ATOM     21  C   UNL     1       5.521   5.241  16.739  0.00  0.00    +0.000 A 
ATOM     22  C   UNL     1       4.634   4.591  17.600  0.00  0.00    +0.000 A 
ATOM     23  C   UNL     1       3.508   5.230  18.162  0.00  0.00    +0.000 A 
BRANCH  23  24
ATOM     24  N   UNL     1       2.615   4.456  18.883  0.00  0.00    +0.000 N 
ATOM     25  C   UNL     1       2.751   4.208  20.328  0.00  0.00    +0.000 C 
ATOM     26  C   UNL     1       2.572   2.703  20.597  0.00  0.00    +0.000 C 
ATOM     27  O   UNL     1       1.312   2.222  20.095  0.00  0.00    +0.000 OA
ATOM     28  C   UNL     1       1.210   2.461  18.679  0.00  0.00    +0.000 C 
ATOM     29  C   UNL     1       1.347   3.956  18.331  0.00  0.00    +0.000 C 
ENDBRANCH  23  24
ENDBRANCH   2  18
TORSDOF 4
ENDMDL
MODEL 8
REMARK VINA RESULT:      -8.0      2.441      4.319
REMARK  Name = 
REMARK  5 active torsions:
REMARK  status: ('A' for Active; 'I' for Inactive)
REMARK    1  A    between atoms: C_1  and  C_2
REMARK    2  A    between atoms: C_4  and  C_5
REMARK    3  A    between atoms: C_9  and  N_10
REMARK    4  A    between atoms: C_11  and  C_13
REMARK    5  A    between atoms: C_18  and  N_19
REMARK                            x       y       z     vdW  Elec       q    Type
REMARK                         _______ _______ _______ _____ _____    ______ ____
ROOT
ATOM      1  N   UNL     1       2.611   6.505  19.089  0.00  0.00    +0.000 N 
ATOM      2  C   UNL     1       2.198   5.455  18.271  0.00  0.00    +0.000 C 
ATOM      3  O   UNL     1       1.307   5.530  17.427  0.00  0.00    +0.000 OA
ATOM      4  H   UNL     1       3.328   6.316  19.774  0.00  0.00    +0.000 HD
ENDROOT
BRANCH   1   9
ATOM      5  C   UNL     1       0.882   9.615  20.204  0.00  0.00    +0.000 A 
ATOM      6  C   UNL     1       1.158  10.478  19.136  0.00  0.00    +0.000 A 
ATOM      7  C   UNL     1       1.893  10.034  18.043  0.00  0.00    +0.000 A 
ATOM      8  C   UNL     1       2.366   8.722  18.010  0.00  0.00    +0.000 A 
ATOM      9  C   UNL     1       2.117   7.836  19.060  0.00  0.00    +0.000 A 
ATOM     10  C   UNL     1       1.359   8.291  20.154  0.00  0.00    +0.000 A 
BRANCH   5  14
ATOM     11  C   UNL     1      -1.566  12.709  23.156  0.00  0.00    +0.000 C 
ATOM     12  C   UNL     1      -0.912  11.523  22.565  0.00  0.00    +0.000 A 
ATOM     13  N   UNL     1      -0.353  11.417  21.383  0.00  0.00    +0.000 NA
ATOM     14  C   UNL     1       0.134  10.125  21.352  0.00  0.00    +0.000 A 
ATOM     15  N   UNL     1      -0.111   9.432  22.475  0.00  0.00    +0.000 NA
ATOM     16  N   UNL     1      -0.763  10.337  23.224  0.00  0.00    +0.000 N 
ATOM     17  H   UNL     1      -1.066  10.085  24.157  0.00  0.00    +0.000 HD
ENDBRANCH   5  14
ENDBRANCH   1   9
BRANCH   2  18
ATOM     18  C   UNL     1       2.852   4.126  18.480  0.00  0.00    +0.000 A 
ATOM     19  C   UNL     1       2.078   3.126  19.109  0.00  0.00    +0.000 A 
ATOM     20  C   UNL     1       2.494   1.796  19.109  0.00  0.00    +0.000 A 
ATOM     21  C   UNL     1       3.665   1.448  18.453  0.00  0.00    +0.000 A 
ATOM     22  C   UNL     1       4.452   2.439  17.860  0.00  0.00    +0.000 A 
ATOM     23  C   UNL     1       4.103   3.807  17.882  0.00  0.00    +0.000 A 
BRANCH  23  24
ATOM     24  N   UNL     1       5.023   4.718  17.395  0.00  0.00    +0.000 N 
ATOM     25  C   UNL     1       5.039   5.174  15.995  0.00  0.00    +0.000 C 
ATOM     26  C   UNL     1       6.480   5.099  15.460  0.00  0.00    +0.000 C 
ATOM     27  O   UNL     1       7.388   5.864  16.273  0.00  0.00    +0.000 OA
ATOM     28  C   UNL     1       7.366   5.390  17.632  0.00  0.00    +0.000 C 
ATOM     29  C   UNL     1       5.956   5.464  18.252  0.00  0.00    +0.000 C 
ENDBRANCH  23  24
ENDBRANCH   2  18
TORSDOF 4
ENDMDL
MODEL 9
REMARK VINA RESULT:      -8.0      1.750      2.332
REMARK  Name = 
REMARK  5 active torsions:
REMARK  status: ('A' for Active; 'I' for Inactive)
REMARK    1  A    between atoms: C_1  and  C_2
REMARK    2  A    between atoms: C_4  and  C_5
REMARK    3  A    between atoms: C_9  and  N_10
REMARK    4  A    between atoms: C_11  and  C_13
REMARK    5  A    between atoms: C_18  and  N_19
REMARK                            x       y       z     vdW  Elec       q    Type
REMARK                         _______ _______ _______ _____ _____    ______ ____
ROOT
ATOM      1  N   UNL     1       2.369   7.639  19.890  0.00  0.00    +0.000 N 
ATOM      2  C   UNL     1       2.552   7.269  18.559  0.00  0.00    +0.000 C 
ATOM      3  O   UNL     1       1.859   7.655  17.620  0.00  0.00    +0.000 OA
ATOM      4  H   UNL     1       2.976   7.227  20.583  0.00  0.00    +0.000 HD
ENDROOT
BRANCH   1   9
ATOM      5  C   UNL     1       0.153  10.634  20.051  0.00  0.00    +0.000 A 
ATOM      6  C   UNL     1      -0.564  10.379  21.227  0.00  0.00    +0.000 A 
ATOM      7  C   UNL     1      -0.306   9.238  21.976  0.00  0.00    +0.000 A 
ATOM      8  C   UNL     1       0.668   8.333  21.553  0.00  0.00    +0.000 A 
ATOM      9  C   UNL     1       1.396   8.551  20.381  0.00  0.00    +0.000 A 
ATOM     10  C   UNL     1       1.139   9.716  19.639  0.00  0.00    +0.000 A 
BRANCH   5  14
ATOM     11  C   UNL     1      -0.152  15.363  18.699  0.00  0.00    +0.000 C 
ATOM     12  C   UNL     1      -0.255  13.890  18.760  0.00  0.00    +0.000 A 
ATOM     13  N   UNL     1       0.256  13.084  19.661  0.00  0.00    +0.000 NA
ATOM     14  C   UNL     1      -0.168  11.828  19.271  0.00  0.00    +0.000 A 
ATOM     15  N   UNL     1      -0.918  11.836  18.158  0.00  0.00    +0.000 NA
ATOM     16  N   UNL     1      -0.963  13.146  17.861  0.00  0.00    +0.000 N 
ATOM     17  H   UNL     1      -1.488  13.456  17.053  0.00  0.00    +0.000 HD
ENDBRANCH   5  14
ENDBRANCH   1   9
BRANCH   2  18
ATOM     18  C   UNL     1       3.637   6.281  18.266  0.00  0.00    +0.000 A 
ATOM     19  C   UNL     1       4.716   6.734  17.475  0.00  0.00    +0.000 A 
ATOM     20  C   UNL     1       5.886   5.986  17.369  0.00  0.00    +0.000 A 
ATOM     21  C   UNL     1       6.005   4.801  18.079  0.00  0.00    +0.000 A 
ATOM     22  C   UNL     1       4.928   4.332  18.834  0.00  0.00    +0.000 A 
ATOM     23  C   UNL     1       3.700   5.023  18.927  0.00  0.00    +0.000 A 
BRANCH  23  24
ATOM     24  N   UNL     1       2.652   4.399  19.581  0.00  0.00    +0.000 N 
ATOM     25  C   UNL     1       2.438   4.498  21.035  0.00  0.00    +0.000 C 
ATOM     26  C   UNL     1       2.182   3.090  21.600  0.00  0.00    +0.000 C 
ATOM     27  O   UNL     1       1.070   2.451  20.946  0.00  0.00    +0.000 OA
ATOM     28  C   UNL     1       1.309   2.352  19.531  0.00  0.00    +0.000 C 
ATOM     29  C   UNL     1       1.544   3.731  18.882  0.00  0.00    +0.000 C 
ENDBRANCH  23  24
ENDBRANCH   2  18
TORSDOF 4
ENDMDL
