MODEL 1
REMARK VINA RESULT:      -8.9      0.000      0.000
REMARK  Name = 
REMARK  7 active torsions:
REMARK  status: ('A' for Active; 'I' for Inactive)
REMARK    1  A    between atoms: C_1  and  N_2
REMARK    2  A    between atoms: C_6  and  C_7
REMARK    3  A    between atoms: C_7  and  C_8
REMARK    4  A    between atoms: C_8  and  C_9
REMARK    5  A    between atoms: C_13  and  N_14
REMARK    6  A    between atoms: C_15  and  C_17
REMARK    7  A    between atoms: C_19  and  C_20
REMARK                            x       y       z     vdW  Elec       q    Type
REMARK                         _______ _______ _______ _____ _____    ______ ____
ROOT
ATOM      1  C   UNL     1       4.906   4.305  17.120  0.00  0.00    +0.000 A 
ATOM      2  C   UNL     1       5.479   3.533  16.090  0.00  0.00    +0.000 A 
ATOM      3  C   UNL     1       6.509   4.022  15.292  0.00  0.00    +0.000 A 
ATOM      4  C   UNL     1       6.999   5.307  15.501  0.00  0.00    +0.000 A 
ATOM      5  C   UNL     1       6.465   6.114  16.506  0.00  0.00    +0.000 A 
ATOM      6  C   UNL     1       5.440   5.599  17.310  0.00  0.00    +0.000 A 
ENDROOT
BRANCH   1   7
ATOM      7  C   UNL     1       3.694   3.739  18.012  0.00  0.00    +0.000 C 
ATOM      8  C   UNL     1       2.273   3.703  17.380  0.00  0.00    +0.000 C 
ATOM      9  O   UNL     1       2.192   2.267  17.489  0.00  0.00    +0.000 OA
ATOM     10  C   UNL     1       3.533   2.190  18.002  0.00  0.00    +0.000 C 
BRANCH   7  11
ATOM     11  C   UNL     1       3.766   4.302  19.447  0.00  0.00    +0.000 C 
BRANCH  11  17
ATOM     12  C   UNL     1       0.728   4.537  20.342  0.00  0.00    +0.000 C 
ATOM     13  N   UNL     1       1.725   3.630  20.847  0.00  0.00    +0.000 N 
ATOM     14  C   UNL     1       1.523   2.737  21.856  0.00  0.00    +0.000 A 
ATOM     15  N   UNL     1       2.621   2.053  22.063  0.00  0.00    +0.000 NA
ATOM     16  N   UNL     1       3.570   2.518  21.188  0.00  0.00    +0.000 NA
ATOM     17  C   UNL     1       3.035   3.480  20.459  0.00  0.00    +0.000 A 
ENDBRANCH  11  17
ENDBRANCH   7  11
ENDBRANCH   1   7
BRANCH   5  18
ATOM     18  N   UNL     1       6.881   7.449  16.748  0.00  0.00    +0.000 N 
ATOM     19  C   UNL     1       7.753   7.851  17.733  0.00  0.00    +0.000 C 
ATOM     20  O   UNL     1       8.252   7.153  18.609  0.00  0.00    +0.000 OA
ATOM     21  H   UNL     1       6.529   8.141  16.100  0.00  0.00    +0.000 HD
BRANCH  19  22
ATOM     22  C   UNL     1       8.085   9.300  17.670  0.00  0.00    +0.000 C 
ATOM     23  C   UNL     1       8.794   9.808  18.634  0.00  0.00    +0.000 C 
ATOM     24  C   UNL     1       9.510  10.142  19.671  0.00  0.00    +0.000 C 
BRANCH  24  25
ATOM     25  C   UNL     1       9.974  11.494  20.051  0.00  0.00    +0.000 C 
ATOM     26  F   UNL     1      11.248  11.709  19.638  0.00  0.00    +0.000 F 
ATOM     27  F   UNL     1       9.209  12.467  19.498  0.00  0.00    +0.000 F 
ATOM     28  F   UNL     1       9.956  11.681  21.392  0.00  0.00    +0.000 F 
ENDBRANCH  24  25
ENDBRANCH  19  22
ENDBRANCH   5  18
TORSDOF 6
ENDMDL
MODEL 2
REMARK VINA RESULT:      -8.8      6.166      7.799
REMARK  Name = 
REMARK  7 active torsions:
REMARK  status: ('A' for Active; 'I' for Inactive)
REMARK    1  A    between atoms: C_1  and  N_2
REMARK    2  A    between atoms: C_6  and  C_7
REMARK    3  A    between atoms: C_7  and  C_8
REMARK    4  A    between atoms: C_8  and  C_9
REMARK    5  A    between atoms: C_13  and  N_14
REMARK    6  A    between atoms: C_15  and  C_17
REMARK    7  A    between atoms: C_19  and  C_20
REMARK                            x       y       z     vdW  Elec       q    Type
REMARK                         _______ _______ _______ _____ _____    ______ ____
ROOT
ATOM      1  C   UNL     1       2.486   7.362  18.668  0.00  0.00    +0.000 A 
ATOM      2  C   UNL     1       2.633   8.336  17.662  0.00  0.00    +0.000 A 
ATOM      3  C   UNL     1       2.046   9.594  17.766  0.00  0.00    +0.000 A 
ATOM      4  C   UNL     1       1.287   9.915  18.886  0.00  0.00    +0.000 A 
ATOM      5  C   UNL     1       1.108   8.985  19.911  0.00  0.00    +0.000 A 
ATOM      6  C   UNL     1       1.720   7.731  19.796  0.00  0.00    +0.000 A 
ENDROOT
BRANCH   1   7
ATOM      7  C   UNL     1       3.143   5.902  18.519  0.00  0.00    +0.000 C 
ATOM      8  C   UNL     1       4.115   5.653  17.331  0.00  0.00    +0.000 C 
ATOM      9  O   UNL     1       5.222   5.370  18.211  0.00  0.00    +0.000 OA
ATOM     10  C   UNL     1       4.425   5.663  19.372  0.00  0.00    +0.000 C 
BRANCH   7  11
ATOM     11  C   UNL     1       2.084   4.803  18.749  0.00  0.00    +0.000 C 
BRANCH  11  17
ATOM     12  C   UNL     1       3.587   2.017  18.995  0.00  0.00    +0.000 C 
ATOM     13  N   UNL     1       2.945   2.763  20.044  0.00  0.00    +0.000 N 
ATOM     14  C   UNL     1       2.836   2.349  21.337  0.00  0.00    +0.000 A 
ATOM     15  N   UNL     1       2.212   3.262  22.039  0.00  0.00    +0.000 NA
ATOM     16  N   UNL     1       1.886   4.288  21.188  0.00  0.00    +0.000 NA
ATOM     17  C   UNL     1       2.317   3.984  19.978  0.00  0.00    +0.000 A 
ENDBRANCH  11  17
ENDBRANCH   7  11
ENDBRANCH   1   7
BRANCH   5  18
ATOM     18  N   UNL     1       0.311   9.224  21.060  0.00  0.00    +0.000 N 
ATOM     19  C   UNL     1       0.785   9.446  22.332  0.00  0.00    +0.000 C 
ATOM     20  O   UNL     1       1.952   9.398  22.705  0.00  0.00    +0.000 OA
ATOM     21  H   UNL     1      -0.686   9.276  20.899  0.00  0.00    +0.000 HD
BRANCH  19  22
ATOM     22  C   UNL     1      -0.286   9.777  23.310  0.00  0.00    +0.000 C 
ATOM     23  C   UNL     1      -1.073  10.776  23.042  0.00  0.00    +0.000 C 
ATOM     24  C   UNL     1      -1.765  11.794  22.610  0.00  0.00    +0.000 C 
BRANCH  24  25
ATOM     25  C   UNL     1      -2.855  12.506  23.311  0.00  0.00    +0.000 C 
ATOM     26  F   UNL     1      -3.750  13.021  22.430  0.00  0.00    +0.000 F 
ATOM     27  F   UNL     1      -3.545  11.687  24.142  0.00  0.00    +0.000 F 
ATOM     28  F   UNL     1      -2.393  13.540  24.055  0.00  0.00    +0.000 F 
ENDBRANCH  24  25
ENDBRANCH  19  22
ENDBRANCH   5  18
TORSDOF 6
ENDMDL
MODEL 3
REMARK VINA RESULT:      -8.8      0.840      1.517
REMARK  Name = 
REMARK  7 active torsions:
REMARK  status: ('A' for Active; 'I' for Inactive)
REMARK    1  A    between atoms: C_1  and  N_2
REMARK    2  A    between atoms: C_6  and  C_7
REMARK    3  A    between atoms: C_7  and  C_8
REMARK    4  A    between atoms: C_8  and  C_9
REMARK    5  A    between atoms: C_13  and  N_14
REMARK    6  A    between atoms: C_15  and  C_17
REMARK    7  A    between atoms: C_19  and  C_20
REMARK                            x       y       z     vdW  Elec       q    Type
REMARK                         _______ _______ _______ _____ _____    ______ ____
ROOT
ATOM      1  C   UNL     1       4.438   4.891  17.373  0.00  0.00    +0.000 A 
ATOM      2  C   UNL     1       4.953   3.954  16.455  0.00  0.00    +0.000 A 
ATOM      3  C   UNL     1       6.097   4.212  15.706  0.00  0.00    +0.000 A 
ATOM      4  C   UNL     1       6.764   5.424  15.852  0.00  0.00    +0.000 A 
ATOM      5  C   UNL     1       6.295   6.388  16.746  0.00  0.00    +0.000 A 
ATOM      6  C   UNL     1       5.152   6.104  17.503  0.00  0.00    +0.000 A 
ENDROOT
BRANCH   1   7
ATOM      7  C   UNL     1       3.097   4.592  18.208  0.00  0.00    +0.000 C 
ATOM      8  C   UNL     1       1.747   5.107  17.634  0.00  0.00    +0.000 C 
ATOM      9  O   UNL     1       1.216   3.771  17.511  0.00  0.00    +0.000 OA
ATOM     10  C   UNL     1       2.457   3.195  17.952  0.00  0.00    +0.000 C 
BRANCH   7  11
ATOM     11  C   UNL     1       3.321   4.858  19.711  0.00  0.00    +0.000 C 
BRANCH  11  17
ATOM     12  C   UNL     1       4.526   2.052  20.582  0.00  0.00    +0.000 C 
ATOM     13  N   UNL     1       3.247   2.607  20.939  0.00  0.00    +0.000 N 
ATOM     14  C   UNL     1       2.305   1.970  21.689  0.00  0.00    +0.000 A 
ATOM     15  N   UNL     1       1.265   2.751  21.844  0.00  0.00    +0.000 NA
ATOM     16  N   UNL     1       1.519   3.917  21.166  0.00  0.00    +0.000 NA
ATOM     17  C   UNL     1       2.711   3.828  20.607  0.00  0.00    +0.000 A 
ENDBRANCH  11  17
ENDBRANCH   7  11
ENDBRANCH   1   7
BRANCH   5  18
ATOM     18  N   UNL     1       6.894   7.662  16.915  0.00  0.00    +0.000 N 
ATOM     19  C   UNL     1       7.858   7.979  17.844  0.00  0.00    +0.000 C 
ATOM     20  O   UNL     1       8.303   7.250  18.725  0.00  0.00    +0.000 OA
ATOM     21  H   UNL     1       6.605   8.373  16.256  0.00  0.00    +0.000 HD
BRANCH  19  22
ATOM     22  C   UNL     1       8.375   9.367  17.708  0.00  0.00    +0.000 C 
ATOM     23  C   UNL     1       8.961   9.905  18.735  0.00  0.00    +0.000 C 
ATOM     24  C   UNL     1       9.520  10.280  19.852  0.00  0.00    +0.000 C 
BRANCH  24  25
ATOM     25  C   UNL     1      10.074  11.610  20.183  0.00  0.00    +0.000 C 
ATOM     26  F   UNL     1       9.844  11.929  21.481  0.00  0.00    +0.000 F 
ATOM     27  F   UNL     1      11.415  11.662  19.995  0.00  0.00    +0.000 F 
ATOM     28  F   UNL     1       9.523  12.594  19.431  0.00  0.00    +0.000 F 
ENDBRANCH  24  25
ENDBRANCH  19  22
ENDBRANCH   5  18
TORSDOF 6
ENDMDL
MODEL 4
REMARK VINA RESULT:      -8.7      1.205      1.442
REMARK  Name = 
REMARK  7 active torsions:
REMARK  status: ('A' for Active; 'I' for Inactive)
REMARK    1  A    between atoms: C_1  and  N_2
REMARK    2  A    between atoms: C_6  and  C_7
REMARK    3  A    between atoms: C_7  and  C_8
REMARK    4  A    between atoms: C_8  and  C_9
REMARK    5  A    between atoms: C_13  and  N_14
REMARK    6  A    between atoms: C_15  and  C_17
REMARK    7  A    between atoms: C_19  and  C_20
REMARK                            x       y       z     vdW  Elec       q    Type
REMARK                         _______ _______ _______ _____ _____    ______ ____
ROOT
ATOM      1  C   UNL     1       4.850   4.942  17.535  0.00  0.00    +0.000 A 
ATOM      2  C   UNL     1       5.360   4.026  16.594  0.00  0.00    +0.000 A 
ATOM      3  C   UNL     1       6.459   4.330  15.796  0.00  0.00    +0.000 A 
ATOM      4  C   UNL     1       7.082   5.567  15.914  0.00  0.00    +0.000 A 
ATOM      5  C   UNL     1       6.615   6.512  16.828  0.00  0.00    +0.000 A 
ATOM      6  C   UNL     1       5.519   6.183  17.634  0.00  0.00    +0.000 A 
ENDROOT
BRANCH   1   7
ATOM      7  C   UNL     1       3.559   4.591  18.428  0.00  0.00    +0.000 C 
ATOM      8  C   UNL     1       3.209   5.533  19.614  0.00  0.00    +0.000 C 
ATOM      9  O   UNL     1       1.934   5.889  19.040  0.00  0.00    +0.000 OA
ATOM     10  C   UNL     1       2.204   5.109  17.862  0.00  0.00    +0.000 C 
BRANCH   7  11
ATOM     11  C   UNL     1       3.513   3.081  18.745  0.00  0.00    +0.000 C 
BRANCH  11  17
ATOM     12  C   UNL     1       0.438   2.492  19.277  0.00  0.00    +0.000 C 
ATOM     13  N   UNL     1       1.504   2.536  20.243  0.00  0.00    +0.000 N 
ATOM     14  C   UNL     1       1.342   2.376  21.587  0.00  0.00    +0.000 A 
ATOM     15  N   UNL     1       2.506   2.456  22.182  0.00  0.00    +0.000 NA
ATOM     16  N   UNL     1       3.450   2.693  21.215  0.00  0.00    +0.000 NA
ATOM     17  C   UNL     1       2.846   2.755  20.043  0.00  0.00    +0.000 A 
ENDBRANCH  11  17
ENDBRANCH   7  11
ENDBRANCH   1   7
BRANCH   5  18
ATOM     18  N   UNL     1       7.170   7.810  16.971  0.00  0.00    +0.000 N 
ATOM     19  C   UNL     1       8.089   8.188  17.922  0.00  0.00    +0.000 C 
ATOM     20  O   UNL     1       8.523   7.506  18.844  0.00  0.00    +0.000 OA
ATOM     21  H   UNL     1       6.884   8.488  16.277  0.00  0.00    +0.000 HD
BRANCH  19  22
ATOM     22  C   UNL     1       8.569   9.586  17.754  0.00  0.00    +0.000 C 
ATOM     23  C   UNL     1       9.065  10.192  18.791  0.00  0.00    +0.000 C 
ATOM     24  C   UNL     1       9.533  10.638  19.924  0.00  0.00    +0.000 C 
BRANCH  24  25
ATOM     25  C   UNL     1      10.020  12.001  20.226  0.00  0.00    +0.000 C 
ATOM     26  F   UNL     1      10.368  12.659  19.092  0.00  0.00    +0.000 F 
ATOM     27  F   UNL     1       9.078  12.752  20.846  0.00  0.00    +0.000 F 
ATOM     28  F   UNL     1      11.114  11.986  21.025  0.00  0.00    +0.000 F 
ENDBRANCH  24  25
ENDBRANCH  19  22
ENDBRANCH   5  18
TORSDOF 6
ENDMDL
MODEL 5
REMARK VINA RESULT:      -8.6      1.479      2.213
REMARK  Name = 
REMARK  7 active torsions:
REMARK  status: ('A' for Active; 'I' for Inactive)
REMARK    1  A    between atoms: C_1  and  N_2
REMARK    2  A    between atoms: C_6  and  C_7
REMARK    3  A    between atoms: C_7  and  C_8
REMARK    4  A    between atoms: C_8  and  C_9
REMARK    5  A    between atoms: C_13  and  N_14
REMARK    6  A    between atoms: C_15  and  C_17
REMARK    7  A    between atoms: C_19  and  C_20
REMARK                            x       y       z     vdW  Elec       q    Type
REMARK                         _______ _______ _______ _____ _____    ______ ____
ROOT
ATOM      1  C   UNL     1       5.064   4.212  17.041  0.00  0.00    +0.000 A 
ATOM      2  C   UNL     1       5.638   3.514  15.961  0.00  0.00    +0.000 A 
ATOM      3  C   UNL     1       6.623   4.084  15.159  0.00  0.00    +0.000 A 
ATOM      4  C   UNL     1       7.063   5.378  15.414  0.00  0.00    +0.000 A 
ATOM      5  C   UNL     1       6.525   6.114  16.470  0.00  0.00    +0.000 A 
ATOM      6  C   UNL     1       5.547   5.518  17.277  0.00  0.00    +0.000 A 
ENDROOT
BRANCH   1   7
ATOM      7  C   UNL     1       3.904   3.553  17.939  0.00  0.00    +0.000 C 
ATOM      8  C   UNL     1       3.781   2.003  17.956  0.00  0.00    +0.000 C 
ATOM      9  O   UNL     1       4.047   1.934  19.373  0.00  0.00    +0.000 OA
ATOM     10  C   UNL     1       4.263   3.354  19.441  0.00  0.00    +0.000 C 
BRANCH   7  11
ATOM     11  C   UNL     1       2.576   4.320  17.760  0.00  0.00    +0.000 C 
BRANCH  11  17
ATOM     12  C   UNL     1       1.378   4.346  20.701  0.00  0.00    +0.000 C 
ATOM     13  N   UNL     1       1.866   5.467  19.941  0.00  0.00    +0.000 N 
ATOM     14  C   UNL     1       1.839   6.762  20.363  0.00  0.00    +0.000 A 
ATOM     15  N   UNL     1       2.370   7.533  19.447  0.00  0.00    +0.000 NA
ATOM     16  N   UNL     1       2.734   6.733  18.393  0.00  0.00    +0.000 NA
ATOM     17  C   UNL     1       2.419   5.485  18.683  0.00  0.00    +0.000 A 
ENDBRANCH  11  17
ENDBRANCH   7  11
ENDBRANCH   1   7
BRANCH   5  18
ATOM     18  N   UNL     1       6.891   7.453  16.763  0.00  0.00    +0.000 N 
ATOM     19  C   UNL     1       7.781   7.848  17.734  0.00  0.00    +0.000 C 
ATOM     20  O   UNL     1       8.345   7.131  18.555  0.00  0.00    +0.000 OA
ATOM     21  H   UNL     1       6.483   8.159  16.164  0.00  0.00    +0.000 HD
BRANCH  19  22
ATOM     22  C   UNL     1       8.047   9.311  17.731  0.00  0.00    +0.000 C 
ATOM     23  C   UNL     1       8.769   9.805  18.692  0.00  0.00    +0.000 C 
ATOM     24  C   UNL     1       9.509  10.121  19.718  0.00  0.00    +0.000 C 
BRANCH  24  25
ATOM     25  C   UNL     1       9.927  11.473  20.148  0.00  0.00    +0.000 C 
ATOM     26  F   UNL     1       9.444  11.767  21.381  0.00  0.00    +0.000 F 
ATOM     27  F   UNL     1      11.275  11.592  20.212  0.00  0.00    +0.000 F 
ATOM     28  F   UNL     1       9.477  12.436  19.308  0.00  0.00    +0.000 F 
ENDBRANCH  24  25
ENDBRANCH  19  22
ENDBRANCH   5  18
TORSDOF 6
ENDMDL
MODEL 6
REMARK VINA RESULT:      -8.6      1.345      1.953
REMARK  Name = 
REMARK  7 active torsions:
REMARK  status: ('A' for Active; 'I' for Inactive)
REMARK    1  A    between atoms: C_1  and  N_2
REMARK    2  A    between atoms: C_6  and  C_7
REMARK    3  A    between atoms: C_7  and  C_8
REMARK    4  A    between atoms: C_8  and  C_9
REMARK    5  A    between atoms: C_13  and  N_14
REMARK    6  A    between atoms: C_15  and  C_17
REMARK    7  A    between atoms: C_19  and  C_20
REMARK                            x       y       z     vdW  Elec       q    Type
REMARK                         _______ _______ _______ _____ _____    ______ ____
ROOT
ATOM      1  C   UNL     1       5.063   4.001  17.159  0.00  0.00    +0.000 A 
ATOM      2  C   UNL     1       5.252   3.675  15.802  0.00  0.00    +0.000 A 
ATOM      3  C   UNL     1       6.288   4.225  15.052  0.00  0.00    +0.000 A 
ATOM      4  C   UNL     1       7.169   5.126  15.641  0.00  0.00    +0.000 A 
ATOM      5  C   UNL     1       7.024   5.485  16.982  0.00  0.00    +0.000 A 
ATOM      6  C   UNL     1       5.986   4.908  17.724  0.00  0.00    +0.000 A 
ENDROOT
BRANCH   1   7
ATOM      7  C   UNL     1       3.842   3.383  18.003  0.00  0.00    +0.000 C 
ATOM      8  C   UNL     1       2.407   3.511  17.418  0.00  0.00    +0.000 C 
ATOM      9  O   UNL     1       2.245   2.080  17.332  0.00  0.00    +0.000 OA
ATOM     10  C   UNL     1       3.592   1.861  17.787  0.00  0.00    +0.000 C 
BRANCH   7  11
ATOM     11  C   UNL     1       3.981   3.738  19.499  0.00  0.00    +0.000 C 
BRANCH  11  17
ATOM     12  C   UNL     1       1.325   3.405  21.208  0.00  0.00    +0.000 C 
ATOM     13  N   UNL     1       1.879   4.621  20.673  0.00  0.00    +0.000 N 
ATOM     14  C   UNL     1       1.301   5.850  20.779  0.00  0.00    +0.000 A 
ATOM     15  N   UNL     1       2.064   6.745  20.202  0.00  0.00    +0.000 NA
ATOM     16  N   UNL     1       3.155   6.090  19.688  0.00  0.00    +0.000 NA
ATOM     17  C   UNL     1       3.040   4.803  19.960  0.00  0.00    +0.000 A 
ENDBRANCH  11  17
ENDBRANCH   7  11
ENDBRANCH   1   7
BRANCH   5  18
ATOM     18  N   UNL     1       7.854   6.430  17.637  0.00  0.00    +0.000 N 
ATOM     19  C   UNL     1       7.641   7.788  17.684  0.00  0.00    +0.000 C 
ATOM     20  O   UNL     1       6.757   8.418  17.113  0.00  0.00    +0.000 OA
ATOM     21  H   UNL     1       8.641   6.045  18.144  0.00  0.00    +0.000 HD
BRANCH  19  22
ATOM     22  C   UNL     1       8.621   8.509  18.540  0.00  0.00    +0.000 C 
ATOM     23  C   UNL     1       8.811   9.775  18.320  0.00  0.00    +0.000 C 
ATOM     24  C   UNL     1       8.869  11.029  17.965  0.00  0.00    +0.000 C 
BRANCH  24  25
ATOM     25  C   UNL     1       9.777  12.074  18.486  0.00  0.00    +0.000 C 
ATOM     26  F   UNL     1       9.394  12.485  19.721  0.00  0.00    +0.000 F 
ATOM     27  F   UNL     1      11.053  11.630  18.595  0.00  0.00    +0.000 F 
ATOM     28  F   UNL     1       9.799  13.172  17.693  0.00  0.00    +0.000 F 
ENDBRANCH  24  25
ENDBRANCH  19  22
ENDBRANCH   5  18
TORSDOF 6
ENDMDL
MODEL 7
REMARK VINA RESULT:      -8.6      6.327      7.959
REMARK  Name = 
REMARK  7 active torsions:
REMARK  status: ('A' for Active; 'I' for Inactive)
REMARK    1  A    between atoms: C_1  and  N_2
REMARK    2  A    between atoms: C_6  and  C_7
REMARK    3  A    between atoms: C_7  and  C_8
REMARK    4  A    between atoms: C_8  and  C_9
REMARK    5  A    between atoms: C_13  and  N_14
REMARK    6  A    between atoms: C_15  and  C_17
REMARK    7  A    between atoms: C_19  and  C_20
REMARK                            x       y       z     vdW  Elec       q    Type
REMARK                         _______ _______ _______ _____ _____    ______ ____
ROOT
ATOM      1  C   UNL     1       2.455   7.550  18.646  0.00  0.00    +0.000 A 
ATOM      2  C   UNL     1       2.600   8.561  17.676  0.00  0.00    +0.000 A 
ATOM      3  C   UNL     1       1.991   9.805  17.815  0.00  0.00    +0.000 A 
ATOM      4  C   UNL     1       1.211  10.075  18.935  0.00  0.00    +0.000 A 
ATOM      5  C   UNL     1       1.032   9.107  19.924  0.00  0.00    +0.000 A 
ATOM      6  C   UNL     1       1.666   7.867  19.774  0.00  0.00    +0.000 A 
ENDROOT
BRANCH   1   7
ATOM      7  C   UNL     1       3.137   6.107  18.456  0.00  0.00    +0.000 C 
ATOM      8  C   UNL     1       4.576   6.047  17.871  0.00  0.00    +0.000 C 
ATOM      9  O   UNL     1       5.107   5.442  19.068  0.00  0.00    +0.000 OA
ATOM     10  C   UNL     1       3.831   5.531  19.726  0.00  0.00    +0.000 C 
BRANCH   7  11
ATOM     11  C   UNL     1       2.133   5.107  17.844  0.00  0.00    +0.000 C 
BRANCH  11  17
ATOM     12  C   UNL     1       0.933   3.239  20.114  0.00  0.00    +0.000 C 
ATOM     13  N   UNL     1       1.938   2.903  19.141  0.00  0.00    +0.000 N 
ATOM     14  C   UNL     1       2.587   1.706  19.075  0.00  0.00    +0.000 A 
ATOM     15  N   UNL     1       3.426   1.717  18.069  0.00  0.00    +0.000 NA
ATOM     16  N   UNL     1       3.343   2.951  17.474  0.00  0.00    +0.000 NA
ATOM     17  C   UNL     1       2.453   3.674  18.127  0.00  0.00    +0.000 A 
ENDBRANCH  11  17
ENDBRANCH   7  11
ENDBRANCH   1   7
BRANCH   5  18
ATOM     18  N   UNL     1       0.215   9.293  21.068  0.00  0.00    +0.000 N 
ATOM     19  C   UNL     1       0.667   9.508  22.350  0.00  0.00    +0.000 C 
ATOM     20  O   UNL     1       1.831   9.499  22.734  0.00  0.00    +0.000 OA
ATOM     21  H   UNL     1      -0.782   9.310  20.897  0.00  0.00    +0.000 HD
BRANCH  19  22
ATOM     22  C   UNL     1      -0.426   9.779  23.322  0.00  0.00    +0.000 C 
ATOM     23  C   UNL     1      -1.204  10.796  23.100  0.00  0.00    +0.000 C 
ATOM     24  C   UNL     1      -1.883  11.843  22.720  0.00  0.00    +0.000 C 
BRANCH  24  25
ATOM     25  C   UNL     1      -2.988  12.512  23.440  0.00  0.00    +0.000 C 
ATOM     26  F   UNL     1      -2.538  13.578  24.148  0.00  0.00    +0.000 F 
ATOM     27  F   UNL     1      -3.941  12.973  22.594  0.00  0.00    +0.000 F 
ATOM     28  F   UNL     1      -3.599  11.683  24.321  0.00  0.00    +0.000 F 
ENDBRANCH  24  25
ENDBRANCH  19  22
ENDBRANCH   5  18
TORSDOF 6
ENDMDL
MODEL 8
REMARK VINA RESULT:      -8.6      1.678      2.376
REMARK  Name = 
REMARK  7 active torsions:
REMARK  status: ('A' for Active; 'I' for Inactive)
REMARK    1  A    between atoms: C_1  and  N_2
REMARK    2  A    between atoms: C_6  and  C_7
REMARK    3  A    between atoms: C_7  and  C_8
REMARK    4  A    between atoms: C_8  and  C_9
REMARK    5  A    between atoms: C_13  and  N_14
REMARK    6  A    between atoms: C_15  and  C_17
REMARK    7  A    between atoms: C_19  and  C_20
REMARK                            x       y       z     vdW  Elec       q    Type
REMARK                         _______ _______ _______ _____ _____    ______ ____
ROOT
ATOM      1  C   UNL     1       4.916   3.988  17.078  0.00  0.00    +0.000 A 
ATOM      2  C   UNL     1       5.072   3.715  15.705  0.00  0.00    +0.000 A 
ATOM      3  C   UNL     1       6.104   4.275  14.957  0.00  0.00    +0.000 A 
ATOM      4  C   UNL     1       7.015   5.133  15.565  0.00  0.00    +0.000 A 
ATOM      5  C   UNL     1       6.904   5.439  16.922  0.00  0.00    +0.000 A 
ATOM      6  C   UNL     1       5.869   4.853  17.661  0.00  0.00    +0.000 A 
ENDROOT
BRANCH   1   7
ATOM      7  C   UNL     1       3.699   3.360  17.921  0.00  0.00    +0.000 C 
ATOM      8  C   UNL     1       3.504   1.817  17.889  0.00  0.00    +0.000 C 
ATOM      9  O   UNL     1       3.723   1.696  19.310  0.00  0.00    +0.000 OA
ATOM     10  C   UNL     1       4.002   3.102  19.427  0.00  0.00    +0.000 C 
BRANCH   7  11
ATOM     11  C   UNL     1       2.415   4.193  17.725  0.00  0.00    +0.000 C 
BRANCH  11  17
ATOM     12  C   UNL     1       3.218   7.263  17.835  0.00  0.00    +0.000 C 
ATOM     13  N   UNL     1       2.548   6.494  18.850  0.00  0.00    +0.000 N 
ATOM     14  C   UNL     1       2.188   6.970  20.075  0.00  0.00    +0.000 A 
ATOM     15  N   UNL     1       1.584   6.026  20.753  0.00  0.00    +0.000 NA
ATOM     16  N   UNL     1       1.564   4.901  19.967  0.00  0.00    +0.000 NA
ATOM     17  C   UNL     1       2.157   5.177  18.821  0.00  0.00    +0.000 A 
ENDBRANCH  11  17
ENDBRANCH   7  11
ENDBRANCH   1   7
BRANCH   5  18
ATOM     18  N   UNL     1       7.766   6.339  17.599  0.00  0.00    +0.000 N 
ATOM     19  C   UNL     1       7.618   7.706  17.649  0.00  0.00    +0.000 C 
ATOM     20  O   UNL     1       6.778   8.381  17.065  0.00  0.00    +0.000 OA
ATOM     21  H   UNL     1       8.522   5.914  18.119  0.00  0.00    +0.000 HD
BRANCH  19  22
ATOM     22  C   UNL     1       8.615   8.374  18.529  0.00  0.00    +0.000 C 
ATOM     23  C   UNL     1       8.815   9.648  18.369  0.00  0.00    +0.000 C 
ATOM     24  C   UNL     1       8.881  10.917  18.076  0.00  0.00    +0.000 C 
BRANCH  24  25
ATOM     25  C   UNL     1       9.805  11.926  18.638  0.00  0.00    +0.000 C 
ATOM     26  F   UNL     1       9.140  13.051  19.003  0.00  0.00    +0.000 F 
ATOM     27  F   UNL     1      10.447  11.470  19.741  0.00  0.00    +0.000 F 
ATOM     28  F   UNL     1      10.754  12.301  17.746  0.00  0.00    +0.000 F 
ENDBRANCH  24  25
ENDBRANCH  19  22
ENDBRANCH   5  18
TORSDOF 6
ENDMDL
MODEL 9
REMARK VINA RESULT:      -8.5      5.796      7.095
REMARK  Name = 
REMARK  7 active torsions:
REMARK  status: ('A' for Active; 'I' for Inactive)
REMARK    1  A    between atoms: C_1  and  N_2
REMARK    2  A    between atoms: C_6  and  C_7
REMARK    3  A    between atoms: C_7  and  C_8
REMARK    4  A    between atoms: C_8  and  C_9
REMARK    5  A    between atoms: C_13  and  N_14
REMARK    6  A    between atoms: C_15  and  C_17
REMARK    7  A    between atoms: C_19  and  C_20
REMARK                            x       y       z     vdW  Elec       q    Type
REMARK                         _______ _______ _______ _____ _____    ______ ____
ROOT
ATOM      1  C   UNL     1       4.014   5.727  18.280  0.00  0.00    +0.000 A 
ATOM      2  C   UNL     1       5.023   5.589  19.253  0.00  0.00    +0.000 A 
ATOM      3  C   UNL     1       6.277   5.073  18.943  0.00  0.00    +0.000 A 
ATOM      4  C   UNL     1       6.561   4.674  17.641  0.00  0.00    +0.000 A 
ATOM      5  C   UNL     1       5.596   4.786  16.639  0.00  0.00    +0.000 A 
ATOM      6  C   UNL     1       4.345   5.323  16.967  0.00  0.00    +0.000 A 
ENDROOT
BRANCH   1   7
ATOM      7  C   UNL     1       2.558   6.294  18.661  0.00  0.00    +0.000 C 
ATOM      8  C   UNL     1       2.318   6.776  20.119  0.00  0.00    +0.000 C 
ATOM      9  O   UNL     1       2.040   8.127  19.695  0.00  0.00    +0.000 OA
ATOM     10  C   UNL     1       2.326   7.797  18.325  0.00  0.00    +0.000 C 
BRANCH   7  11
ATOM     11  C   UNL     1       1.452   5.394  18.070  0.00  0.00    +0.000 C 
BRANCH  11  17
ATOM     12  C   UNL     1       1.136   3.659  20.711  0.00  0.00    +0.000 C 
ATOM     13  N   UNL     1       1.584   3.216  19.417  0.00  0.00    +0.000 N 
ATOM     14  C   UNL     1       2.004   1.951  19.132  0.00  0.00    +0.000 A 
ATOM     15  N   UNL     1       2.329   1.872  17.865  0.00  0.00    +0.000 NA
ATOM     16  N   UNL     1       2.139   3.113  17.311  0.00  0.00    +0.000 NA
ATOM     17  C   UNL     1       1.701   3.931  18.249  0.00  0.00    +0.000 A 
ENDBRANCH  11  17
ENDBRANCH   7  11
ENDBRANCH   1   7
BRANCH   5  18
ATOM     18  N   UNL     1       5.796   4.357  15.302  0.00  0.00    +0.000 N 
ATOM     19  C   UNL     1       6.870   4.687  14.506  0.00  0.00    +0.000 C 
ATOM     20  O   UNL     1       7.784   5.456  14.780  0.00  0.00    +0.000 OA
ATOM     21  H   UNL     1       5.101   3.720  14.937  0.00  0.00    +0.000 HD
BRANCH  19  22
ATOM     22  C   UNL     1       6.859   3.997  13.188  0.00  0.00    +0.000 C 
ATOM     23  C   UNL     1       5.712   3.792  12.613  0.00  0.00    +0.000 C 
ATOM     24  C   UNL     1       4.486   3.678  12.185  0.00  0.00    +0.000 C 
BRANCH  24  25
ATOM     25  C   UNL     1       4.016   2.977  10.970  0.00  0.00    +0.000 C 
ATOM     26  F   UNL     1       3.956   3.820   9.909  0.00  0.00    +0.000 F 
ATOM     27  F   UNL     1       4.839   1.959  10.621  0.00  0.00    +0.000 F 
ATOM     28  F   UNL     1       2.776   2.455  11.131  0.00  0.00    +0.000 F 
ENDBRANCH  24  25
ENDBRANCH  19  22
ENDBRANCH   5  18
TORSDOF 6
ENDMDL
