MODEL 1
REMARK VINA RESULT:      -7.5      0.000      0.000
REMARK  Name = 
REMARK  5 active torsions:
REMARK  status: ('A' for Active; 'I' for Inactive)
REMARK    1  A    between atoms: C_1  and  C_2
REMARK    2  A    between atoms: C_4  and  C_5
REMARK    3  A    between atoms: C_9  and  C_10
REMARK    4  A    between atoms: C_12  and  N_13
REMARK    5  A    between atoms: N_20  and  C_21
REMARK                            x       y       z     vdW  Elec       q    Type
REMARK                         _______ _______ _______ _____ _____    ______ ____
ROOT
ATOM      1  C   UNL     1      -2.986   9.699  15.462  0.00  0.00    +0.000 C 
ATOM      2  C   UNL     1      -3.282  10.474  16.712  0.00  0.00    +0.000 A 
ATOM      3  C   UNL     1      -4.516  11.068  16.919  0.00  0.00    +0.000 A 
ATOM      4  C   UNL     1      -4.753  11.806  18.086  0.00  0.00    +0.000 A 
ATOM      5  C   UNL     1      -6.135  12.362  18.324  0.00  0.00    +0.000 C 
ATOM      6  C   UNL     1      -3.739  12.009  19.034  0.00  0.00    +0.000 A 
ATOM      7  N   UNL     1      -4.045  12.749  20.109  0.00  0.00    +0.000 NA
ATOM      8  C   UNL     1      -3.092  12.980  21.025  0.00  0.00    +0.000 A 
ATOM      9  C   UNL     1      -1.799  12.489  20.952  0.00  0.00    +0.000 A 
ATOM     10  C   UNL     1      -1.443  11.639  19.875  0.00  0.00    +0.000 A 
ATOM     11  C   UNL     1      -2.454  11.418  18.859  0.00  0.00    +0.000 A 
ATOM     12  C   UNL     1      -2.295  10.611  17.699  0.00  0.00    +0.000 A 
ENDROOT
BRANCH  10  13
ATOM     13  N   UNL     1      -0.214  10.973  19.863  0.00  0.00    +0.000 N 
ATOM     14  C   UNL     1       0.218  10.190  21.058  0.00  0.00    +0.000 C 
ATOM     15  C   UNL     1       0.569   8.730  20.697  0.00  0.00    +0.000 C 
ATOM     16  C   UNL     1       1.433   8.715  19.496  0.00  0.00    +0.000 A 
ATOM     17  C   UNL     1       1.563   9.763  18.607  0.00  0.00    +0.000 A 
ATOM     18  N   UNL     1       2.428   9.430  17.595  0.00  0.00    +0.000 NA
ATOM     19  C   UNL     1       2.809   8.193  17.869  0.00  0.00    +0.000 A 
ATOM     20  N   UNL     1       2.220   7.718  19.011  0.00  0.00    +0.000 N 
ATOM     21  C   UNL     1       0.842  11.079  18.805  0.00  0.00    +0.000 C 
BRANCH  20  22
ATOM     22  C   UNL     1       2.391   6.418  19.621  0.00  0.00    +0.000 C 
ATOM     23  C   UNL     1       3.678   5.623  19.479  0.00  0.00    +0.000 C 
ATOM     24  C   UNL     1       2.441   5.138  18.806  0.00  0.00    +0.000 C 
ENDBRANCH  20  22
ENDBRANCH  10  13
BRANCH   9  25
ATOM     25  C   UNL     1      -0.903  12.921  21.988  0.00  0.00    +0.000 C 
ATOM     26  N   UNL     1      -0.147  13.267  22.796  0.00  0.00    +0.000 NA
ENDBRANCH   9  25
TORSDOF 3
ENDMDL
MODEL 2
REMARK VINA RESULT:      -7.1      7.874     10.523
REMARK  Name = 
REMARK  5 active torsions:
REMARK  status: ('A' for Active; 'I' for Inactive)
REMARK    1  A    between atoms: C_1  and  C_2
REMARK    2  A    between atoms: C_4  and  C_5
REMARK    3  A    between atoms: C_9  and  C_10
REMARK    4  A    between atoms: C_12  and  N_13
REMARK    5  A    between atoms: N_20  and  C_21
REMARK                            x       y       z     vdW  Elec       q    Type
REMARK                         _______ _______ _______ _____ _____    ______ ____
ROOT
ATOM      1  C   UNL     1       5.259   2.389  11.492  0.00  0.00    +0.000 C 
ATOM      2  C   UNL     1       5.897   3.333  12.468  0.00  0.00    +0.000 A 
ATOM      3  C   UNL     1       6.939   4.166  12.092  0.00  0.00    +0.000 A 
ATOM      4  C   UNL     1       7.530   5.018  13.034  0.00  0.00    +0.000 A 
ATOM      5  C   UNL     1       8.599   5.977  12.572  0.00  0.00    +0.000 C 
ATOM      6  C   UNL     1       7.127   5.007  14.378  0.00  0.00    +0.000 A 
ATOM      7  N   UNL     1       7.764   5.836  15.216  0.00  0.00    +0.000 NA
ATOM      8  C   UNL     1       7.416   5.835  16.512  0.00  0.00    +0.000 A 
ATOM      9  C   UNL     1       6.421   5.040  17.055  0.00  0.00    +0.000 A 
ATOM     10  C   UNL     1       5.664   4.200  16.202  0.00  0.00    +0.000 A 
ATOM     11  C   UNL     1       6.061   4.163  14.807  0.00  0.00    +0.000 A 
ATOM     12  C   UNL     1       5.442   3.381  13.793  0.00  0.00    +0.000 A 
ENDROOT
BRANCH  10  13
ATOM     13  N   UNL     1       4.533   3.528  16.674  0.00  0.00    +0.000 N 
ATOM     14  C   UNL     1       4.688   2.236  17.404  0.00  0.00    +0.000 C 
ATOM     15  C   UNL     1       4.004   2.266  18.787  0.00  0.00    +0.000 C 
ATOM     16  C   UNL     1       2.646   2.838  18.652  0.00  0.00    +0.000 A 
ATOM     17  C   UNL     1       2.215   3.596  17.581  0.00  0.00    +0.000 A 
ATOM     18  N   UNL     1       0.912   3.987  17.762  0.00  0.00    +0.000 NA
ATOM     19  C   UNL     1       0.566   3.475  18.933  0.00  0.00    +0.000 A 
ATOM     20  N   UNL     1       1.594   2.778  19.510  0.00  0.00    +0.000 N 
ATOM     21  C   UNL     1       3.105   3.887  16.392  0.00  0.00    +0.000 C 
BRANCH  20  22
ATOM     22  C   UNL     1       1.591   2.086  20.780  0.00  0.00    +0.000 C 
ATOM     23  C   UNL     1       1.167   2.769  22.070  0.00  0.00    +0.000 C 
ATOM     24  C   UNL     1       2.595   2.395  21.876  0.00  0.00    +0.000 C 
ENDBRANCH  20  22
ENDBRANCH  10  13
BRANCH   9  25
ATOM     25  C   UNL     1       6.259   5.122  18.480  0.00  0.00    +0.000 C 
ATOM     26  N   UNL     1       6.171   5.195  19.634  0.00  0.00    +0.000 NA
ENDBRANCH   9  25
TORSDOF 3
ENDMDL
MODEL 3
REMARK VINA RESULT:      -6.9      1.380      1.917
REMARK  Name = 
REMARK  5 active torsions:
REMARK  status: ('A' for Active; 'I' for Inactive)
REMARK    1  A    between atoms: C_1  and  C_2
REMARK    2  A    between atoms: C_4  and  C_5
REMARK    3  A    between atoms: C_9  and  C_10
REMARK    4  A    between atoms: C_12  and  N_13
REMARK    5  A    between atoms: N_20  and  C_21
REMARK                            x       y       z     vdW  Elec       q    Type
REMARK                         _______ _______ _______ _____ _____    ______ ____
ROOT
ATOM      1  C   UNL     1      -4.102  11.055  16.127  0.00  0.00    +0.000 C 
ATOM      2  C   UNL     1      -4.347  11.638  17.488  0.00  0.00    +0.000 A 
ATOM      3  C   UNL     1      -5.596  12.111  17.857  0.00  0.00    +0.000 A 
ATOM      4  C   UNL     1      -5.786  12.673  19.126  0.00  0.00    +0.000 A 
ATOM      5  C   UNL     1      -7.177  13.095  19.532  0.00  0.00    +0.000 C 
ATOM      6  C   UNL     1      -4.716  12.822  20.022  0.00  0.00    +0.000 A 
ATOM      7  N   UNL     1      -4.982  13.392  21.205  0.00  0.00    +0.000 NA
ATOM      8  C   UNL     1      -3.977  13.569  22.076  0.00  0.00    +0.000 A 
ATOM      9  C   UNL     1      -2.666  13.184  21.849  0.00  0.00    +0.000 A 
ATOM     10  C   UNL     1      -2.343  12.507  20.646  0.00  0.00    +0.000 A 
ATOM     11  C   UNL     1      -3.415  12.351  19.681  0.00  0.00    +0.000 A 
ATOM     12  C   UNL     1      -3.298  11.715  18.414  0.00  0.00    +0.000 A 
ENDROOT
BRANCH  10  13
ATOM     13  N   UNL     1      -1.081  11.937  20.460  0.00  0.00    +0.000 N 
ATOM     14  C   UNL     1      -0.816  10.549  20.939  0.00  0.00    +0.000 C 
ATOM     15  C   UNL     1      -0.277   9.641  19.813  0.00  0.00    +0.000 C 
ATOM     16  C   UNL     1       0.796  10.349  19.081  0.00  0.00    +0.000 A 
ATOM     17  C   UNL     1       1.000  11.715  19.110  0.00  0.00    +0.000 A 
ATOM     18  N   UNL     1       2.065  12.059  18.317  0.00  0.00    +0.000 NA
ATOM     19  C   UNL     1       2.494  10.913  17.812  0.00  0.00    +0.000 A 
ATOM     20  N   UNL     1       1.744   9.851  18.244  0.00  0.00    +0.000 N 
ATOM     21  C   UNL     1       0.143  12.637  19.950  0.00  0.00    +0.000 C 
BRANCH  20  22
ATOM     22  C   UNL     1       1.910   8.455  17.906  0.00  0.00    +0.000 C 
ATOM     23  C   UNL     1       2.496   7.452  18.885  0.00  0.00    +0.000 C 
ATOM     24  C   UNL     1       3.274   7.831  17.673  0.00  0.00    +0.000 C 
ENDBRANCH  20  22
ENDBRANCH  10  13
BRANCH   9  25
ATOM     25  C   UNL     1      -1.720  13.538  22.870  0.00  0.00    +0.000 C 
ATOM     26  N   UNL     1      -0.947  13.783  23.699  0.00  0.00    +0.000 NA
ENDBRANCH   9  25
TORSDOF 3
ENDMDL
MODEL 4
REMARK VINA RESULT:      -6.7      9.381     11.735
REMARK  Name = 
REMARK  5 active torsions:
REMARK  status: ('A' for Active; 'I' for Inactive)
REMARK    1  A    between atoms: C_1  and  C_2
REMARK    2  A    between atoms: C_4  and  C_5
REMARK    3  A    between atoms: C_9  and  C_10
REMARK    4  A    between atoms: C_12  and  N_13
REMARK    5  A    between atoms: N_20  and  C_21
REMARK                            x       y       z     vdW  Elec       q    Type
REMARK                         _______ _______ _______ _____ _____    ______ ____
ROOT
ATOM      1  C   UNL     1       8.872   9.475  18.508  0.00  0.00    +0.000 C 
ATOM      2  C   UNL     1       9.339  10.879  18.754  0.00  0.00    +0.000 A 
ATOM      3  C   UNL     1      10.125  11.552  17.832  0.00  0.00    +0.000 A 
ATOM      4  C   UNL     1      10.566  12.853  18.103  0.00  0.00    +0.000 A 
ATOM      5  C   UNL     1      11.342  13.591  17.041  0.00  0.00    +0.000 C 
ATOM      6  C   UNL     1      10.276  13.478  19.325  0.00  0.00    +0.000 A 
ATOM      7  N   UNL     1      10.759  14.715  19.511  0.00  0.00    +0.000 NA
ATOM      8  C   UNL     1      10.517  15.332  20.678  0.00  0.00    +0.000 A 
ATOM      9  C   UNL     1       9.780  14.787  21.715  0.00  0.00    +0.000 A 
ATOM     10  C   UNL     1       9.182  13.513  21.543  0.00  0.00    +0.000 A 
ATOM     11  C   UNL     1       9.473  12.821  20.303  0.00  0.00    +0.000 A 
ATOM     12  C   UNL     1       8.983  11.536  19.941  0.00  0.00    +0.000 A 
ENDROOT
BRANCH  10  13
ATOM     13  N   UNL     1       8.279  13.012  22.485  0.00  0.00    +0.000 N 
ATOM     14  C   UNL     1       8.678  11.873  23.363  0.00  0.00    +0.000 C 
ATOM     15  C   UNL     1       8.495  12.204  24.859  0.00  0.00    +0.000 C 
ATOM     16  C   UNL     1       7.167  12.821  25.068  0.00  0.00    +0.000 A 
ATOM     17  C   UNL     1       6.397  13.388  24.071  0.00  0.00    +0.000 A 
ATOM     18  N   UNL     1       5.227  13.884  24.590  0.00  0.00    +0.000 NA
ATOM     19  C   UNL     1       5.296  13.623  25.887  0.00  0.00    +0.000 A 
ATOM     20  N   UNL     1       6.463  12.987  26.219  0.00  0.00    +0.000 N 
ATOM     21  C   UNL     1       6.836  13.396  22.623  0.00  0.00    +0.000 C 
BRANCH  20  22
ATOM     22  C   UNL     1       6.890  12.548  27.529  0.00  0.00    +0.000 C 
ATOM     23  C   UNL     1       6.499  11.192  28.093  0.00  0.00    +0.000 C 
ATOM     24  C   UNL     1       5.929  12.427  28.698  0.00  0.00    +0.000 C 
ENDBRANCH  20  22
ENDBRANCH  10  13
BRANCH   9  25
ATOM     25  C   UNL     1       9.707  15.572  22.916  0.00  0.00    +0.000 C 
ATOM     26  N   UNL     1       9.683  16.184  23.900  0.00  0.00    +0.000 NA
ENDBRANCH   9  25
TORSDOF 3
ENDMDL
MODEL 5
REMARK VINA RESULT:      -6.7      2.696      7.143
REMARK  Name = 
REMARK  5 active torsions:
REMARK  status: ('A' for Active; 'I' for Inactive)
REMARK    1  A    between atoms: C_1  and  C_2
REMARK    2  A    between atoms: C_4  and  C_5
REMARK    3  A    between atoms: C_9  and  C_10
REMARK    4  A    between atoms: C_12  and  N_13
REMARK    5  A    between atoms: N_20  and  C_21
REMARK                            x       y       z     vdW  Elec       q    Type
REMARK                         _______ _______ _______ _____ _____    ______ ____
ROOT
ATOM      1  C   UNL     1      -6.373  12.290  17.533  0.00  0.00    +0.000 C 
ATOM      2  C   UNL     1      -4.967  11.771  17.480  0.00  0.00    +0.000 A 
ATOM      3  C   UNL     1      -4.505  11.042  16.396  0.00  0.00    +0.000 A 
ATOM      4  C   UNL     1      -3.194  10.549  16.389  0.00  0.00    +0.000 A 
ATOM      5  C   UNL     1      -2.693   9.840  15.155  0.00  0.00    +0.000 C 
ATOM      6  C   UNL     1      -2.345  10.728  17.491  0.00  0.00    +0.000 A 
ATOM      7  N   UNL     1      -1.115  10.202  17.410  0.00  0.00    +0.000 NA
ATOM      8  C   UNL     1      -0.286  10.338  18.456  0.00  0.00    +0.000 A 
ATOM      9  C   UNL     1      -0.603  11.006  19.626  0.00  0.00    +0.000 A 
ATOM     10  C   UNL     1      -1.862  11.647  19.737  0.00  0.00    +0.000 A 
ATOM     11  C   UNL     1      -2.781  11.469  18.629  0.00  0.00    +0.000 A 
ATOM     12  C   UNL     1      -4.091  12.017  18.547  0.00  0.00    +0.000 A 
ENDROOT
BRANCH  10  13
ATOM     13  N   UNL     1      -2.148  12.486  20.817  0.00  0.00    +0.000 N 
ATOM     14  C   UNL     1      -1.929  13.957  20.692  0.00  0.00    +0.000 C 
ATOM     15  C   UNL     1      -3.200  14.763  21.033  0.00  0.00    +0.000 C 
ATOM     16  C   UNL     1      -3.791  14.244  22.286  0.00  0.00    +0.000 A 
ATOM     17  C   UNL     1      -3.514  13.006  22.833  0.00  0.00    +0.000 A 
ATOM     18  N   UNL     1      -4.230  12.819  23.988  0.00  0.00    +0.000 NA
ATOM     19  C   UNL     1      -4.935  13.931  24.131  0.00  0.00    +0.000 A 
ATOM     20  N   UNL     1      -4.704  14.818  23.113  0.00  0.00    +0.000 N 
ATOM     21  C   UNL     1      -2.521  12.053  22.203  0.00  0.00    +0.000 C 
BRANCH  20  22
ATOM     22  C   UNL     1      -5.290  16.127  22.930  0.00  0.00    +0.000 C 
ATOM     23  C   UNL     1      -4.588  17.396  23.383  0.00  0.00    +0.000 C 
ATOM     24  C   UNL     1      -5.820  16.950  24.089  0.00  0.00    +0.000 C 
ENDBRANCH  20  22
ENDBRANCH  10  13
BRANCH   9  25
ATOM     25  C   UNL     1       0.392  10.966  20.662  0.00  0.00    +0.000 C 
ATOM     26  N   UNL     1       1.210  10.971  21.483  0.00  0.00    +0.000 NA
ENDBRANCH   9  25
TORSDOF 3
ENDMDL
MODEL 6
REMARK VINA RESULT:      -6.7      5.297      8.405
REMARK  Name = 
REMARK  5 active torsions:
REMARK  status: ('A' for Active; 'I' for Inactive)
REMARK    1  A    between atoms: C_1  and  C_2
REMARK    2  A    between atoms: C_4  and  C_5
REMARK    3  A    between atoms: C_9  and  C_10
REMARK    4  A    between atoms: C_12  and  N_13
REMARK    5  A    between atoms: N_20  and  C_21
REMARK                            x       y       z     vdW  Elec       q    Type
REMARK                         _______ _______ _______ _____ _____    ______ ____
ROOT
ATOM      1  C   UNL     1       2.834   9.090  17.276  0.00  0.00    +0.000 C 
ATOM      2  C   UNL     1       2.538   8.065  18.330  0.00  0.00    +0.000 A 
ATOM      3  C   UNL     1       1.625   8.312  19.343  0.00  0.00    +0.000 A 
ATOM      4  C   UNL     1       1.390   7.344  20.327  0.00  0.00    +0.000 A 
ATOM      5  C   UNL     1       0.324   7.607  21.362  0.00  0.00    +0.000 C 
ATOM      6  C   UNL     1       2.108   6.139  20.347  0.00  0.00    +0.000 A 
ATOM      7  N   UNL     1       1.837   5.280  21.339  0.00  0.00    +0.000 NA
ATOM      8  C   UNL     1       2.521   4.127  21.398  0.00  0.00    +0.000 A 
ATOM      9  C   UNL     1       3.489   3.742  20.486  0.00  0.00    +0.000 A 
ATOM     10  C   UNL     1       3.762   4.578  19.374  0.00  0.00    +0.000 A 
ATOM     11  C   UNL     1       3.058   5.845  19.326  0.00  0.00    +0.000 A 
ATOM     12  C   UNL     1       3.196   6.827  18.306  0.00  0.00    +0.000 A 
ENDROOT
BRANCH  10  13
ATOM     13  N   UNL     1       4.590   4.143  18.336  0.00  0.00    +0.000 N 
ATOM     14  C   UNL     1       4.073   3.165  17.334  0.00  0.00    +0.000 C 
ATOM     15  C   UNL     1       4.228   3.679  15.888  0.00  0.00    +0.000 C 
ATOM     16  C   UNL     1       5.593   4.220  15.702  0.00  0.00    +0.000 A 
ATOM     17  C   UNL     1       6.439   4.591  16.729  0.00  0.00    +0.000 A 
ATOM     18  N   UNL     1       7.625   5.065  16.228  0.00  0.00    +0.000 NA
ATOM     19  C   UNL     1       7.491   4.987  14.913  0.00  0.00    +0.000 A 
ATOM     20  N   UNL     1       6.267   4.487  14.552  0.00  0.00    +0.000 N 
ATOM     21  C   UNL     1       6.052   4.436  18.184  0.00  0.00    +0.000 C 
BRANCH  20  22
ATOM     22  C   UNL     1       5.762   4.261  13.216  0.00  0.00    +0.000 C 
ATOM     23  C   UNL     1       5.868   2.908  12.533  0.00  0.00    +0.000 C 
ATOM     24  C   UNL     1       6.679   4.049  12.026  0.00  0.00    +0.000 C 
ENDBRANCH  20  22
ENDBRANCH  10  13
BRANCH   9  25
ATOM     25  C   UNL     1       4.168   2.509  20.772  0.00  0.00    +0.000 C 
ATOM     26  N   UNL     1       4.740   1.520  20.967  0.00  0.00    +0.000 NA
ENDBRANCH   9  25
TORSDOF 3
ENDMDL
MODEL 7
REMARK VINA RESULT:      -6.6      3.280      7.300
REMARK  Name = 
REMARK  5 active torsions:
REMARK  status: ('A' for Active; 'I' for Inactive)
REMARK    1  A    between atoms: C_1  and  C_2
REMARK    2  A    between atoms: C_4  and  C_5
REMARK    3  A    between atoms: C_9  and  C_10
REMARK    4  A    between atoms: C_12  and  N_13
REMARK    5  A    between atoms: N_20  and  C_21
REMARK                            x       y       z     vdW  Elec       q    Type
REMARK                         _______ _______ _______ _____ _____    ______ ____
ROOT
ATOM      1  C   UNL     1      -1.329  17.726  19.205  0.00  0.00    +0.000 C 
ATOM      2  C   UNL     1      -0.248  16.713  18.969  0.00  0.00    +0.000 A 
ATOM      3  C   UNL     1       0.979  17.075  18.437  0.00  0.00    +0.000 A 
ATOM      4  C   UNL     1       1.958  16.101  18.205  0.00  0.00    +0.000 A 
ATOM      5  C   UNL     1       3.315  16.540  17.713  0.00  0.00    +0.000 C 
ATOM      6  C   UNL     1       1.703  14.742  18.446  0.00  0.00    +0.000 A 
ATOM      7  N   UNL     1       2.688  13.875  18.172  0.00  0.00    +0.000 NA
ATOM      8  C   UNL     1       2.468  12.567  18.372  0.00  0.00    +0.000 A 
ATOM      9  C   UNL     1       1.287  12.036  18.864  0.00  0.00    +0.000 A 
ATOM     10  C   UNL     1       0.240  12.913  19.242  0.00  0.00    +0.000 A 
ATOM     11  C   UNL     1       0.453  14.326  18.990  0.00  0.00    +0.000 A 
ATOM     12  C   UNL     1      -0.473  15.365  19.284  0.00  0.00    +0.000 A 
ENDROOT
BRANCH  10  13
ATOM     13  N   UNL     1      -0.888  12.436  19.915  0.00  0.00    +0.000 N 
ATOM     14  C   UNL     1      -0.797  12.093  21.365  0.00  0.00    +0.000 C 
ATOM     15  C   UNL     1      -1.859  12.836  22.203  0.00  0.00    +0.000 C 
ATOM     16  C   UNL     1      -3.175  12.730  21.537  0.00  0.00    +0.000 A 
ATOM     17  C   UNL     1      -3.360  12.399  20.209  0.00  0.00    +0.000 A 
ATOM     18  N   UNL     1      -4.696  12.397  19.895  0.00  0.00    +0.000 NA
ATOM     19  C   UNL     1      -5.307  12.730  21.021  0.00  0.00    +0.000 A 
ATOM     20  N   UNL     1      -4.419  12.950  22.040  0.00  0.00    +0.000 N 
ATOM     21  C   UNL     1      -2.201  12.065  19.294  0.00  0.00    +0.000 C 
BRANCH  20  22
ATOM     22  C   UNL     1      -4.712  13.330  23.404  0.00  0.00    +0.000 C 
ATOM     23  C   UNL     1      -4.657  12.332  24.549  0.00  0.00    +0.000 C 
ATOM     24  C   UNL     1      -5.973  12.881  24.120  0.00  0.00    +0.000 C 
ENDBRANCH  20  22
ENDBRANCH  10  13
BRANCH   9  25
ATOM     25  C   UNL     1       1.219  10.603  18.924  0.00  0.00    +0.000 C 
ATOM     26  N   UNL     1       1.128   9.449  18.997  0.00  0.00    +0.000 NA
ENDBRANCH   9  25
TORSDOF 3
ENDMDL
MODEL 8
REMARK VINA RESULT:      -6.5      3.052      7.208
REMARK  Name = 
REMARK  5 active torsions:
REMARK  status: ('A' for Active; 'I' for Inactive)
REMARK    1  A    between atoms: C_1  and  C_2
REMARK    2  A    between atoms: C_4  and  C_5
REMARK    3  A    between atoms: C_9  and  C_10
REMARK    4  A    between atoms: C_12  and  N_13
REMARK    5  A    between atoms: N_20  and  C_21
REMARK                            x       y       z     vdW  Elec       q    Type
REMARK                         _______ _______ _______ _____ _____    ______ ____
ROOT
ATOM      1  C   UNL     1      -1.420  17.401  18.943  0.00  0.00    +0.000 C 
ATOM      2  C   UNL     1      -0.261  16.450  18.887  0.00  0.00    +0.000 A 
ATOM      3  C   UNL     1       1.047  16.905  18.837  0.00  0.00    +0.000 A 
ATOM      4  C   UNL     1       2.105  15.991  18.759  0.00  0.00    +0.000 A 
ATOM      5  C   UNL     1       3.519  16.515  18.800  0.00  0.00    +0.000 C 
ATOM      6  C   UNL     1       1.868  14.611  18.671  0.00  0.00    +0.000 A 
ATOM      7  N   UNL     1       2.938  13.810  18.575  0.00  0.00    +0.000 NA
ATOM      8  C   UNL     1       2.745  12.487  18.467  0.00  0.00    +0.000 A 
ATOM      9  C   UNL     1       1.503  11.873  18.466  0.00  0.00    +0.000 A 
ATOM     10  C   UNL     1       0.341  12.665  18.642  0.00  0.00    +0.000 A 
ATOM     11  C   UNL     1       0.538  14.101  18.716  0.00  0.00    +0.000 A 
ATOM     12  C   UNL     1      -0.493  15.067  18.879  0.00  0.00    +0.000 A 
ENDROOT
BRANCH  10  13
ATOM     13  N   UNL     1      -0.909  12.072  18.835  0.00  0.00    +0.000 N 
ATOM     14  C   UNL     1      -1.458  11.930  20.215  0.00  0.00    +0.000 C 
ATOM     15  C   UNL     1      -2.862  12.558  20.347  0.00  0.00    +0.000 C 
ATOM     16  C   UNL     1      -3.703  12.128  19.209  0.00  0.00    +0.000 A 
ATOM     17  C   UNL     1      -3.217  11.609  18.024  0.00  0.00    +0.000 A 
ATOM     18  N   UNL     1      -4.250  11.320  17.167  0.00  0.00    +0.000 NA
ATOM     19  C   UNL     1      -5.343  11.668  17.827  0.00  0.00    +0.000 A 
ATOM     20  N   UNL     1      -5.054  12.172  19.068  0.00  0.00    +0.000 N 
ATOM     21  C   UNL     1      -1.739  11.389  17.789  0.00  0.00    +0.000 C 
BRANCH  20  22
ATOM     22  C   UNL     1      -5.982  12.653  20.067  0.00  0.00    +0.000 C 
ATOM     23  C   UNL     1      -6.827  11.708  20.904  0.00  0.00    +0.000 C 
ATOM     24  C   UNL     1      -7.487  12.570  19.885  0.00  0.00    +0.000 C 
ENDBRANCH  20  22
ENDBRANCH  10  13
BRANCH   9  25
ATOM     25  C   UNL     1       1.504  10.453  18.254  0.00  0.00    +0.000 C 
ATOM     26  N   UNL     1       1.477   9.302  18.116  0.00  0.00    +0.000 NA
ENDBRANCH   9  25
TORSDOF 3
ENDMDL
MODEL 9
REMARK VINA RESULT:      -6.4      4.260      5.336
REMARK  Name = 
REMARK  5 active torsions:
REMARK  status: ('A' for Active; 'I' for Inactive)
REMARK    1  A    between atoms: C_1  and  C_2
REMARK    2  A    between atoms: C_4  and  C_5
REMARK    3  A    between atoms: C_9  and  C_10
REMARK    4  A    between atoms: C_12  and  N_13
REMARK    5  A    between atoms: N_20  and  C_21
REMARK                            x       y       z     vdW  Elec       q    Type
REMARK                         _______ _______ _______ _____ _____    ______ ____
ROOT
ATOM      1  C   UNL     1      -4.428  11.431  17.082  0.00  0.00    +0.000 C 
ATOM      2  C   UNL     1      -4.956  11.623  18.473  0.00  0.00    +0.000 A 
ATOM      3  C   UNL     1      -6.138  11.030  18.886  0.00  0.00    +0.000 A 
ATOM      4  C   UNL     1      -6.616  11.249  20.184  0.00  0.00    +0.000 A 
ATOM      5  C   UNL     1      -7.856  10.516  20.633  0.00  0.00    +0.000 C 
ATOM      6  C   UNL     1      -5.951  12.113  21.067  0.00  0.00    +0.000 A 
ATOM      7  N   UNL     1      -6.493  12.285  22.281  0.00  0.00    +0.000 NA
ATOM      8  C   UNL     1      -5.892  13.120  23.142  0.00  0.00    +0.000 A 
ATOM      9  C   UNL     1      -4.725  13.817  22.874  0.00  0.00    +0.000 A 
ATOM     10  C   UNL     1      -4.069  13.614  21.634  0.00  0.00    +0.000 A 
ATOM     11  C   UNL     1      -4.733  12.746  20.681  0.00  0.00    +0.000 A 
ATOM     12  C   UNL     1      -4.250  12.422  19.384  0.00  0.00    +0.000 A 
ENDROOT
BRANCH  10  13
ATOM     13  N   UNL     1      -2.799  14.148  21.399  0.00  0.00    +0.000 N 
ATOM     14  C   UNL     1      -1.584  13.375  21.793  0.00  0.00    +0.000 C 
ATOM     15  C   UNL     1      -0.613  13.180  20.609  0.00  0.00    +0.000 C 
ATOM     16  C   UNL     1      -0.429  14.469  19.906  0.00  0.00    +0.000 A 
ATOM     17  C   UNL     1      -1.280  15.552  20.013  0.00  0.00    +0.000 A 
ATOM     18  N   UNL     1      -0.840  16.588  19.228  0.00  0.00    +0.000 NA
ATOM     19  C   UNL     1       0.260  16.131  18.651  0.00  0.00    +0.000 A 
ATOM     20  N   UNL     1       0.539  14.844  19.029  0.00  0.00    +0.000 N 
ATOM     21  C   UNL     1      -2.494  15.534  20.916  0.00  0.00    +0.000 C 
BRANCH  20  22
ATOM     22  C   UNL     1       1.649  14.018  18.608  0.00  0.00    +0.000 C 
ATOM     23  C   UNL     1       2.933  13.921  19.415  0.00  0.00    +0.000 C 
ATOM     24  C   UNL     1       2.950  14.607  18.094  0.00  0.00    +0.000 C 
ENDBRANCH  20  22
ENDBRANCH  10  13
BRANCH   9  25
ATOM     25  C   UNL     1      -4.288  14.728  23.895  0.00  0.00    +0.000 C 
ATOM     26  N   UNL     1      -3.900  15.472  24.695  0.00  0.00    +0.000 NA
ENDBRANCH   9  25
TORSDOF 3
ENDMDL
