MODEL 1
REMARK VINA RESULT:      -8.6      0.000      0.000
REMARK  Name = 
REMARK  3 active torsions:
REMARK  status: ('A' for Active; 'I' for Inactive)
REMARK    1  A    between atoms: C_2  and  C_17
REMARK    2  A    between atoms: C_7  and  C_8
REMARK    3  A    between atoms: C_8  and  C_9
REMARK                            x       y       z     vdW  Elec       q    Type
REMARK                         _______ _______ _______ _____ _____    ______ ____
ROOT
ATOM      1  O   UNL     1       1.907   5.876  20.538  0.00  0.00    +0.000 OA
ATOM      2  C   UNL     1       2.559   6.138  19.525  0.00  0.00    +0.000 C 
ATOM      3  N   UNL     1       2.574   7.336  18.844  0.00  0.00    +0.000 N 
ATOM      4  C   UNL     1       1.807   8.388  19.265  0.00  0.00    +0.000 A 
ATOM      5  N   UNL     1       1.204   8.528  20.418  0.00  0.00    +0.000 NA
ATOM      6  C   UNL     1       0.456   9.682  20.411  0.00  0.00    +0.000 A 
ATOM      7  C   UNL     1       0.488  10.410  19.238  0.00  0.00    +0.000 A 
ATOM      8  S   UNL     1       1.585   9.658  18.143  0.00  0.00    +0.000 S 
ATOM      9  H   UNL     1       3.045   7.407  17.954  0.00  0.00    +0.000 HD
ENDROOT
BRANCH   2  10
ATOM     10  C   UNL     1       3.406   5.028  18.882  0.00  0.00    +0.000 C 
ATOM     11  C   UNL     1       3.782   5.427  17.445  0.00  0.00    +0.000 C 
ATOM     12  C   UNL     1       5.192   5.813  17.673  0.00  0.00    +0.000 A 
ATOM     13  C   UNL     1       6.067   6.498  16.848  0.00  0.00    +0.000 A 
ATOM     14  C   UNL     1       7.368   6.714  17.309  0.00  0.00    +0.000 A 
ATOM     15  C   UNL     1       7.778   6.226  18.562  0.00  0.00    +0.000 A 
ATOM     16  C   UNL     1       6.886   5.522  19.374  0.00  0.00    +0.000 A 
ATOM     17  C   UNL     1       5.601   5.345  18.910  0.00  0.00    +0.000 A 
ATOM     18  O   UNL     1       4.609   4.732  19.627  0.00  0.00    +0.000 OA
ENDBRANCH   2  10
BRANCH   7  19
ATOM     19  C   UNL     1      -0.284  11.646  18.898  0.00  0.00    +0.000 C 
BRANCH  19  20
ATOM     20  C   UNL     1      -1.746  11.347  18.628  0.00  0.00    +0.000 A 
ATOM     21  C   UNL     1      -2.117  10.343  17.717  0.00  0.00    +0.000 A 
ATOM     22  C   UNL     1      -3.461  10.140  17.397  0.00  0.00    +0.000 A 
ATOM     23  C   UNL     1      -4.435  10.934  17.991  0.00  0.00    +0.000 A 
ATOM     24  F   UNL     1      -5.722  10.759  17.660  0.00  0.00    +0.000 F 
ATOM     25  C   UNL     1      -4.093  11.915  18.912  0.00  0.00    +0.000 A 
ATOM     26  C   UNL     1      -2.749  12.122  19.232  0.00  0.00    +0.000 A 
ENDBRANCH  19  20
ENDBRANCH   7  19
TORSDOF 3
ENDMDL
MODEL 2
REMARK VINA RESULT:      -8.6      0.942      1.023
REMARK  Name = 
REMARK  3 active torsions:
REMARK  status: ('A' for Active; 'I' for Inactive)
REMARK    1  A    between atoms: C_2  and  C_17
REMARK    2  A    between atoms: C_7  and  C_8
REMARK    3  A    between atoms: C_8  and  C_9
REMARK                            x       y       z     vdW  Elec       q    Type
REMARK                         _______ _______ _______ _____ _____    ______ ____
ROOT
ATOM      1  O   UNL     1       2.040   5.398  20.707  0.00  0.00    +0.000 OA
ATOM      2  C   UNL     1       2.625   5.492  19.626  0.00  0.00    +0.000 C 
ATOM      3  N   UNL     1       2.704   6.613  18.829  0.00  0.00    +0.000 N 
ATOM      4  C   UNL     1       2.087   7.778  19.197  0.00  0.00    +0.000 A 
ATOM      5  N   UNL     1       1.602   8.089  20.373  0.00  0.00    +0.000 NA
ATOM      6  C   UNL     1       0.978   9.312  20.306  0.00  0.00    +0.000 A 
ATOM      7  C   UNL     1       0.983   9.921  19.067  0.00  0.00    +0.000 A 
ATOM      8  S   UNL     1       1.900   8.955  17.973  0.00  0.00    +0.000 S 
ATOM      9  H   UNL     1       3.102   6.550  17.903  0.00  0.00    +0.000 HD
ENDROOT
BRANCH   2  10
ATOM     10  C   UNL     1       3.297   4.242  19.036  0.00  0.00    +0.000 C 
ATOM     11  C   UNL     1       3.192   4.269  17.503  0.00  0.00    +0.000 C 
ATOM     12  C   UNL     1       4.579   4.670  17.181  0.00  0.00    +0.000 A 
ATOM     13  C   UNL     1       5.118   5.113  15.987  0.00  0.00    +0.000 A 
ATOM     14  C   UNL     1       6.483   5.409  15.955  0.00  0.00    +0.000 A 
ATOM     15  C   UNL     1       7.285   5.234  17.096  0.00  0.00    +0.000 A 
ATOM     16  C   UNL     1       6.727   4.770  18.288  0.00  0.00    +0.000 A 
ATOM     17  C   UNL     1       5.374   4.511  18.303  0.00  0.00    +0.000 A 
ATOM     18  O   UNL     1       4.685   4.112  19.418  0.00  0.00    +0.000 OA
ENDBRANCH   2  10
BRANCH   7  19
ATOM     19  C   UNL     1       0.314  11.198  18.663  0.00  0.00    +0.000 C 
BRANCH  19  20
ATOM     20  C   UNL     1      -1.163  11.003  18.388  0.00  0.00    +0.000 A 
ATOM     21  C   UNL     1      -1.602  10.031  17.472  0.00  0.00    +0.000 A 
ATOM     22  C   UNL     1      -2.957   9.924  17.148  0.00  0.00    +0.000 A 
ATOM     23  C   UNL     1      -3.873  10.782  17.743  0.00  0.00    +0.000 A 
ATOM     24  F   UNL     1      -5.169  10.699  17.409  0.00  0.00    +0.000 F 
ATOM     25  C   UNL     1      -3.465  11.732  18.670  0.00  0.00    +0.000 A 
ATOM     26  C   UNL     1      -2.112  11.844  18.994  0.00  0.00    +0.000 A 
ENDBRANCH  19  20
ENDBRANCH   7  19
TORSDOF 3
ENDMDL
MODEL 3
REMARK VINA RESULT:      -8.4      5.940      8.312
REMARK  Name = 
REMARK  3 active torsions:
REMARK  status: ('A' for Active; 'I' for Inactive)
REMARK    1  A    between atoms: C_2  and  C_17
REMARK    2  A    between atoms: C_7  and  C_8
REMARK    3  A    between atoms: C_8  and  C_9
REMARK                            x       y       z     vdW  Elec       q    Type
REMARK                         _______ _______ _______ _____ _____    ______ ____
ROOT
ATOM      1  O   UNL     1       7.847  10.224  17.804  0.00  0.00    +0.000 OA
ATOM      2  C   UNL     1       8.630   9.607  18.530  0.00  0.00    +0.000 C 
ATOM      3  N   UNL     1       8.675   8.243  18.716  0.00  0.00    +0.000 N 
ATOM      4  C   UNL     1       7.788   7.420  18.077  0.00  0.00    +0.000 A 
ATOM      5  N   UNL     1       7.006   7.716  17.069  0.00  0.00    +0.000 NA
ATOM      6  C   UNL     1       6.198   6.641  16.781  0.00  0.00    +0.000 A 
ATOM      7  C   UNL     1       6.365   5.532  17.587  0.00  0.00    +0.000 A 
ATOM      8  S   UNL     1       7.664   5.827  18.682  0.00  0.00    +0.000 S 
ATOM      9  H   UNL     1       9.273   7.848  19.428  0.00  0.00    +0.000 HD
ENDROOT
BRANCH   2  10
ATOM     10  C   UNL     1       9.634  10.401  19.380  0.00  0.00    +0.000 C 
ATOM     11  C   UNL     1      10.692  11.046  18.469  0.00  0.00    +0.000 C 
ATOM     12  C   UNL     1      10.194  12.439  18.486  0.00  0.00    +0.000 A 
ATOM     13  C   UNL     1      10.537  13.511  17.681  0.00  0.00    +0.000 A 
ATOM     14  C   UNL     1       9.919  14.740  17.929  0.00  0.00    +0.000 A 
ATOM     15  C   UNL     1       8.998  14.883  18.982  0.00  0.00    +0.000 A 
ATOM     16  C   UNL     1       8.677  13.794  19.794  0.00  0.00    +0.000 A 
ATOM     17  C   UNL     1       9.278  12.587  19.513  0.00  0.00    +0.000 A 
ATOM     18  O   UNL     1       9.008  11.425  20.186  0.00  0.00    +0.000 OA
ENDBRANCH   2  10
BRANCH   7  19
ATOM     19  C   UNL     1       5.579   4.259  17.579  0.00  0.00    +0.000 C 
BRANCH  19  20
ATOM     20  C   UNL     1       4.229   4.420  18.249  0.00  0.00    +0.000 A 
ATOM     21  C   UNL     1       4.130   4.952  19.546  0.00  0.00    +0.000 A 
ATOM     22  C   UNL     1       2.895   5.005  20.197  0.00  0.00    +0.000 A 
ATOM     23  C   UNL     1       1.759   4.533  19.550  0.00  0.00    +0.000 A 
ATOM     24  F   UNL     1       0.579   4.556  20.187  0.00  0.00    +0.000 F 
ATOM     25  C   UNL     1       1.830   4.027  18.259  0.00  0.00    +0.000 A 
ATOM     26  C   UNL     1       3.063   3.970  17.607  0.00  0.00    +0.000 A 
ENDBRANCH  19  20
ENDBRANCH   7  19
TORSDOF 3
ENDMDL
MODEL 4
REMARK VINA RESULT:      -8.2      3.197      4.341
REMARK  Name = 
REMARK  3 active torsions:
REMARK  status: ('A' for Active; 'I' for Inactive)
REMARK    1  A    between atoms: C_2  and  C_17
REMARK    2  A    between atoms: C_7  and  C_8
REMARK    3  A    between atoms: C_8  and  C_9
REMARK                            x       y       z     vdW  Elec       q    Type
REMARK                         _______ _______ _______ _____ _____    ______ ____
ROOT
ATOM      1  O   UNL     1       5.249   7.210  15.738  0.00  0.00    +0.000 OA
ATOM      2  C   UNL     1       5.193   6.234  16.490  0.00  0.00    +0.000 C 
ATOM      3  N   UNL     1       4.312   6.050  17.533  0.00  0.00    +0.000 N 
ATOM      4  C   UNL     1       3.381   7.005  17.837  0.00  0.00    +0.000 A 
ATOM      5  N   UNL     1       3.011   8.025  17.105  0.00  0.00    +0.000 NA
ATOM      6  C   UNL     1       2.121   8.801  17.809  0.00  0.00    +0.000 A 
ATOM      7  C   UNL     1       1.828   8.367  19.087  0.00  0.00    +0.000 A 
ATOM      8  S   UNL     1       2.630   6.868  19.367  0.00  0.00    +0.000 S 
ATOM      9  H   UNL     1       4.431   5.272  18.165  0.00  0.00    +0.000 HD
ENDROOT
BRANCH   2  10
ATOM     10  C   UNL     1       6.232   5.113  16.326  0.00  0.00    +0.000 C 
ATOM     11  C   UNL     1       5.567   3.875  15.704  0.00  0.00    +0.000 C 
ATOM     12  C   UNL     1       6.084   4.002  14.324  0.00  0.00    +0.000 A 
ATOM     13  C   UNL     1       5.691   3.350  13.168  0.00  0.00    +0.000 A 
ATOM     14  C   UNL     1       6.372   3.649  11.985  0.00  0.00    +0.000 A 
ATOM     15  C   UNL     1       7.440   4.564  11.980  0.00  0.00    +0.000 A 
ATOM     16  C   UNL     1       7.833   5.199  13.159  0.00  0.00    +0.000 A 
ATOM     17  C   UNL     1       7.129   4.909  14.308  0.00  0.00    +0.000 A 
ATOM     18  O   UNL     1       7.364   5.505  15.518  0.00  0.00    +0.000 OA
ENDBRANCH   2  10
BRANCH   7  19
ATOM     19  C   UNL     1       0.977   9.041  20.118  0.00  0.00    +0.000 C 
BRANCH  19  20
ATOM     20  C   UNL     1       0.486  10.397  19.652  0.00  0.00    +0.000 A 
ATOM     21  C   UNL     1      -0.716  10.518  18.933  0.00  0.00    +0.000 A 
ATOM     22  C   UNL     1      -1.112  11.755  18.420  0.00  0.00    +0.000 A 
ATOM     23  C   UNL     1      -0.313  12.872  18.629  0.00  0.00    +0.000 A 
ATOM     24  F   UNL     1      -0.678  14.052  18.110  0.00  0.00    +0.000 F 
ATOM     25  C   UNL     1       0.866  12.780  19.357  0.00  0.00    +0.000 A 
ATOM     26  C   UNL     1       1.266  11.544  19.870  0.00  0.00    +0.000 A 
ENDBRANCH  19  20
ENDBRANCH   7  19
TORSDOF 3
ENDMDL
MODEL 5
REMARK VINA RESULT:      -8.2      1.079      1.138
REMARK  Name = 
REMARK  3 active torsions:
REMARK  status: ('A' for Active; 'I' for Inactive)
REMARK    1  A    between atoms: C_2  and  C_17
REMARK    2  A    between atoms: C_7  and  C_8
REMARK    3  A    between atoms: C_8  and  C_9
REMARK                            x       y       z     vdW  Elec       q    Type
REMARK                         _______ _______ _______ _____ _____    ______ ____
ROOT
ATOM      1  O   UNL     1       2.184   5.418  20.663  0.00  0.00    +0.000 OA
ATOM      2  C   UNL     1       2.757   5.853  19.663  0.00  0.00    +0.000 C 
ATOM      3  N   UNL     1       2.628   7.115  19.125  0.00  0.00    +0.000 N 
ATOM      4  C   UNL     1       1.788   8.034  19.694  0.00  0.00    +0.000 A 
ATOM      5  N   UNL     1       1.232   7.984  20.878  0.00  0.00    +0.000 NA
ATOM      6  C   UNL     1       0.381   9.053  21.033  0.00  0.00    +0.000 A 
ATOM      7  C   UNL     1       0.288   9.908  19.952  0.00  0.00    +0.000 A 
ATOM      8  S   UNL     1       1.396   9.393  18.736  0.00  0.00    +0.000 S 
ATOM      9  H   UNL     1       3.047   7.331  18.233  0.00  0.00    +0.000 HD
ENDROOT
BRANCH   2  10
ATOM     10  C   UNL     1       3.672   4.910  18.864  0.00  0.00    +0.000 C 
ATOM     11  C   UNL     1       3.975   5.523  17.487  0.00  0.00    +0.000 C 
ATOM     12  C   UNL     1       5.356   5.990  17.740  0.00  0.00    +0.000 A 
ATOM     13  C   UNL     1       6.151   6.847  16.998  0.00  0.00    +0.000 A 
ATOM     14  C   UNL     1       7.443   7.106  17.462  0.00  0.00    +0.000 A 
ATOM     15  C   UNL     1       7.925   6.493  18.632  0.00  0.00    +0.000 A 
ATOM     16  C   UNL     1       7.114   5.619  19.358  0.00  0.00    +0.000 A 
ATOM     17  C   UNL     1       5.835   5.399  18.896  0.00  0.00    +0.000 A 
ATOM     18  O   UNL     1       4.914   4.619  19.542  0.00  0.00    +0.000 OA
ENDBRANCH   2  10
BRANCH   7  19
ATOM     19  C   UNL     1      -0.611  11.093  19.787  0.00  0.00    +0.000 C 
BRANCH  19  20
ATOM     20  C   UNL     1      -1.592  10.908  18.647  0.00  0.00    +0.000 A 
ATOM     21  C   UNL     1      -2.431   9.781  18.597  0.00  0.00    +0.000 A 
ATOM     22  C   UNL     1      -3.261   9.565  17.494  0.00  0.00    +0.000 A 
ATOM     23  C   UNL     1      -3.257  10.476  16.445  0.00  0.00    +0.000 A 
ATOM     24  F   UNL     1      -4.031  10.252  15.373  0.00  0.00    +0.000 F 
ATOM     25  C   UNL     1      -2.455  11.608  16.485  0.00  0.00    +0.000 A 
ATOM     26  C   UNL     1      -1.623  11.826  17.585  0.00  0.00    +0.000 A 
ENDBRANCH  19  20
ENDBRANCH   7  19
TORSDOF 3
ENDMDL
MODEL 6
REMARK VINA RESULT:      -7.9      2.386      2.823
REMARK  Name = 
REMARK  3 active torsions:
REMARK  status: ('A' for Active; 'I' for Inactive)
REMARK    1  A    between atoms: C_2  and  C_17
REMARK    2  A    between atoms: C_7  and  C_8
REMARK    3  A    between atoms: C_8  and  C_9
REMARK                            x       y       z     vdW  Elec       q    Type
REMARK                         _______ _______ _______ _____ _____    ______ ____
ROOT
ATOM      1  O   UNL     1       2.751   7.241  18.075  0.00  0.00    +0.000 OA
ATOM      2  C   UNL     1       2.611   6.750  19.197  0.00  0.00    +0.000 C 
ATOM      3  N   UNL     1       1.995   7.338  20.280  0.00  0.00    +0.000 N 
ATOM      4  C   UNL     1       1.469   8.598  20.185  0.00  0.00    +0.000 A 
ATOM      5  N   UNL     1       1.231   9.286  19.097  0.00  0.00    +0.000 NA
ATOM      6  C   UNL     1       0.791  10.544  19.433  0.00  0.00    +0.000 A 
ATOM      7  C   UNL     1       0.709  10.809  20.786  0.00  0.00    +0.000 A 
ATOM      8  S   UNL     1       1.105   9.378  21.661  0.00  0.00    +0.000 S 
ATOM      9  H   UNL     1       2.043   6.902  21.189  0.00  0.00    +0.000 HD
ENDROOT
BRANCH   2  10
ATOM     10  C   UNL     1       3.225   5.371  19.484  0.00  0.00    +0.000 C 
ATOM     11  C   UNL     1       3.030   4.451  18.268  0.00  0.00    +0.000 C 
ATOM     12  C   UNL     1       4.403   4.498  17.718  0.00  0.00    +0.000 A 
ATOM     13  C   UNL     1       4.878   4.082  16.487  0.00  0.00    +0.000 A 
ATOM     14  C   UNL     1       6.244   4.226  16.230  0.00  0.00    +0.000 A 
ATOM     15  C   UNL     1       7.108   4.753  17.206  0.00  0.00    +0.000 A 
ATOM     16  C   UNL     1       6.613   5.152  18.449  0.00  0.00    +0.000 A 
ATOM     17  C   UNL     1       5.259   5.025  18.669  0.00  0.00    +0.000 A 
ATOM     18  O   UNL     1       4.631   5.435  19.814  0.00  0.00    +0.000 OA
ENDBRANCH   2  10
BRANCH   7  19
ATOM     19  C   UNL     1       0.356  12.102  21.454  0.00  0.00    +0.000 C 
BRANCH  19  20
ATOM     20  C   UNL     1      -1.129  12.208  21.738  0.00  0.00    +0.000 A 
ATOM     21  C   UNL     1      -2.026  12.612  20.734  0.00  0.00    +0.000 A 
ATOM     22  C   UNL     1      -3.378  12.804  21.028  0.00  0.00    +0.000 A 
ATOM     23  C   UNL     1      -3.835  12.588  22.322  0.00  0.00    +0.000 A 
ATOM     24  F   UNL     1      -5.127  12.803  22.610  0.00  0.00    +0.000 F 
ATOM     25  C   UNL     1      -2.972  12.165  23.323  0.00  0.00    +0.000 A 
ATOM     26  C   UNL     1      -1.619  11.974  23.034  0.00  0.00    +0.000 A 
ENDBRANCH  19  20
ENDBRANCH   7  19
TORSDOF 3
ENDMDL
MODEL 7
REMARK VINA RESULT:      -7.9      3.077      3.830
REMARK  Name = 
REMARK  3 active torsions:
REMARK  status: ('A' for Active; 'I' for Inactive)
REMARK    1  A    between atoms: C_2  and  C_17
REMARK    2  A    between atoms: C_7  and  C_8
REMARK    3  A    between atoms: C_8  and  C_9
REMARK                            x       y       z     vdW  Elec       q    Type
REMARK                         _______ _______ _______ _____ _____    ______ ____
ROOT
ATOM      1  O   UNL     1       2.472   4.961  20.804  0.00  0.00    +0.000 OA
ATOM      2  C   UNL     1       3.051   5.077  19.721  0.00  0.00    +0.000 C 
ATOM      3  N   UNL     1       3.074   6.196  18.918  0.00  0.00    +0.000 N 
ATOM      4  C   UNL     1       2.401   7.331  19.280  0.00  0.00    +0.000 A 
ATOM      5  N   UNL     1       1.903   7.625  20.455  0.00  0.00    +0.000 NA
ATOM      6  C   UNL     1       1.220   8.816  20.381  0.00  0.00    +0.000 A 
ATOM      7  C   UNL     1       1.194   9.417  19.138  0.00  0.00    +0.000 A 
ATOM      8  S   UNL     1       2.156   8.490  18.049  0.00  0.00    +0.000 S 
ATOM      9  H   UNL     1       3.474   6.147  17.992  0.00  0.00    +0.000 HD
ENDROOT
BRANCH   2  10
ATOM     10  C   UNL     1       3.782   3.857  19.139  0.00  0.00    +0.000 C 
ATOM     11  C   UNL     1       3.481   3.740  17.635  0.00  0.00    +0.000 C 
ATOM     12  C   UNL     1       4.761   4.254  17.101  0.00  0.00    +0.000 A 
ATOM     13  C   UNL     1       5.089   4.646  15.815  0.00  0.00    +0.000 A 
ATOM     14  C   UNL     1       6.396   5.080  15.578  0.00  0.00    +0.000 A 
ATOM     15  C   UNL     1       7.351   5.090  16.610  0.00  0.00    +0.000 A 
ATOM     16  C   UNL     1       7.005   4.675  17.897  0.00  0.00    +0.000 A 
ATOM     17  C   UNL     1       5.704   4.278  18.114  0.00  0.00    +0.000 A 
ATOM     18  O   UNL     1       5.213   3.908  19.337  0.00  0.00    +0.000 OA
ENDBRANCH   2  10
BRANCH   7  19
ATOM     19  C   UNL     1       0.464  10.657  18.727  0.00  0.00    +0.000 C 
BRANCH  19  20
ATOM     20  C   UNL     1       1.252  11.913  19.043  0.00  0.00    +0.000 A 
ATOM     21  C   UNL     1       2.193  12.418  18.129  0.00  0.00    +0.000 A 
ATOM     22  C   UNL     1       2.988  13.516  18.466  0.00  0.00    +0.000 A 
ATOM     23  C   UNL     1       2.840  14.113  19.712  0.00  0.00    +0.000 A 
ATOM     24  F   UNL     1       3.624  15.147  20.046  0.00  0.00    +0.000 F 
ATOM     25  C   UNL     1       1.899  13.646  20.620  0.00  0.00    +0.000 A 
ATOM     26  C   UNL     1       1.104  12.547  20.287  0.00  0.00    +0.000 A 
ENDBRANCH  19  20
ENDBRANCH   7  19
TORSDOF 3
ENDMDL
MODEL 8
REMARK VINA RESULT:      -7.9      2.901      4.316
REMARK  Name = 
REMARK  3 active torsions:
REMARK  status: ('A' for Active; 'I' for Inactive)
REMARK    1  A    between atoms: C_2  and  C_17
REMARK    2  A    between atoms: C_7  and  C_8
REMARK    3  A    between atoms: C_8  and  C_9
REMARK                            x       y       z     vdW  Elec       q    Type
REMARK                         _______ _______ _______ _____ _____    ______ ____
ROOT
ATOM      1  O   UNL     1       1.905   8.303  17.460  0.00  0.00    +0.000 OA
ATOM      2  C   UNL     1       2.126   7.927  18.613  0.00  0.00    +0.000 C 
ATOM      3  N   UNL     1       1.653   8.505  19.771  0.00  0.00    +0.000 N 
ATOM      4  C   UNL     1       0.860   9.618  19.722  0.00  0.00    +0.000 A 
ATOM      5  N   UNL     1       0.243  10.117  18.680  0.00  0.00    +0.000 NA
ATOM      6  C   UNL     1      -0.372  11.296  19.028  0.00  0.00    +0.000 A 
ATOM      7  C   UNL     1      -0.208  11.694  20.341  0.00  0.00    +0.000 A 
ATOM      8  S   UNL     1       0.673  10.478  21.187  0.00  0.00    +0.000 S 
ATOM      9  H   UNL     1       1.995   8.194  20.668  0.00  0.00    +0.000 HD
ENDROOT
BRANCH   2  10
ATOM     10  C   UNL     1       3.072   6.736  18.834  0.00  0.00    +0.000 C 
ATOM     11  C   UNL     1       2.835   6.136  20.230  0.00  0.00    +0.000 C 
ATOM     12  C   UNL     1       2.067   4.934  19.840  0.00  0.00    +0.000 A 
ATOM     13  C   UNL     1       1.328   4.064  20.622  0.00  0.00    +0.000 A 
ATOM     14  C   UNL     1       0.710   2.981  19.990  0.00  0.00    +0.000 A 
ATOM     15  C   UNL     1       0.860   2.773  18.608  0.00  0.00    +0.000 A 
ATOM     16  C   UNL     1       1.624   3.652  17.838  0.00  0.00    +0.000 A 
ATOM     17  C   UNL     1       2.200   4.727  18.478  0.00  0.00    +0.000 A 
ATOM     18  O   UNL     1       2.920   5.700  17.838  0.00  0.00    +0.000 OA
ENDBRANCH   2  10
BRANCH   7  19
ATOM     19  C   UNL     1      -0.674  12.961  20.986  0.00  0.00    +0.000 C 
BRANCH  19  20
ATOM     20  C   UNL     1      -2.027  12.796  21.649  0.00  0.00    +0.000 A 
ATOM     21  C   UNL     1      -3.213  13.036  20.932  0.00  0.00    +0.000 A 
ATOM     22  C   UNL     1      -4.452  12.980  21.574  0.00  0.00    +0.000 A 
ATOM     23  C   UNL     1      -4.508  12.680  22.930  0.00  0.00    +0.000 A 
ATOM     24  F   UNL     1      -5.696  12.658  23.552  0.00  0.00    +0.000 F 
ATOM     25  C   UNL     1      -3.352  12.416  23.652  0.00  0.00    +0.000 A 
ATOM     26  C   UNL     1      -2.112  12.472  23.013  0.00  0.00    +0.000 A 
ENDBRANCH  19  20
ENDBRANCH   7  19
TORSDOF 3
ENDMDL
MODEL 9
REMARK VINA RESULT:      -7.8      2.538      3.149
REMARK  Name = 
REMARK  3 active torsions:
REMARK  status: ('A' for Active; 'I' for Inactive)
REMARK    1  A    between atoms: C_2  and  C_17
REMARK    2  A    between atoms: C_7  and  C_8
REMARK    3  A    between atoms: C_8  and  C_9
REMARK                            x       y       z     vdW  Elec       q    Type
REMARK                         _______ _______ _______ _____ _____    ______ ____
ROOT
ATOM      1  O   UNL     1       2.139   5.642  20.683  0.00  0.00    +0.000 OA
ATOM      2  C   UNL     1       2.652   6.039  19.634  0.00  0.00    +0.000 C 
ATOM      3  N   UNL     1       2.488   7.279  19.057  0.00  0.00    +0.000 N 
ATOM      4  C   UNL     1       1.680   8.219  19.638  0.00  0.00    +0.000 A 
ATOM      5  N   UNL     1       1.195   8.215  20.854  0.00  0.00    +0.000 NA
ATOM      6  C   UNL     1       0.352   9.289  21.018  0.00  0.00    +0.000 A 
ATOM      7  C   UNL     1       0.193  10.100  19.912  0.00  0.00    +0.000 A 
ATOM      8  S   UNL     1       1.228   9.540  18.653  0.00  0.00    +0.000 S 
ATOM      9  H   UNL     1       2.853   7.461  18.134  0.00  0.00    +0.000 HD
ENDROOT
BRANCH   2  10
ATOM     10  C   UNL     1       3.521   5.066  18.820  0.00  0.00    +0.000 C 
ATOM     11  C   UNL     1       3.875   5.697  17.464  0.00  0.00    +0.000 C 
ATOM     12  C   UNL     1       5.277   6.077  17.743  0.00  0.00    +0.000 A 
ATOM     13  C   UNL     1       6.128   6.905  17.033  0.00  0.00    +0.000 A 
ATOM     14  C   UNL     1       7.428   7.078  17.517  0.00  0.00    +0.000 A 
ATOM     15  C   UNL     1       7.860   6.408  18.676  0.00  0.00    +0.000 A 
ATOM     16  C   UNL     1       6.992   5.563  19.369  0.00  0.00    +0.000 A 
ATOM     17  C   UNL     1       5.708   5.429  18.889  0.00  0.00    +0.000 A 
ATOM     18  O   UNL     1       4.736   4.686  19.503  0.00  0.00    +0.000 OA
ENDBRANCH   2  10
BRANCH   7  19
ATOM     19  C   UNL     1      -0.719  11.277  19.754  0.00  0.00    +0.000 C 
BRANCH  19  20
ATOM     20  C   UNL     1      -0.763  12.133  21.004  0.00  0.00    +0.000 A 
ATOM     21  C   UNL     1      -1.712  11.886  22.012  0.00  0.00    +0.000 A 
ATOM     22  C   UNL     1      -1.813  12.738  23.113  0.00  0.00    +0.000 A 
ATOM     23  C   UNL     1      -0.964  13.833  23.213  0.00  0.00    +0.000 A 
ATOM     24  F   UNL     1      -1.083  14.668  24.255  0.00  0.00    +0.000 F 
ATOM     25  C   UNL     1      -0.003  14.083  22.243  0.00  0.00    +0.000 A 
ATOM     26  C   UNL     1       0.100  13.234  21.139  0.00  0.00    +0.000 A 
ENDBRANCH  19  20
ENDBRANCH   7  19
TORSDOF 3
ENDMDL
