MODEL 1
REMARK VINA RESULT:      -8.2      0.000      0.000
REMARK  Name = 
REMARK  6 active torsions:
REMARK  status: ('A' for Active; 'I' for Inactive)
REMARK    1  A    between atoms: C_1  and  N_2
REMARK    2  A    between atoms: C_6  and  C_7
REMARK    3  A    between atoms: C_7  and  N_8
REMARK    4  A    between atoms: C_7  and  C_22
REMARK    5  A    between atoms: C_9  and  C_11
REMARK    6  A    between atoms: C_13  and  O_14
REMARK                            x       y       z     vdW  Elec       q    Type
REMARK                         _______ _______ _______ _____ _____    ______ ____
ROOT
ATOM      1  N   UNL     1       2.189   7.019  19.540  0.00  0.00    +0.000 N 
ATOM      2  C   UNL     1       1.654   8.169  19.013  0.00  0.00    +0.000 C 
ATOM      3  O   UNL     1       1.559   8.361  17.808  0.00  0.00    +0.000 OA
ATOM      4  H   UNL     1       2.061   6.790  20.520  0.00  0.00    +0.000 HD
ENDROOT
BRANCH   2   5
ATOM      5  C   UNL     1       1.203   9.190  20.017  0.00  0.00    +0.000 A 
ATOM      6  C   UNL     1       0.738   8.716  21.250  0.00  0.00    +0.000 A 
ATOM      7  C   UNL     1       0.350   9.638  22.192  0.00  0.00    +0.000 A 
ATOM      8  N   UNL     1       0.403  10.961  22.009  0.00  0.00    +0.000 NA
ATOM      9  C   UNL     1       0.873  11.427  20.845  0.00  0.00    +0.000 A 
ATOM     10  C   UNL     1       0.950  12.806  20.703  0.00  0.00    +0.000 A 
ATOM     11  C   UNL     1       1.429  13.406  19.539  0.00  0.00    +0.000 A 
ATOM     12  C   UNL     1       1.823  12.608  18.477  0.00  0.00    +0.000 A 
ATOM     13  C   UNL     1       1.748  11.219  18.593  0.00  0.00    +0.000 A 
ATOM     14  C   UNL     1       1.289  10.592  19.783  0.00  0.00    +0.000 A 
BRANCH   7  15
ATOM     15  O   UNL     1      -0.111   9.248  23.413  0.00  0.00    +0.000 OA
ATOM     16  H   UNL     1       0.634   9.215  24.030  0.00  0.00    +0.000 HD
ENDBRANCH   7  15
ENDBRANCH   2   5
BRANCH   1  17
ATOM     17  C   UNL     1       2.692   5.909  18.749  0.00  0.00    +0.000 C 
BRANCH  17  18
ATOM     18  C   UNL     1       4.178   6.071  18.431  0.00  0.00    +0.000 A 
ATOM     19  C   UNL     1       4.565   6.667  17.215  0.00  0.00    +0.000 A 
ATOM     20  C   UNL     1       5.911   6.752  16.841  0.00  0.00    +0.000 A 
ATOM     21  C   UNL     1       6.900   6.252  17.684  0.00  0.00    +0.000 A 
ATOM     22  C   UNL     1       6.536   5.715  18.910  0.00  0.00    +0.000 A 
ATOM     23  F   UNL     1       7.486   5.248  19.730  0.00  0.00    +0.000 F 
ATOM     24  C   UNL     1       5.197   5.636  19.297  0.00  0.00    +0.000 A 
ENDBRANCH  17  18
BRANCH  17  30
ATOM     25  C   UNL     1       2.459   2.960  17.708  0.00  0.00    +0.000 C 
ATOM     26  N   UNL     1       2.281   3.389  19.072  0.00  0.00    +0.000 N 
ATOM     27  C   UNL     1       1.970   2.560  20.117  0.00  0.00    +0.000 A 
ATOM     28  C   UNL     1       1.889   3.375  21.219  0.00  0.00    +0.000 A 
ATOM     29  N   UNL     1       2.133   4.676  20.875  0.00  0.00    +0.000 NA
ATOM     30  C   UNL     1       2.377   4.670  19.568  0.00  0.00    +0.000 A 
ENDBRANCH  17  30
ENDBRANCH   1  17
TORSDOF 5
ENDMDL
MODEL 2
REMARK VINA RESULT:      -8.1      1.225      1.262
REMARK  Name = 
REMARK  6 active torsions:
REMARK  status: ('A' for Active; 'I' for Inactive)
REMARK    1  A    between atoms: C_1  and  N_2
REMARK    2  A    between atoms: C_6  and  C_7
REMARK    3  A    between atoms: C_7  and  N_8
REMARK    4  A    between atoms: C_7  and  C_22
REMARK    5  A    between atoms: C_9  and  C_11
REMARK    6  A    between atoms: C_13  and  O_14
REMARK                            x       y       z     vdW  Elec       q    Type
REMARK                         _______ _______ _______ _____ _____    ______ ____
ROOT
ATOM      1  N   UNL     1       2.145   6.810  19.288  0.00  0.00    +0.000 N 
ATOM      2  C   UNL     1       1.813   8.081  18.886  0.00  0.00    +0.000 C 
ATOM      3  O   UNL     1       2.013   8.486  17.748  0.00  0.00    +0.000 OA
ATOM      4  H   UNL     1       1.778   6.428  20.154  0.00  0.00    +0.000 HD
ENDROOT
BRANCH   2   5
ATOM      5  C   UNL     1       1.197   8.951  19.942  0.00  0.00    +0.000 A 
ATOM      6  C   UNL     1       1.646   8.781  21.258  0.00  0.00    +0.000 A 
ATOM      7  C   UNL     1       1.115   9.590  22.232  0.00  0.00    +0.000 A 
ATOM      8  N   UNL     1       0.206  10.542  22.000  0.00  0.00    +0.000 NA
ATOM      9  C   UNL     1      -0.212  10.734  20.742  0.00  0.00    +0.000 A 
ATOM     10  C   UNL     1      -1.127  11.756  20.530  0.00  0.00    +0.000 A 
ATOM     11  C   UNL     1      -1.627  12.053  19.263  0.00  0.00    +0.000 A 
ATOM     12  C   UNL     1      -1.217  11.296  18.177  0.00  0.00    +0.000 A 
ATOM     13  C   UNL     1      -0.302  10.259  18.365  0.00  0.00    +0.000 A 
ATOM     14  C   UNL     1       0.238   9.962  19.646  0.00  0.00    +0.000 A 
BRANCH   7  15
ATOM     15  O   UNL     1       1.507   9.480  23.532  0.00  0.00    +0.000 OA
ATOM     16  H   UNL     1       0.887   8.898  23.994  0.00  0.00    +0.000 HD
ENDBRANCH   7  15
ENDBRANCH   2   5
BRANCH   1  17
ATOM     17  C   UNL     1       2.757   5.809  18.430  0.00  0.00    +0.000 C 
BRANCH  17  18
ATOM     18  C   UNL     1       4.265   6.022  18.303  0.00  0.00    +0.000 A 
ATOM     19  C   UNL     1       4.779   6.659  17.157  0.00  0.00    +0.000 A 
ATOM     20  C   UNL     1       6.159   6.791  16.955  0.00  0.00    +0.000 A 
ATOM     21  C   UNL     1       7.050   6.299  17.904  0.00  0.00    +0.000 A 
ATOM     22  C   UNL     1       6.555   5.723  19.064  0.00  0.00    +0.000 A 
ATOM     23  F   UNL     1       7.410   5.262  19.986  0.00  0.00    +0.000 F 
ATOM     24  C   UNL     1       5.181   5.595  19.280  0.00  0.00    +0.000 A 
ENDBRANCH  17  18
BRANCH  17  30
ATOM     25  C   UNL     1       2.758   3.001  17.036  0.00  0.00    +0.000 C 
ATOM     26  N   UNL     1       2.392   3.262  18.405  0.00  0.00    +0.000 N 
ATOM     27  C   UNL     1       1.976   2.310  19.297  0.00  0.00    +0.000 A 
ATOM     28  C   UNL     1       1.727   2.987  20.466  0.00  0.00    +0.000 A 
ATOM     29  N   UNL     1       1.970   4.324  20.308  0.00  0.00    +0.000 NA
ATOM     30  C   UNL     1       2.380   4.477  19.053  0.00  0.00    +0.000 A 
ENDBRANCH  17  30
ENDBRANCH   1  17
TORSDOF 5
ENDMDL
MODEL 3
REMARK VINA RESULT:      -8.0      1.767      2.656
REMARK  Name = 
REMARK  6 active torsions:
REMARK  status: ('A' for Active; 'I' for Inactive)
REMARK    1  A    between atoms: C_1  and  N_2
REMARK    2  A    between atoms: C_6  and  C_7
REMARK    3  A    between atoms: C_7  and  N_8
REMARK    4  A    between atoms: C_7  and  C_22
REMARK    5  A    between atoms: C_9  and  C_11
REMARK    6  A    between atoms: C_13  and  O_14
REMARK                            x       y       z     vdW  Elec       q    Type
REMARK                         _______ _______ _______ _____ _____    ______ ____
ROOT
ATOM      1  N   UNL     1       3.012   6.741  18.702  0.00  0.00    +0.000 N 
ATOM      2  C   UNL     1       1.927   7.413  18.195  0.00  0.00    +0.000 C 
ATOM      3  O   UNL     1       1.157   6.911  17.388  0.00  0.00    +0.000 OA
ATOM      4  H   UNL     1       3.502   7.088  19.519  0.00  0.00    +0.000 HD
ENDROOT
BRANCH   2   5
ATOM      5  C   UNL     1       1.753   8.820  18.689  0.00  0.00    +0.000 A 
ATOM      6  C   UNL     1       2.187   9.854  17.851  0.00  0.00    +0.000 A 
ATOM      7  C   UNL     1       2.008  11.148  18.274  0.00  0.00    +0.000 A 
ATOM      8  N   UNL     1       1.430  11.483  19.432  0.00  0.00    +0.000 NA
ATOM      9  C   UNL     1       0.985  10.504  20.231  0.00  0.00    +0.000 A 
ATOM     10  C   UNL     1       0.356  10.887  21.408  0.00  0.00    +0.000 A 
ATOM     11  C   UNL     1      -0.155   9.957  22.312  0.00  0.00    +0.000 A 
ATOM     12  C   UNL     1      -0.015   8.604  22.047  0.00  0.00    +0.000 A 
ATOM     13  C   UNL     1       0.620   8.194  20.873  0.00  0.00    +0.000 A 
ATOM     14  C   UNL     1       1.120   9.130  19.927  0.00  0.00    +0.000 A 
BRANCH   7  15
ATOM     15  O   UNL     1       2.405  12.203  17.509  0.00  0.00    +0.000 OA
ATOM     16  H   UNL     1       2.177  13.023  17.970  0.00  0.00    +0.000 HD
ENDBRANCH   7  15
ENDBRANCH   2   5
BRANCH   1  17
ATOM     17  C   UNL     1       3.369   5.376  18.353  0.00  0.00    +0.000 C 
BRANCH  17  18
ATOM     18  C   UNL     1       4.874   5.226  18.134  0.00  0.00    +0.000 A 
ATOM     19  C   UNL     1       5.348   4.720  16.907  0.00  0.00    +0.000 A 
ATOM     20  C   UNL     1       6.711   4.479  16.698  0.00  0.00    +0.000 A 
ATOM     21  C   UNL     1       7.629   4.750  17.708  0.00  0.00    +0.000 A 
ATOM     22  C   UNL     1       7.181   5.303  18.899  0.00  0.00    +0.000 A 
ATOM     23  F   UNL     1       8.064   5.580  19.867  0.00  0.00    +0.000 F 
ATOM     24  C   UNL     1       5.826   5.557  19.114  0.00  0.00    +0.000 A 
ENDBRANCH  17  18
BRANCH  17  30
ATOM     25  C   UNL     1       2.649   2.325  18.263  0.00  0.00    +0.000 C 
ATOM     26  N   UNL     1       2.525   3.187  19.411  0.00  0.00    +0.000 N 
ATOM     27  C   UNL     1       2.059   2.793  20.637  0.00  0.00    +0.000 A 
ATOM     28  C   UNL     1       2.101   3.917  21.424  0.00  0.00    +0.000 A 
ATOM     29  N   UNL     1       2.571   4.985  20.711  0.00  0.00    +0.000 NA
ATOM     30  C   UNL     1       2.832   4.527  19.491  0.00  0.00    +0.000 A 
ENDBRANCH  17  30
ENDBRANCH   1  17
TORSDOF 5
ENDMDL
MODEL 4
REMARK VINA RESULT:      -8.0      1.901      2.841
REMARK  Name = 
REMARK  6 active torsions:
REMARK  status: ('A' for Active; 'I' for Inactive)
REMARK    1  A    between atoms: C_1  and  N_2
REMARK    2  A    between atoms: C_6  and  C_7
REMARK    3  A    between atoms: C_7  and  N_8
REMARK    4  A    between atoms: C_7  and  C_22
REMARK    5  A    between atoms: C_9  and  C_11
REMARK    6  A    between atoms: C_13  and  O_14
REMARK                            x       y       z     vdW  Elec       q    Type
REMARK                         _______ _______ _______ _____ _____    ______ ____
ROOT
ATOM      1  N   UNL     1       3.003   6.762  18.711  0.00  0.00    +0.000 N 
ATOM      2  C   UNL     1       1.921   7.437  18.201  0.00  0.00    +0.000 C 
ATOM      3  O   UNL     1       1.153   6.937  17.390  0.00  0.00    +0.000 OA
ATOM      4  H   UNL     1       3.492   7.108  19.530  0.00  0.00    +0.000 HD
ENDROOT
BRANCH   2   5
ATOM      5  C   UNL     1       1.748   8.844  18.695  0.00  0.00    +0.000 A 
ATOM      6  C   UNL     1       2.189   9.877  17.858  0.00  0.00    +0.000 A 
ATOM      7  C   UNL     1       2.011  11.172  18.282  0.00  0.00    +0.000 A 
ATOM      8  N   UNL     1       1.429  11.507  19.437  0.00  0.00    +0.000 NA
ATOM      9  C   UNL     1       0.979  10.529  20.234  0.00  0.00    +0.000 A 
ATOM     10  C   UNL     1       0.345  10.913  21.408  0.00  0.00    +0.000 A 
ATOM     11  C   UNL     1      -0.171   9.984  22.310  0.00  0.00    +0.000 A 
ATOM     12  C   UNL     1      -0.033   8.631  22.044  0.00  0.00    +0.000 A 
ATOM     13  C   UNL     1       0.606   8.220  20.873  0.00  0.00    +0.000 A 
ATOM     14  C   UNL     1       1.112   9.155  19.930  0.00  0.00    +0.000 A 
BRANCH   7  15
ATOM     15  O   UNL     1       2.414  12.226  17.519  0.00  0.00    +0.000 OA
ATOM     16  H   UNL     1       2.770  11.887  16.685  0.00  0.00    +0.000 HD
ENDBRANCH   7  15
ENDBRANCH   2   5
BRANCH   1  17
ATOM     17  C   UNL     1       3.359   5.396  18.362  0.00  0.00    +0.000 C 
BRANCH  17  18
ATOM     18  C   UNL     1       4.871   5.225  18.224  0.00  0.00    +0.000 A 
ATOM     19  C   UNL     1       5.707   5.562  19.306  0.00  0.00    +0.000 A 
ATOM     20  C   UNL     1       7.102   5.510  19.192  0.00  0.00    +0.000 A 
ATOM     21  C   UNL     1       7.687   5.108  17.994  0.00  0.00    +0.000 A 
ATOM     22  C   UNL     1       6.873   4.718  16.941  0.00  0.00    +0.000 A 
ATOM     23  F   UNL     1       7.434   4.315  15.793  0.00  0.00    +0.000 F 
ATOM     24  C   UNL     1       5.482   4.756  17.048  0.00  0.00    +0.000 A 
ENDBRANCH  17  18
BRANCH  17  30
ATOM     25  C   UNL     1       2.365   2.432  18.117  0.00  0.00    +0.000 C 
ATOM     26  N   UNL     1       2.321   3.240  19.309  0.00  0.00    +0.000 N 
ATOM     27  C   UNL     1       1.822   2.826  20.516  0.00  0.00    +0.000 A 
ATOM     28  C   UNL     1       1.966   3.899  21.360  0.00  0.00    +0.000 A 
ATOM     29  N   UNL     1       2.531   4.956  20.702  0.00  0.00    +0.000 NA
ATOM     30  C   UNL     1       2.747   4.541  19.458  0.00  0.00    +0.000 A 
ENDBRANCH  17  30
ENDBRANCH   1  17
TORSDOF 5
ENDMDL
MODEL 5
REMARK VINA RESULT:      -8.0      1.687      2.744
REMARK  Name = 
REMARK  6 active torsions:
REMARK  status: ('A' for Active; 'I' for Inactive)
REMARK    1  A    between atoms: C_1  and  N_2
REMARK    2  A    between atoms: C_6  and  C_7
REMARK    3  A    between atoms: C_7  and  N_8
REMARK    4  A    between atoms: C_7  and  C_22
REMARK    5  A    between atoms: C_9  and  C_11
REMARK    6  A    between atoms: C_13  and  O_14
REMARK                            x       y       z     vdW  Elec       q    Type
REMARK                         _______ _______ _______ _____ _____    ______ ____
ROOT
ATOM      1  N   UNL     1       2.750   7.656  18.817  0.00  0.00    +0.000 N 
ATOM      2  C   UNL     1       1.743   8.433  18.299  0.00  0.00    +0.000 C 
ATOM      3  O   UNL     1       1.107   8.112  17.303  0.00  0.00    +0.000 OA
ATOM      4  H   UNL     1       3.110   7.828  19.750  0.00  0.00    +0.000 HD
ENDROOT
BRANCH   2   5
ATOM      5  C   UNL     1       1.479   9.718  19.029  0.00  0.00    +0.000 A 
ATOM      6  C   UNL     1       1.867  10.907  18.398  0.00  0.00    +0.000 A 
ATOM      7  C   UNL     1       1.606  12.093  19.039  0.00  0.00    +0.000 A 
ATOM      8  N   UNL     1       0.991  12.185  20.222  0.00  0.00    +0.000 NA
ATOM      9  C   UNL     1       0.590  11.057  20.823  0.00  0.00    +0.000 A 
ATOM     10  C   UNL     1      -0.079  11.190  22.032  0.00  0.00    +0.000 A 
ATOM     11  C   UNL     1      -0.549  10.088  22.744  0.00  0.00    +0.000 A 
ATOM     12  C   UNL     1      -0.327   8.813  22.247  0.00  0.00    +0.000 A 
ATOM     13  C   UNL     1       0.350   8.653  21.037  0.00  0.00    +0.000 A 
ATOM     14  C   UNL     1       0.810   9.768  20.285  0.00  0.00    +0.000 A 
BRANCH   7  15
ATOM     15  O   UNL     1       1.954  13.288  18.483  0.00  0.00    +0.000 OA
ATOM     16  H   UNL     1       2.394  13.826  19.156  0.00  0.00    +0.000 HD
ENDBRANCH   7  15
ENDBRANCH   2   5
BRANCH   1  17
ATOM     17  C   UNL     1       3.172   6.381  18.263  0.00  0.00    +0.000 C 
BRANCH  17  18
ATOM     18  C   UNL     1       4.692   6.227  18.298  0.00  0.00    +0.000 A 
ATOM     19  C   UNL     1       5.277   5.347  19.230  0.00  0.00    +0.000 A 
ATOM     20  C   UNL     1       6.668   5.244  19.360  0.00  0.00    +0.000 A 
ATOM     21  C   UNL     1       7.501   6.012  18.552  0.00  0.00    +0.000 A 
ATOM     22  C   UNL     1       6.937   6.838  17.590  0.00  0.00    +0.000 A 
ATOM     23  F   UNL     1       7.736   7.566  16.800  0.00  0.00    +0.000 F 
ATOM     24  C   UNL     1       5.553   6.940  17.445  0.00  0.00    +0.000 A 
ENDBRANCH  17  18
BRANCH  17  30
ATOM     25  C   UNL     1       2.395   3.479  17.365  0.00  0.00    +0.000 C 
ATOM     26  N   UNL     1       2.111   4.069  18.649  0.00  0.00    +0.000 N 
ATOM     27  C   UNL     1       1.442   3.441  19.666  0.00  0.00    +0.000 A 
ATOM     28  C   UNL     1       1.387   4.356  20.688  0.00  0.00    +0.000 A 
ATOM     29  N   UNL     1       1.994   5.525  20.320  0.00  0.00    +0.000 NA
ATOM     30  C   UNL     1       2.436   5.335  19.081  0.00  0.00    +0.000 A 
ENDBRANCH  17  30
ENDBRANCH   1  17
TORSDOF 5
ENDMDL
MODEL 6
REMARK VINA RESULT:      -8.0      2.464      4.446
REMARK  Name = 
REMARK  6 active torsions:
REMARK  status: ('A' for Active; 'I' for Inactive)
REMARK    1  A    between atoms: C_1  and  N_2
REMARK    2  A    between atoms: C_6  and  C_7
REMARK    3  A    between atoms: C_7  and  N_8
REMARK    4  A    between atoms: C_7  and  C_22
REMARK    5  A    between atoms: C_9  and  C_11
REMARK    6  A    between atoms: C_13  and  O_14
REMARK                            x       y       z     vdW  Elec       q    Type
REMARK                         _______ _______ _______ _____ _____    ______ ____
ROOT
ATOM      1  N   UNL     1       2.017   7.532  19.368  0.00  0.00    +0.000 N 
ATOM      2  C   UNL     1       1.427   8.201  20.413  0.00  0.00    +0.000 C 
ATOM      3  O   UNL     1       1.654   7.929  21.584  0.00  0.00    +0.000 OA
ATOM      4  H   UNL     1       1.985   7.908  18.427  0.00  0.00    +0.000 HD
ENDROOT
BRANCH   2   5
ATOM      5  C   UNL     1       0.466   9.286  20.021  0.00  0.00    +0.000 A 
ATOM      6  C   UNL     1       0.200   9.447  18.656  0.00  0.00    +0.000 A 
ATOM      7  C   UNL     1      -0.700  10.416  18.283  0.00  0.00    +0.000 A 
ATOM      8  N   UNL     1      -1.349  11.206  19.144  0.00  0.00    +0.000 NA
ATOM      9  C   UNL     1      -1.124  11.043  20.455  0.00  0.00    +0.000 A 
ATOM     10  C   UNL     1      -1.843  11.853  21.323  0.00  0.00    +0.000 A 
ATOM     11  C   UNL     1      -1.698  11.768  22.707  0.00  0.00    +0.000 A 
ATOM     12  C   UNL     1      -0.794  10.863  23.241  0.00  0.00    +0.000 A 
ATOM     13  C   UNL     1      -0.054  10.042  22.388  0.00  0.00    +0.000 A 
ATOM     14  C   UNL     1      -0.212  10.097  20.976  0.00  0.00    +0.000 A 
BRANCH   7  15
ATOM     15  O   UNL     1      -1.008  10.627  16.973  0.00  0.00    +0.000 OA
ATOM     16  H   UNL     1      -0.624  11.471  16.696  0.00  0.00    +0.000 HD
ENDBRANCH   7  15
ENDBRANCH   2   5
BRANCH   1  17
ATOM     17  C   UNL     1       2.969   6.444  19.522  0.00  0.00    +0.000 C 
BRANCH  17  18
ATOM     18  C   UNL     1       2.268   5.088  19.601  0.00  0.00    +0.000 A 
ATOM     19  C   UNL     1       1.851   4.456  18.413  0.00  0.00    +0.000 A 
ATOM     20  C   UNL     1       1.124   3.259  18.442  0.00  0.00    +0.000 A 
ATOM     21  C   UNL     1       0.810   2.666  19.662  0.00  0.00    +0.000 A 
ATOM     22  C   UNL     1       1.266   3.249  20.835  0.00  0.00    +0.000 A 
ATOM     23  F   UNL     1       0.979   2.672  22.009  0.00  0.00    +0.000 F 
ATOM     24  C   UNL     1       2.001   4.435  20.816  0.00  0.00    +0.000 A 
ENDBRANCH  17  18
BRANCH  17  30
ATOM     25  C   UNL     1       5.804   5.144  19.201  0.00  0.00    +0.000 C 
ATOM     26  N   UNL     1       5.150   5.989  18.235  0.00  0.00    +0.000 N 
ATOM     27  C   UNL     1       5.686   6.358  17.030  0.00  0.00    +0.000 A 
ATOM     28  C   UNL     1       4.742   7.161  16.439  0.00  0.00    +0.000 A 
ATOM     29  N   UNL     1       3.651   7.298  17.252  0.00  0.00    +0.000 NA
ATOM     30  C   UNL     1       3.909   6.576  18.337  0.00  0.00    +0.000 A 
ENDBRANCH  17  30
ENDBRANCH   1  17
TORSDOF 5
ENDMDL
MODEL 7
REMARK VINA RESULT:      -8.0      0.883      1.246
REMARK  Name = 
REMARK  6 active torsions:
REMARK  status: ('A' for Active; 'I' for Inactive)
REMARK    1  A    between atoms: C_1  and  N_2
REMARK    2  A    between atoms: C_6  and  C_7
REMARK    3  A    between atoms: C_7  and  N_8
REMARK    4  A    between atoms: C_7  and  C_22
REMARK    5  A    between atoms: C_9  and  C_11
REMARK    6  A    between atoms: C_13  and  O_14
REMARK                            x       y       z     vdW  Elec       q    Type
REMARK                         _______ _______ _______ _____ _____    ______ ____
ROOT
ATOM      1  N   UNL     1       2.191   7.151  19.319  0.00  0.00    +0.000 N 
ATOM      2  C   UNL     1       1.705   8.338  18.828  0.00  0.00    +0.000 C 
ATOM      3  O   UNL     1       1.630   8.576  17.630  0.00  0.00    +0.000 OA
ATOM      4  H   UNL     1       2.045   6.892  20.288  0.00  0.00    +0.000 HD
ENDROOT
BRANCH   2   5
ATOM      5  C   UNL     1       1.281   9.338  19.865  0.00  0.00    +0.000 A 
ATOM      6  C   UNL     1       0.850   8.840  21.100  0.00  0.00    +0.000 A 
ATOM      7  C   UNL     1       0.486   9.742  22.070  0.00  0.00    +0.000 A 
ATOM      8  N   UNL     1       0.534  11.068  21.913  0.00  0.00    +0.000 NA
ATOM      9  C   UNL     1       0.971  11.558  20.745  0.00  0.00    +0.000 A 
ATOM     10  C   UNL     1       1.044  12.940  20.629  0.00  0.00    +0.000 A 
ATOM     11  C   UNL     1       1.491  13.563  19.465  0.00  0.00    +0.000 A 
ATOM     12  C   UNL     1       1.857  12.787  18.376  0.00  0.00    +0.000 A 
ATOM     13  C   UNL     1       1.786  11.396  18.467  0.00  0.00    +0.000 A 
ATOM     14  C   UNL     1       1.359  10.745  19.657  0.00  0.00    +0.000 A 
BRANCH   7  15
ATOM     15  O   UNL     1       0.058   9.328  23.295  0.00  0.00    +0.000 OA
ATOM     16  H   UNL     1      -0.132   8.380  23.252  0.00  0.00    +0.000 HD
ENDBRANCH   7  15
ENDBRANCH   2   5
BRANCH   1  17
ATOM     17  C   UNL     1       2.663   6.052  18.493  0.00  0.00    +0.000 C 
BRANCH  17  18
ATOM     18  C   UNL     1       4.188   6.023  18.409  0.00  0.00    +0.000 A 
ATOM     19  C   UNL     1       4.916   5.219  19.308  0.00  0.00    +0.000 A 
ATOM     20  C   UNL     1       6.316   5.234  19.329  0.00  0.00    +0.000 A 
ATOM     21  C   UNL     1       7.016   6.045  18.440  0.00  0.00    +0.000 A 
ATOM     22  C   UNL     1       6.312   6.796  17.511  0.00  0.00    +0.000 A 
ATOM     23  F   UNL     1       6.983   7.566  16.645  0.00  0.00    +0.000 F 
ATOM     24  C   UNL     1       4.916   6.781  17.475  0.00  0.00    +0.000 A 
ENDBRANCH  17  18
BRANCH  17  30
ATOM     25  C   UNL     1       2.483   3.191  17.222  0.00  0.00    +0.000 C 
ATOM     26  N   UNL     1       2.003   3.565  18.528  0.00  0.00    +0.000 N 
ATOM     27  C   UNL     1       1.382   2.715  19.405  0.00  0.00    +0.000 A 
ATOM     28  C   UNL     1       1.088   3.478  20.508  0.00  0.00    +0.000 A 
ATOM     29  N   UNL     1       1.504   4.768  20.326  0.00  0.00    +0.000 NA
ATOM     30  C   UNL     1       2.064   4.806  19.121  0.00  0.00    +0.000 A 
ENDBRANCH  17  30
ENDBRANCH   1  17
TORSDOF 5
ENDMDL
MODEL 8
REMARK VINA RESULT:      -7.9      3.288      7.023
REMARK  Name = 
REMARK  6 active torsions:
REMARK  status: ('A' for Active; 'I' for Inactive)
REMARK    1  A    between atoms: C_1  and  N_2
REMARK    2  A    between atoms: C_6  and  C_7
REMARK    3  A    between atoms: C_7  and  N_8
REMARK    4  A    between atoms: C_7  and  C_22
REMARK    5  A    between atoms: C_9  and  C_11
REMARK    6  A    between atoms: C_13  and  O_14
REMARK                            x       y       z     vdW  Elec       q    Type
REMARK                         _______ _______ _______ _____ _____    ______ ____
ROOT
ATOM      1  N   UNL     1       3.690   6.106  19.167  0.00  0.00    +0.000 N 
ATOM      2  C   UNL     1       4.787   5.294  19.017  0.00  0.00    +0.000 C 
ATOM      3  O   UNL     1       4.966   4.292  19.697  0.00  0.00    +0.000 OA
ATOM      4  H   UNL     1       3.453   6.794  18.460  0.00  0.00    +0.000 HD
ENDROOT
BRANCH   2   5
ATOM      5  C   UNL     1       5.768   5.725  17.965  0.00  0.00    +0.000 A 
ATOM      6  C   UNL     1       6.626   6.786  18.282  0.00  0.00    +0.000 A 
ATOM      7  C   UNL     1       7.549   7.173  17.342  0.00  0.00    +0.000 A 
ATOM      8  N   UNL     1       7.692   6.589  16.148  0.00  0.00    +0.000 NA
ATOM      9  C   UNL     1       6.897   5.555  15.844  0.00  0.00    +0.000 A 
ATOM     10  C   UNL     1       7.097   4.947  14.612  0.00  0.00    +0.000 A 
ATOM     11  C   UNL     1       6.335   3.859  14.190  0.00  0.00    +0.000 A 
ATOM     12  C   UNL     1       5.330   3.374  15.012  0.00  0.00    +0.000 A 
ATOM     13  C   UNL     1       5.105   3.972  16.253  0.00  0.00    +0.000 A 
ATOM     14  C   UNL     1       5.892   5.065  16.709  0.00  0.00    +0.000 A 
BRANCH   7  15
ATOM     15  O   UNL     1       8.416   8.197  17.584  0.00  0.00    +0.000 OA
ATOM     16  H   UNL     1       9.320   7.867  17.485  0.00  0.00    +0.000 HD
ENDBRANCH   7  15
ENDBRANCH   2   5
BRANCH   1  17
ATOM     17  C   UNL     1       2.624   5.878  20.129  0.00  0.00    +0.000 C 
BRANCH  17  18
ATOM     18  C   UNL     1       1.725   7.105  20.275  0.00  0.00    +0.000 A 
ATOM     19  C   UNL     1       1.823   8.150  19.335  0.00  0.00    +0.000 A 
ATOM     20  C   UNL     1       1.085   9.331  19.481  0.00  0.00    +0.000 A 
ATOM     21  C   UNL     1       0.226   9.485  20.565  0.00  0.00    +0.000 A 
ATOM     22  C   UNL     1       0.078   8.440  21.465  0.00  0.00    +0.000 A 
ATOM     23  F   UNL     1      -0.760   8.579  22.500  0.00  0.00    +0.000 F 
ATOM     24  C   UNL     1       0.800   7.254  21.322  0.00  0.00    +0.000 A 
ENDBRANCH  17  18
BRANCH  17  30
ATOM     25  C   UNL     1       1.947   3.281  21.750  0.00  0.00    +0.000 C 
ATOM     26  N   UNL     1       1.619   3.522  20.367  0.00  0.00    +0.000 N 
ATOM     27  C   UNL     1       0.967   2.633  19.554  0.00  0.00    +0.000 A 
ATOM     28  C   UNL     1       0.871   3.257  18.334  0.00  0.00    +0.000 A 
ATOM     29  N   UNL     1       1.452   4.494  18.380  0.00  0.00    +0.000 NA
ATOM     30  C   UNL     1       1.897   4.645  19.622  0.00  0.00    +0.000 A 
ENDBRANCH  17  30
ENDBRANCH   1  17
TORSDOF 5
ENDMDL
MODEL 9
REMARK VINA RESULT:      -7.9      1.473      1.743
REMARK  Name = 
REMARK  6 active torsions:
REMARK  status: ('A' for Active; 'I' for Inactive)
REMARK    1  A    between atoms: C_1  and  N_2
REMARK    2  A    between atoms: C_6  and  C_7
REMARK    3  A    between atoms: C_7  and  N_8
REMARK    4  A    between atoms: C_7  and  C_22
REMARK    5  A    between atoms: C_9  and  C_11
REMARK    6  A    between atoms: C_13  and  O_14
REMARK                            x       y       z     vdW  Elec       q    Type
REMARK                         _______ _______ _______ _____ _____    ______ ____
ROOT
ATOM      1  N   UNL     1       2.020   6.812  19.286  0.00  0.00    +0.000 N 
ATOM      2  C   UNL     1       1.712   8.092  18.893  0.00  0.00    +0.000 C 
ATOM      3  O   UNL     1       1.900   8.496  17.754  0.00  0.00    +0.000 OA
ATOM      4  H   UNL     1       1.661   6.437  20.158  0.00  0.00    +0.000 HD
ENDROOT
BRANCH   2   5
ATOM      5  C   UNL     1       1.139   8.974  19.964  0.00  0.00    +0.000 A 
ATOM      6  C   UNL     1       1.603   8.783  21.271  0.00  0.00    +0.000 A 
ATOM      7  C   UNL     1       1.111   9.602  22.258  0.00  0.00    +0.000 A 
ATOM      8  N   UNL     1       0.227  10.582  22.045  0.00  0.00    +0.000 NA
ATOM      9  C   UNL     1      -0.204  10.793  20.795  0.00  0.00    +0.000 A 
ATOM     10  C   UNL     1      -1.092  11.843  20.603  0.00  0.00    +0.000 A 
ATOM     11  C   UNL     1      -1.602  12.162  19.345  0.00  0.00    +0.000 A 
ATOM     12  C   UNL     1      -1.232  11.399  18.249  0.00  0.00    +0.000 A 
ATOM     13  C   UNL     1      -0.345  10.334  18.418  0.00  0.00    +0.000 A 
ATOM     14  C   UNL     1       0.206  10.014  19.689  0.00  0.00    +0.000 A 
BRANCH   7  15
ATOM     15  O   UNL     1       1.520   9.474  23.552  0.00  0.00    +0.000 OA
ATOM     16  H   UNL     1       1.586   8.532  23.763  0.00  0.00    +0.000 HD
ENDBRANCH   7  15
ENDBRANCH   2   5
BRANCH   1  17
ATOM     17  C   UNL     1       2.590   5.799  18.414  0.00  0.00    +0.000 C 
BRANCH  17  18
ATOM     18  C   UNL     1       4.116   5.875  18.383  0.00  0.00    +0.000 A 
ATOM     19  C   UNL     1       4.864   5.148  19.330  0.00  0.00    +0.000 A 
ATOM     20  C   UNL     1       6.258   5.262  19.397  0.00  0.00    +0.000 A 
ATOM     21  C   UNL     1       6.932   6.096  18.510  0.00  0.00    +0.000 A 
ATOM     22  C   UNL     1       6.211   6.772  17.536  0.00  0.00    +0.000 A 
ATOM     23  F   UNL     1       6.859   7.563  16.672  0.00  0.00    +0.000 F 
ATOM     24  C   UNL     1       4.823   6.657  17.454  0.00  0.00    +0.000 A 
ENDBRANCH  17  18
BRANCH  17  30
ATOM     25  C   UNL     1       2.732   2.998  17.012  0.00  0.00    +0.000 C 
ATOM     26  N   UNL     1       2.138   3.269  18.297  0.00  0.00    +0.000 N 
ATOM     27  C   UNL     1       1.534   2.330  19.091  0.00  0.00    +0.000 A 
ATOM     28  C   UNL     1       1.106   3.013  20.203  0.00  0.00    +0.000 A 
ATOM     29  N   UNL     1       1.425   4.339  20.106  0.00  0.00    +0.000 NA
ATOM     30  C   UNL     1       2.057   4.480  18.946  0.00  0.00    +0.000 A 
ENDBRANCH  17  30
ENDBRANCH   1  17
TORSDOF 5
ENDMDL
