MODEL 1
REMARK VINA RESULT:      -8.7      0.000      0.000
REMARK  Name = 
REMARK  7 active torsions:
REMARK  status: ('A' for Active; 'I' for Inactive)
REMARK    1  A    between atoms: C_1  and  C_2
REMARK    2  A    between atoms: C_5  and  N_6
REMARK    3  A    between atoms: N_6  and  S_7
REMARK    4  A    between atoms: S_7  and  C_10
REMARK    5  A    between atoms: C_13  and  N_14
REMARK    6  A    between atoms: C_15  and  C_17
REMARK    7  A    between atoms: C_29  and  C_30
REMARK                            x       y       z     vdW  Elec       q    Type
REMARK                         _______ _______ _______ _____ _____    ______ ____
ROOT
ATOM      1  C   UNL     1       2.339   4.439  18.957  0.00  0.00    +0.000 A 
ATOM      2  C   UNL     1       2.405   5.595  18.188  0.00  0.00    +0.000 A 
ATOM      3  C   UNL     1       2.170   6.842  18.771  0.00  0.00    +0.000 A 
ATOM      4  C   UNL     1       1.823   6.958  20.117  0.00  0.00    +0.000 A 
ATOM      5  C   UNL     1       1.694   5.781  20.871  0.00  0.00    +0.000 A 
ATOM      6  C   UNL     1       1.951   4.520  20.299  0.00  0.00    +0.000 A 
ENDROOT
BRANCH   4   7
ATOM      7  N   UNL     1       1.618   8.206  20.760  0.00  0.00    +0.000 N 
ATOM      8  C   UNL     1       0.450   8.656  21.367  0.00  0.00    +0.000 C 
ATOM      9  O   UNL     1      -0.573   7.996  21.545  0.00  0.00    +0.000 OA
ATOM     10  H   UNL     1       2.373   8.883  20.704  0.00  0.00    +0.000 HD
BRANCH   8  11
ATOM     11  C   UNL     1       0.508  10.107  21.874  0.00  0.00    +0.000 C 
ATOM     12  C   UNL     1       1.304  10.982  20.895  0.00  0.00    +0.000 C 
ATOM     13  O   UNL     1       0.797  12.298  20.642  0.00  0.00    +0.000 OA
ATOM     14  C   UNL     1       0.006  12.762  21.650  0.00  0.00    +0.000 A 
ATOM     15  C   UNL     1      -0.032  14.136  21.873  0.00  0.00    +0.000 A 
ATOM     16  C   UNL     1      -0.871  14.653  22.864  0.00  0.00    +0.000 A 
ATOM     17  C   UNL     1      -1.695  13.799  23.598  0.00  0.00    +0.000 A 
ATOM     18  C   UNL     1      -1.669  12.424  23.357  0.00  0.00    +0.000 A 
ATOM     19  C   UNL     1      -0.802  11.911  22.396  0.00  0.00    +0.000 A 
ATOM     20  O   UNL     1      -0.815  10.566  22.164  0.00  0.00    +0.000 OA
ENDBRANCH   8  11
ENDBRANCH   4   7
BRANCH   1  21
ATOM     21  S   UNL     1       2.720   2.883  18.187  0.00  0.00    +0.000 S 
ATOM     22  O   UNL     1       2.598   3.034  16.760  0.00  0.00    +0.000 OA
ATOM     23  O   UNL     1       1.971   1.849  18.887  0.00  0.00    +0.000 OA
BRANCH  21  24
ATOM     24  N   UNL     1       4.339   2.598  18.622  0.00  0.00    +0.000 N 
ATOM     25  H   UNL     1       4.678   1.809  18.076  0.00  0.00    +0.000 HD
BRANCH  24  30
ATOM     26  C   UNL     1       7.282   6.568  17.632  0.00  0.00    +0.000 C 
ATOM     27  C   UNL     1       6.473   5.483  18.242  0.00  0.00    +0.000 A 
ATOM     28  N   UNL     1       6.361   5.412  19.570  0.00  0.00    +0.000 NA
ATOM     29  O   UNL     1       5.543   4.337  19.816  0.00  0.00    +0.000 OA
ATOM     30  C   UNL     1       5.154   3.762  18.647  0.00  0.00    +0.000 A 
ATOM     31  C   UNL     1       5.737   4.445  17.596  0.00  0.00    +0.000 A 
ATOM     32  C   UNL     1       5.613   4.244  16.136  0.00  0.00    +0.000 C 
ENDBRANCH  24  30
ENDBRANCH  21  24
ENDBRANCH   1  21
TORSDOF 5
ENDMDL
MODEL 2
REMARK VINA RESULT:      -8.6      5.667      8.276
REMARK  Name = 
REMARK  7 active torsions:
REMARK  status: ('A' for Active; 'I' for Inactive)
REMARK    1  A    between atoms: C_1  and  C_2
REMARK    2  A    between atoms: C_5  and  N_6
REMARK    3  A    between atoms: N_6  and  S_7
REMARK    4  A    between atoms: S_7  and  C_10
REMARK    5  A    between atoms: C_13  and  N_14
REMARK    6  A    between atoms: C_15  and  C_17
REMARK    7  A    between atoms: C_29  and  C_30
REMARK                            x       y       z     vdW  Elec       q    Type
REMARK                         _______ _______ _______ _____ _____    ______ ____
ROOT
ATOM      1  C   UNL     1       6.832   6.273  17.907  0.00  0.00    +0.000 A 
ATOM      2  C   UNL     1       6.360   7.362  17.183  0.00  0.00    +0.000 A 
ATOM      3  C   UNL     1       7.026   8.589  17.242  0.00  0.00    +0.000 A 
ATOM      4  C   UNL     1       8.147   8.766  18.054  0.00  0.00    +0.000 A 
ATOM      5  C   UNL     1       8.578   7.679  18.832  0.00  0.00    +0.000 A 
ATOM      6  C   UNL     1       7.927   6.432  18.763  0.00  0.00    +0.000 A 
ENDROOT
BRANCH   4   7
ATOM      7  N   UNL     1       8.878   9.979  18.111  0.00  0.00    +0.000 N 
ATOM      8  C   UNL     1       9.250  10.683  19.253  0.00  0.00    +0.000 C 
ATOM      9  O   UNL     1       9.099  10.308  20.414  0.00  0.00    +0.000 OA
ATOM     10  H   UNL     1       9.086  10.435  17.228  0.00  0.00    +0.000 HD
BRANCH   8  11
ATOM     11  C   UNL     1       9.938  12.032  18.980  0.00  0.00    +0.000 C 
ATOM     12  C   UNL     1      11.213  11.822  18.149  0.00  0.00    +0.000 C 
ATOM     13  O   UNL     1      11.476  12.778  17.115  0.00  0.00    +0.000 OA
ATOM     14  C   UNL     1      10.868  13.977  17.336  0.00  0.00    +0.000 A 
ATOM     15  C   UNL     1      11.482  15.124  16.842  0.00  0.00    +0.000 A 
ATOM     16  C   UNL     1      10.863  16.366  17.004  0.00  0.00    +0.000 A 
ATOM     17  C   UNL     1       9.615  16.449  17.624  0.00  0.00    +0.000 A 
ATOM     18  C   UNL     1       8.993  15.293  18.101  0.00  0.00    +0.000 A 
ATOM     19  C   UNL     1       9.634  14.064  17.972  0.00  0.00    +0.000 A 
ATOM     20  O   UNL     1       8.992  12.947  18.424  0.00  0.00    +0.000 OA
ENDBRANCH   8  11
ENDBRANCH   4   7
BRANCH   1  21
ATOM     21  S   UNL     1       5.995   4.715  17.740  0.00  0.00    +0.000 S 
ATOM     22  O   UNL     1       6.006   4.049  19.016  0.00  0.00    +0.000 OA
ATOM     23  O   UNL     1       6.524   4.053  16.557  0.00  0.00    +0.000 OA
BRANCH  21  24
ATOM     24  N   UNL     1       4.409   5.149  17.306  0.00  0.00    +0.000 N 
ATOM     25  H   UNL     1       4.223   4.777  16.378  0.00  0.00    +0.000 HD
BRANCH  24  30
ATOM     26  C   UNL     1       0.748   3.355  20.270  0.00  0.00    +0.000 C 
ATOM     27  C   UNL     1       1.810   4.148  19.602  0.00  0.00    +0.000 A 
ATOM     28  N   UNL     1       2.155   5.337  20.098  0.00  0.00    +0.000 NA
ATOM     29  O   UNL     1       3.163   5.799  19.288  0.00  0.00    +0.000 OA
ATOM     30  C   UNL     1       3.435   4.894  18.310  0.00  0.00    +0.000 A 
ATOM     31  C   UNL     1       2.581   3.815  18.448  0.00  0.00    +0.000 A 
ATOM     32  C   UNL     1       2.487   2.562  17.667  0.00  0.00    +0.000 C 
ENDBRANCH  24  30
ENDBRANCH  21  24
ENDBRANCH   1  21
TORSDOF 5
ENDMDL
MODEL 3
REMARK VINA RESULT:      -8.6      2.110      2.850
REMARK  Name = 
REMARK  7 active torsions:
REMARK  status: ('A' for Active; 'I' for Inactive)
REMARK    1  A    between atoms: C_1  and  C_2
REMARK    2  A    between atoms: C_5  and  N_6
REMARK    3  A    between atoms: N_6  and  S_7
REMARK    4  A    between atoms: S_7  and  C_10
REMARK    5  A    between atoms: C_13  and  N_14
REMARK    6  A    between atoms: C_15  and  C_17
REMARK    7  A    between atoms: C_29  and  C_30
REMARK                            x       y       z     vdW  Elec       q    Type
REMARK                         _______ _______ _______ _____ _____    ______ ____
ROOT
ATOM      1  C   UNL     1       2.721   4.925  18.909  0.00  0.00    +0.000 A 
ATOM      2  C   UNL     1       2.698   5.761  17.799  0.00  0.00    +0.000 A 
ATOM      3  C   UNL     1       2.416   7.121  17.947  0.00  0.00    +0.000 A 
ATOM      4  C   UNL     1       2.109   7.664  19.195  0.00  0.00    +0.000 A 
ATOM      5  C   UNL     1       2.070   6.801  20.302  0.00  0.00    +0.000 A 
ATOM      6  C   UNL     1       2.375   5.432  20.166  0.00  0.00    +0.000 A 
ENDROOT
BRANCH   4   7
ATOM      7  N   UNL     1       1.859   9.046  19.399  0.00  0.00    +0.000 N 
ATOM      8  C   UNL     1       0.987   9.856  18.679  0.00  0.00    +0.000 C 
ATOM      9  O   UNL     1       0.200   9.480  17.812  0.00  0.00    +0.000 OA
ATOM     10  H   UNL     1       2.435   9.522  20.087  0.00  0.00    +0.000 HD
BRANCH   8  11
ATOM     11  C   UNL     1       1.026  11.345  19.066  0.00  0.00    +0.000 C 
ATOM     12  C   UNL     1       0.917  11.503  20.590  0.00  0.00    +0.000 C 
ATOM     13  O   UNL     1       1.746  12.500  21.199  0.00  0.00    +0.000 OA
ATOM     14  C   UNL     1       2.118  13.481  20.330  0.00  0.00    +0.000 A 
ATOM     15  C   UNL     1       2.345  14.756  20.840  0.00  0.00    +0.000 A 
ATOM     16  C   UNL     1       2.778  15.775  19.988  0.00  0.00    +0.000 A 
ATOM     17  C   UNL     1       3.020  15.504  18.640  0.00  0.00    +0.000 A 
ATOM     18  C   UNL     1       2.810  14.218  18.137  0.00  0.00    +0.000 A 
ATOM     19  C   UNL     1       2.341  13.218  18.983  0.00  0.00    +0.000 A 
ATOM     20  O   UNL     1       2.169  11.964  18.470  0.00  0.00    +0.000 OA
ENDBRANCH   8  11
ENDBRANCH   4   7
BRANCH   1  21
ATOM     21  S   UNL     1       3.158   3.219  18.679  0.00  0.00    +0.000 S 
ATOM     22  O   UNL     1       2.118   2.576  17.919  0.00  0.00    +0.000 OA
ATOM     23  O   UNL     1       3.563   2.688  19.972  0.00  0.00    +0.000 OA
BRANCH  21  24
ATOM     24  N   UNL     1       4.601   3.284  17.781  0.00  0.00    +0.000 N 
ATOM     25  H   UNL     1       4.357   3.297  16.793  0.00  0.00    +0.000 HD
BRANCH  24  30
ATOM     26  C   UNL     1       7.916   7.043  18.316  0.00  0.00    +0.000 C 
ATOM     27  C   UNL     1       7.008   5.881  18.481  0.00  0.00    +0.000 A 
ATOM     28  N   UNL     1       6.895   5.297  19.676  0.00  0.00    +0.000 NA
ATOM     29  O   UNL     1       5.976   4.291  19.512  0.00  0.00    +0.000 OA
ATOM     30  C   UNL     1       5.527   4.265  18.229  0.00  0.00    +0.000 A 
ATOM     31  C   UNL     1       6.170   5.255  17.510  0.00  0.00    +0.000 A 
ATOM     32  C   UNL     1       6.019   5.664  16.096  0.00  0.00    +0.000 C 
ENDBRANCH  24  30
ENDBRANCH  21  24
ENDBRANCH   1  21
TORSDOF 5
ENDMDL
MODEL 4
REMARK VINA RESULT:      -8.6      1.931      2.682
REMARK  Name = 
REMARK  7 active torsions:
REMARK  status: ('A' for Active; 'I' for Inactive)
REMARK    1  A    between atoms: C_1  and  C_2
REMARK    2  A    between atoms: C_5  and  N_6
REMARK    3  A    between atoms: N_6  and  S_7
REMARK    4  A    between atoms: S_7  and  C_10
REMARK    5  A    between atoms: C_13  and  N_14
REMARK    6  A    between atoms: C_15  and  C_17
REMARK    7  A    between atoms: C_29  and  C_30
REMARK                            x       y       z     vdW  Elec       q    Type
REMARK                         _______ _______ _______ _____ _____    ______ ____
ROOT
ATOM      1  C   UNL     1       3.353   4.601  18.662  0.00  0.00    +0.000 A 
ATOM      2  C   UNL     1       2.371   5.055  17.789  0.00  0.00    +0.000 A 
ATOM      3  C   UNL     1       1.784   6.308  17.979  0.00  0.00    +0.000 A 
ATOM      4  C   UNL     1       2.132   7.113  19.064  0.00  0.00    +0.000 A 
ATOM      5  C   UNL     1       3.077   6.619  19.978  0.00  0.00    +0.000 A 
ATOM      6  C   UNL     1       3.691   5.367  19.783  0.00  0.00    +0.000 A 
ENDROOT
BRANCH   4   7
ATOM      7  N   UNL     1       1.594   8.409  19.271  0.00  0.00    +0.000 N 
ATOM      8  C   UNL     1       1.716   9.512  18.433  0.00  0.00    +0.000 C 
ATOM      9  O   UNL     1       2.222   9.516  17.312  0.00  0.00    +0.000 OA
ATOM     10  H   UNL     1       1.140   8.582  20.163  0.00  0.00    +0.000 HD
BRANCH   8  11
ATOM     11  C   UNL     1       1.119  10.814  18.995  0.00  0.00    +0.000 C 
ATOM     12  C   UNL     1       0.792  10.651  20.487  0.00  0.00    +0.000 C 
ATOM     13  O   UNL     1       1.086  11.764  21.339  0.00  0.00    +0.000 OA
ATOM     14  C   UNL     1       1.128  12.948  20.667  0.00  0.00    +0.000 A 
ATOM     15  C   UNL     1       0.772  14.105  21.355  0.00  0.00    +0.000 A 
ATOM     16  C   UNL     1       0.853  15.344  20.714  0.00  0.00    +0.000 A 
ATOM     17  C   UNL     1       1.326  15.423  19.403  0.00  0.00    +0.000 A 
ATOM     18  C   UNL     1       1.701  14.262  18.724  0.00  0.00    +0.000 A 
ATOM     19  C   UNL     1       1.580  13.028  19.355  0.00  0.00    +0.000 A 
ATOM     20  O   UNL     1       1.977  11.911  18.676  0.00  0.00    +0.000 OA
ENDBRANCH   8  11
ENDBRANCH   4   7
BRANCH   1  21
ATOM     21  S   UNL     1       4.122   3.033  18.335  0.00  0.00    +0.000 S 
ATOM     22  O   UNL     1       3.139   2.148  17.767  0.00  0.00    +0.000 OA
ATOM     23  O   UNL     1       4.861   2.647  19.528  0.00  0.00    +0.000 OA
BRANCH  21  24
ATOM     24  N   UNL     1       5.328   3.400  17.193  0.00  0.00    +0.000 N 
ATOM     25  H   UNL     1       4.900   3.398  16.271  0.00  0.00    +0.000 HD
BRANCH  24  30
ATOM     26  C   UNL     1       7.655   7.856  17.553  0.00  0.00    +0.000 C 
ATOM     27  C   UNL     1       7.191   6.452  17.681  0.00  0.00    +0.000 A 
ATOM     28  N   UNL     1       7.774   5.644  18.568  0.00  0.00    +0.000 NA
ATOM     29  O   UNL     1       7.115   4.444  18.466  0.00  0.00    +0.000 OA
ATOM     30  C   UNL     1       6.132   4.523  17.529  0.00  0.00    +0.000 A 
ATOM     31  C   UNL     1       6.144   5.789  16.974  0.00  0.00    +0.000 A 
ATOM     32  C   UNL     1       5.268   6.392  15.946  0.00  0.00    +0.000 C 
ENDBRANCH  24  30
ENDBRANCH  21  24
ENDBRANCH   1  21
TORSDOF 5
ENDMDL
MODEL 5
REMARK VINA RESULT:      -8.5      5.662      8.321
REMARK  Name = 
REMARK  7 active torsions:
REMARK  status: ('A' for Active; 'I' for Inactive)
REMARK    1  A    between atoms: C_1  and  C_2
REMARK    2  A    between atoms: C_5  and  N_6
REMARK    3  A    between atoms: N_6  and  S_7
REMARK    4  A    between atoms: S_7  and  C_10
REMARK    5  A    between atoms: C_13  and  N_14
REMARK    6  A    between atoms: C_15  and  C_17
REMARK    7  A    between atoms: C_29  and  C_30
REMARK                            x       y       z     vdW  Elec       q    Type
REMARK                         _______ _______ _______ _____ _____    ______ ____
ROOT
ATOM      1  C   UNL     1       6.793   6.284  17.898  0.00  0.00    +0.000 A 
ATOM      2  C   UNL     1       6.356   7.395  17.187  0.00  0.00    +0.000 A 
ATOM      3  C   UNL     1       7.065   8.597  17.251  0.00  0.00    +0.000 A 
ATOM      4  C   UNL     1       8.195   8.727  18.059  0.00  0.00    +0.000 A 
ATOM      5  C   UNL     1       8.592   7.619  18.826  0.00  0.00    +0.000 A 
ATOM      6  C   UNL     1       7.898   6.396  18.749  0.00  0.00    +0.000 A 
ENDROOT
BRANCH   4   7
ATOM      7  N   UNL     1       8.970   9.913  18.122  0.00  0.00    +0.000 N 
ATOM      8  C   UNL     1       9.274  10.658  19.257  0.00  0.00    +0.000 C 
ATOM      9  O   UNL     1       9.011  10.347  20.418  0.00  0.00    +0.000 OA
ATOM     10  H   UNL     1       9.270  10.316  17.240  0.00  0.00    +0.000 HD
BRANCH   8  11
ATOM     11  C   UNL     1      10.038  11.965  18.982  0.00  0.00    +0.000 C 
ATOM     12  C   UNL     1      11.022  11.772  17.818  0.00  0.00    +0.000 C 
ATOM     13  O   UNL     1      11.135  12.850  16.882  0.00  0.00    +0.000 OA
ATOM     14  C   UNL     1      10.763  14.050  17.409  0.00  0.00    +0.000 A 
ATOM     15  C   UNL     1      11.374  15.200  16.916  0.00  0.00    +0.000 A 
ATOM     16  C   UNL     1      10.981  16.452  17.395  0.00  0.00    +0.000 A 
ATOM     17  C   UNL     1       9.953  16.550  18.334  0.00  0.00    +0.000 A 
ATOM     18  C   UNL     1       9.329  15.395  18.811  0.00  0.00    +0.000 A 
ATOM     19  C   UNL     1       9.753  14.149  18.359  0.00  0.00    +0.000 A 
ATOM     20  O   UNL     1       9.108  13.038  18.823  0.00  0.00    +0.000 OA
ENDBRANCH   8  11
ENDBRANCH   4   7
BRANCH   1  21
ATOM     21  S   UNL     1       5.900   4.758  17.724  0.00  0.00    +0.000 S 
ATOM     22  O   UNL     1       5.852   4.104  19.005  0.00  0.00    +0.000 OA
ATOM     23  O   UNL     1       6.434   4.064  16.560  0.00  0.00    +0.000 OA
BRANCH  21  24
ATOM     24  N   UNL     1       4.344   5.248  17.244  0.00  0.00    +0.000 N 
ATOM     25  H   UNL     1       4.364   5.431  16.244  0.00  0.00    +0.000 HD
BRANCH  24  30
ATOM     26  C   UNL     1       0.622   3.006  19.799  0.00  0.00    +0.000 C 
ATOM     27  C   UNL     1       1.688   3.401  18.846  0.00  0.00    +0.000 A 
ATOM     28  N   UNL     1       1.941   2.632  17.784  0.00  0.00    +0.000 NA
ATOM     29  O   UNL     1       2.943   3.269  17.095  0.00  0.00    +0.000 OA
ATOM     30  C   UNL     1       3.293   4.421  17.727  0.00  0.00    +0.000 A 
ATOM     31  C   UNL     1       2.532   4.552  18.874  0.00  0.00    +0.000 A 
ATOM     32  C   UNL     1       2.502   5.631  19.885  0.00  0.00    +0.000 C 
ENDBRANCH  24  30
ENDBRANCH  21  24
ENDBRANCH   1  21
TORSDOF 5
ENDMDL
MODEL 6
REMARK VINA RESULT:      -8.4      1.070      1.386
REMARK  Name = 
REMARK  7 active torsions:
REMARK  status: ('A' for Active; 'I' for Inactive)
REMARK    1  A    between atoms: C_1  and  C_2
REMARK    2  A    between atoms: C_5  and  N_6
REMARK    3  A    between atoms: N_6  and  S_7
REMARK    4  A    between atoms: S_7  and  C_10
REMARK    5  A    between atoms: C_13  and  N_14
REMARK    6  A    between atoms: C_15  and  C_17
REMARK    7  A    between atoms: C_29  and  C_30
REMARK                            x       y       z     vdW  Elec       q    Type
REMARK                         _______ _______ _______ _____ _____    ______ ____
ROOT
ATOM      1  C   UNL     1       2.787   4.656  18.780  0.00  0.00    +0.000 A 
ATOM      2  C   UNL     1       2.498   4.912  20.115  0.00  0.00    +0.000 A 
ATOM      3  C   UNL     1       2.126   6.196  20.522  0.00  0.00    +0.000 A 
ATOM      4  C   UNL     1       2.078   7.256  19.615  0.00  0.00    +0.000 A 
ATOM      5  C   UNL     1       2.435   7.003  18.281  0.00  0.00    +0.000 A 
ATOM      6  C   UNL     1       2.789   5.708  17.857  0.00  0.00    +0.000 A 
ENDROOT
BRANCH   4   7
ATOM      7  N   UNL     1       1.664   8.564  19.975  0.00  0.00    +0.000 N 
ATOM      8  C   UNL     1       0.646   8.910  20.858  0.00  0.00    +0.000 C 
ATOM      9  O   UNL     1       0.005   8.132  21.563  0.00  0.00    +0.000 OA
ATOM     10  H   UNL     1       2.095   9.337  19.477  0.00  0.00    +0.000 HD
BRANCH   8  11
ATOM     11  C   UNL     1       0.359  10.419  20.948  0.00  0.00    +0.000 C 
ATOM     12  C   UNL     1       0.017  10.980  19.559  0.00  0.00    +0.000 C 
ATOM     13  O   UNL     1      -1.040  11.944  19.494  0.00  0.00    +0.000 OA
ATOM     14  C   UNL     1      -1.241  12.591  20.676  0.00  0.00    +0.000 A 
ATOM     15  C   UNL     1      -1.722  13.896  20.635  0.00  0.00    +0.000 A 
ATOM     16  C   UNL     1      -1.989  14.573  21.828  0.00  0.00    +0.000 A 
ATOM     17  C   UNL     1      -1.812  13.927  23.053  0.00  0.00    +0.000 A 
ATOM     18  C   UNL     1      -1.349  12.610  23.088  0.00  0.00    +0.000 A 
ATOM     19  C   UNL     1      -1.047  11.956  21.898  0.00  0.00    +0.000 A 
ATOM     20  O   UNL     1      -0.620  10.660  21.961  0.00  0.00    +0.000 OA
ENDBRANCH   8  11
ENDBRANCH   4   7
BRANCH   1  21
ATOM     21  S   UNL     1       3.182   2.992  18.300  0.00  0.00    +0.000 S 
ATOM     22  O   UNL     1       2.159   2.516  17.406  0.00  0.00    +0.000 OA
ATOM     23  O   UNL     1       3.510   2.250  19.509  0.00  0.00    +0.000 OA
BRANCH  21  24
ATOM     24  N   UNL     1       4.667   3.143  17.484  0.00  0.00    +0.000 N 
ATOM     25  H   UNL     1       4.474   3.208  16.488  0.00  0.00    +0.000 HD
BRANCH  24  30
ATOM     26  C   UNL     1       7.871   6.923  18.406  0.00  0.00    +0.000 C 
ATOM     27  C   UNL     1       6.975   5.741  18.459  0.00  0.00    +0.000 A 
ATOM     28  N   UNL     1       6.794   5.102  19.616  0.00  0.00    +0.000 NA
ATOM     29  O   UNL     1       5.907   4.090  19.347  0.00  0.00    +0.000 OA
ATOM     30  C   UNL     1       5.543   4.116  18.036  0.00  0.00    +0.000 A 
ATOM     31  C   UNL     1       6.214   5.148  17.406  0.00  0.00    +0.000 A 
ATOM     32  C   UNL     1       6.149   5.618  16.006  0.00  0.00    +0.000 C 
ENDBRANCH  24  30
ENDBRANCH  21  24
ENDBRANCH   1  21
TORSDOF 5
ENDMDL
MODEL 7
REMARK VINA RESULT:      -8.4      1.648      2.064
REMARK  Name = 
REMARK  7 active torsions:
REMARK  status: ('A' for Active; 'I' for Inactive)
REMARK    1  A    between atoms: C_1  and  C_2
REMARK    2  A    between atoms: C_5  and  N_6
REMARK    3  A    between atoms: N_6  and  S_7
REMARK    4  A    between atoms: S_7  and  C_10
REMARK    5  A    between atoms: C_13  and  N_14
REMARK    6  A    between atoms: C_15  and  C_17
REMARK    7  A    between atoms: C_29  and  C_30
REMARK                            x       y       z     vdW  Elec       q    Type
REMARK                         _______ _______ _______ _____ _____    ______ ____
ROOT
ATOM      1  C   UNL     1       3.218   4.556  18.850  0.00  0.00    +0.000 A 
ATOM      2  C   UNL     1       3.067   4.908  20.186  0.00  0.00    +0.000 A 
ATOM      3  C   UNL     1       2.465   6.120  20.531  0.00  0.00    +0.000 A 
ATOM      4  C   UNL     1       2.042   7.022  19.554  0.00  0.00    +0.000 A 
ATOM      5  C   UNL     1       2.257   6.689  18.208  0.00  0.00    +0.000 A 
ATOM      6  C   UNL     1       2.843   5.459  17.849  0.00  0.00    +0.000 A 
ENDROOT
BRANCH   4   7
ATOM      7  N   UNL     1       1.387   8.243  19.858  0.00  0.00    +0.000 N 
ATOM      8  C   UNL     1       1.367   9.400  19.086  0.00  0.00    +0.000 C 
ATOM      9  O   UNL     1       1.826   9.520  17.951  0.00  0.00    +0.000 OA
ATOM     10  H   UNL     1       0.952   8.318  20.773  0.00  0.00    +0.000 HD
BRANCH   8  11
ATOM     11  C   UNL     1       0.665  10.600  19.746  0.00  0.00    +0.000 C 
ATOM     12  C   UNL     1      -0.161  11.372  18.706  0.00  0.00    +0.000 C 
ATOM     13  O   UNL     1      -1.444  11.852  19.126  0.00  0.00    +0.000 OA
ATOM     14  C   UNL     1      -1.535  12.005  20.477  0.00  0.00    +0.000 A 
ATOM     15  C   UNL     1      -2.384  12.993  20.968  0.00  0.00    +0.000 A 
ATOM     16  C   UNL     1      -2.543  13.146  22.347  0.00  0.00    +0.000 A 
ATOM     17  C   UNL     1      -1.883  12.286  23.227  0.00  0.00    +0.000 A 
ATOM     18  C   UNL     1      -1.048  11.284  22.729  0.00  0.00    +0.000 A 
ATOM     19  C   UNL     1      -0.863  11.163  21.355  0.00  0.00    +0.000 A 
ATOM     20  O   UNL     1      -0.060  10.158  20.895  0.00  0.00    +0.000 OA
ENDBRANCH   8  11
ENDBRANCH   4   7
BRANCH   1  21
ATOM     21  S   UNL     1       3.922   2.972  18.463  0.00  0.00    +0.000 S 
ATOM     22  O   UNL     1       2.913   2.162  17.831  0.00  0.00    +0.000 OA
ATOM     23  O   UNL     1       4.615   2.495  19.651  0.00  0.00    +0.000 OA
BRANCH  21  24
ATOM     24  N   UNL     1       5.169   3.336  17.365  0.00  0.00    +0.000 N 
ATOM     25  H   UNL     1       4.767   3.378  16.432  0.00  0.00    +0.000 HD
BRANCH  24  30
ATOM     26  C   UNL     1       7.822   7.600  17.795  0.00  0.00    +0.000 C 
ATOM     27  C   UNL     1       7.198   6.263  17.952  0.00  0.00    +0.000 A 
ATOM     28  N   UNL     1       7.497   5.517  19.018  0.00  0.00    +0.000 NA
ATOM     29  O   UNL     1       6.752   4.371  18.890  0.00  0.00    +0.000 OA
ATOM     30  C   UNL     1       5.999   4.421  17.759  0.00  0.00    +0.000 A 
ATOM     31  C   UNL     1       6.257   5.609  17.101  0.00  0.00    +0.000 A 
ATOM     32  C   UNL     1       5.680   6.159  15.855  0.00  0.00    +0.000 C 
ENDBRANCH  24  30
ENDBRANCH  21  24
ENDBRANCH   1  21
TORSDOF 5
ENDMDL
MODEL 8
REMARK VINA RESULT:      -8.4      1.360      1.435
REMARK  Name = 
REMARK  7 active torsions:
REMARK  status: ('A' for Active; 'I' for Inactive)
REMARK    1  A    between atoms: C_1  and  C_2
REMARK    2  A    between atoms: C_5  and  N_6
REMARK    3  A    between atoms: N_6  and  S_7
REMARK    4  A    between atoms: S_7  and  C_10
REMARK    5  A    between atoms: C_13  and  N_14
REMARK    6  A    between atoms: C_15  and  C_17
REMARK    7  A    between atoms: C_29  and  C_30
REMARK                            x       y       z     vdW  Elec       q    Type
REMARK                         _______ _______ _______ _____ _____    ______ ____
ROOT
ATOM      1  C   UNL     1       2.881   4.553  18.955  0.00  0.00    +0.000 A 
ATOM      2  C   UNL     1       2.907   5.580  18.020  0.00  0.00    +0.000 A 
ATOM      3  C   UNL     1       2.488   6.865  18.371  0.00  0.00    +0.000 A 
ATOM      4  C   UNL     1       1.995   7.140  19.647  0.00  0.00    +0.000 A 
ATOM      5  C   UNL     1       1.909   6.082  20.567  0.00  0.00    +0.000 A 
ATOM      6  C   UNL     1       2.351   4.788  20.228  0.00  0.00    +0.000 A 
ENDROOT
BRANCH   4   7
ATOM      7  N   UNL     1       1.599   8.438  20.061  0.00  0.00    +0.000 N 
ATOM      8  C   UNL     1       1.091   9.456  19.261  0.00  0.00    +0.000 C 
ATOM      9  O   UNL     1       0.796   9.362  18.071  0.00  0.00    +0.000 OA
ATOM     10  H   UNL     1       1.779   8.688  21.029  0.00  0.00    +0.000 HD
BRANCH   8  11
ATOM     11  C   UNL     1       0.867  10.793  19.989  0.00  0.00    +0.000 C 
ATOM     12  C   UNL     1       0.733  11.937  18.972  0.00  0.00    +0.000 C 
ATOM     13  O   UNL     1      -0.260  12.932  19.245  0.00  0.00    +0.000 OA
ATOM     14  C   UNL     1      -0.581  13.011  20.567  0.00  0.00    +0.000 A 
ATOM     15  C   UNL     1      -0.990  14.244  21.069  0.00  0.00    +0.000 A 
ATOM     16  C   UNL     1      -1.377  14.352  22.407  0.00  0.00    +0.000 A 
ATOM     17  C   UNL     1      -1.390  13.220  23.225  0.00  0.00    +0.000 A 
ATOM     18  C   UNL     1      -0.998  11.982  22.711  0.00  0.00    +0.000 A 
ATOM     19  C   UNL     1      -0.576  11.890  21.388  0.00  0.00    +0.000 A 
ATOM     20  O   UNL     1      -0.222  10.662  20.905  0.00  0.00    +0.000 OA
ENDBRANCH   8  11
ENDBRANCH   4   7
BRANCH   1  21
ATOM     21  S   UNL     1       3.494   2.954  18.480  0.00  0.00    +0.000 S 
ATOM     22  O   UNL     1       2.491   2.293  17.688  0.00  0.00    +0.000 OA
ATOM     23  O   UNL     1       4.032   2.316  19.673  0.00  0.00    +0.000 OA
BRANCH  21  24
ATOM     24  N   UNL     1       4.865   3.307  17.537  0.00  0.00    +0.000 N 
ATOM     25  H   UNL     1       4.557   3.466  16.581  0.00  0.00    +0.000 HD
BRANCH  24  30
ATOM     26  C   UNL     1       8.073   7.069  18.516  0.00  0.00    +0.000 C 
ATOM     27  C   UNL     1       7.167   5.894  18.553  0.00  0.00    +0.000 A 
ATOM     28  N   UNL     1       6.953   5.263  19.710  0.00  0.00    +0.000 NA
ATOM     29  O   UNL     1       6.065   4.255  19.424  0.00  0.00    +0.000 OA
ATOM     30  C   UNL     1       5.735   4.277  18.105  0.00  0.00    +0.000 A 
ATOM     31  C   UNL     1       6.428   5.300  17.486  0.00  0.00    +0.000 A 
ATOM     32  C   UNL     1       6.401   5.763  16.081  0.00  0.00    +0.000 C 
ENDBRANCH  24  30
ENDBRANCH  21  24
ENDBRANCH   1  21
TORSDOF 5
ENDMDL
MODEL 9
REMARK VINA RESULT:      -8.3      0.890      1.249
REMARK  Name = 
REMARK  7 active torsions:
REMARK  status: ('A' for Active; 'I' for Inactive)
REMARK    1  A    between atoms: C_1  and  C_2
REMARK    2  A    between atoms: C_5  and  N_6
REMARK    3  A    between atoms: N_6  and  S_7
REMARK    4  A    between atoms: S_7  and  C_10
REMARK    5  A    between atoms: C_13  and  N_14
REMARK    6  A    between atoms: C_15  and  C_17
REMARK    7  A    between atoms: C_29  and  C_30
REMARK                            x       y       z     vdW  Elec       q    Type
REMARK                         _______ _______ _______ _____ _____    ______ ____
ROOT
ATOM      1  C   UNL     1       2.778   4.869  18.619  0.00  0.00    +0.000 A 
ATOM      2  C   UNL     1       2.251   4.733  19.897  0.00  0.00    +0.000 A 
ATOM      3  C   UNL     1       1.858   5.861  20.622  0.00  0.00    +0.000 A 
ATOM      4  C   UNL     1       2.024   7.146  20.104  0.00  0.00    +0.000 A 
ATOM      5  C   UNL     1       2.618   7.279  18.838  0.00  0.00    +0.000 A 
ATOM      6  C   UNL     1       2.996   6.146  18.091  0.00  0.00    +0.000 A 
ENDROOT
BRANCH   4   7
ATOM      7  N   UNL     1       1.600   8.316  20.785  0.00  0.00    +0.000 N 
ATOM      8  C   UNL     1       0.875   9.379  20.256  0.00  0.00    +0.000 C 
ATOM      9  O   UNL     1       0.383   9.429  19.130  0.00  0.00    +0.000 OA
ATOM     10  H   UNL     1       1.927   8.438  21.738  0.00  0.00    +0.000 HD
BRANCH   8  11
ATOM     11  C   UNL     1       0.671  10.560  21.221  0.00  0.00    +0.000 C 
ATOM     12  C   UNL     1       1.437  11.794  20.721  0.00  0.00    +0.000 C 
ATOM     13  O   UNL     1       0.779  13.060  20.849  0.00  0.00    +0.000 OA
ATOM     14  C   UNL     1      -0.174  13.065  21.822  0.00  0.00    +0.000 A 
ATOM     15  C   UNL     1      -0.430  14.264  22.482  0.00  0.00    +0.000 A 
ATOM     16  C   UNL     1      -1.436  14.320  23.450  0.00  0.00    +0.000 A 
ATOM     17  C   UNL     1      -2.206  13.188  23.724  0.00  0.00    +0.000 A 
ATOM     18  C   UNL     1      -1.959  11.993  23.045  0.00  0.00    +0.000 A 
ATOM     19  C   UNL     1      -0.930  11.934  22.111  0.00  0.00    +0.000 A 
ATOM     20  O   UNL     1      -0.726  10.760  21.444  0.00  0.00    +0.000 OA
ENDBRANCH   8  11
ENDBRANCH   4   7
BRANCH   1  21
ATOM     21  S   UNL     1       3.193   3.400  17.710  0.00  0.00    +0.000 S 
ATOM     22  O   UNL     1       3.238   3.724  16.307  0.00  0.00    +0.000 OA
ATOM     23  O   UNL     1       2.337   2.326  18.193  0.00  0.00    +0.000 OA
BRANCH  21  24
ATOM     24  N   UNL     1       4.743   2.991  18.278  0.00  0.00    +0.000 N 
ATOM     25  H   UNL     1       5.115   2.258  17.680  0.00  0.00    +0.000 HD
BRANCH  24  30
ATOM     26  C   UNL     1       7.887   6.927  18.101  0.00  0.00    +0.000 C 
ATOM     27  C   UNL     1       6.991   5.807  18.484  0.00  0.00    +0.000 A 
ATOM     28  N   UNL     1       6.750   5.568  19.775  0.00  0.00    +0.000 NA
ATOM     29  O   UNL     1       5.880   4.506  19.799  0.00  0.00    +0.000 OA
ATOM     30  C   UNL     1       5.587   4.106  18.533  0.00  0.00    +0.000 A 
ATOM     31  C   UNL     1       6.289   4.895  17.640  0.00  0.00    +0.000 A 
ATOM     32  C   UNL     1       6.298   4.892  16.162  0.00  0.00    +0.000 C 
ENDBRANCH  24  30
ENDBRANCH  21  24
ENDBRANCH   1  21
TORSDOF 5
ENDMDL
