MODEL 1
REMARK VINA RESULT:      -7.9      0.000      0.000
REMARK  Name = 
REMARK  4 active torsions:
REMARK  status: ('A' for Active; 'I' for Inactive)
REMARK    1  A    between atoms: C_1  and  N_2
REMARK    2  A    between atoms: C_4  and  C_5
REMARK    3  A    between atoms: C_12  and  N_13
REMARK    4  A    between atoms: C_14  and  C_16
REMARK                            x       y       z     vdW  Elec       q    Type
REMARK                         _______ _______ _______ _____ _____    ______ ____
ROOT
ATOM      1  N   UNL     1       4.016   7.089  17.844  0.00  0.00    +0.000 N 
ATOM      2  C   UNL     1       2.836   6.670  18.568  0.00  0.00    +0.000 C 
ATOM      3  O   UNL     1       2.498   5.499  18.624  0.00  0.00    +0.000 OA
ATOM      4  H   UNL     1       4.176   8.093  17.728  0.00  0.00    +0.000 HD
ENDROOT
BRANCH   2   5
ATOM      5  C   UNL     1       2.017   7.746  19.250  0.00  0.00    +0.000 A 
ATOM      6  N   UNL     1       1.657   7.545  20.486  0.00  0.00    +0.000 NA
ATOM      7  N   UNL     1       0.945   8.500  21.141  0.00  0.00    +0.000 N 
ATOM      8  C   UNL     1       0.858   9.818  20.668  0.00  0.00    +0.000 A 
ATOM      9  C   UNL     1       0.374  10.845  21.480  0.00  0.00    +0.000 A 
ATOM     10  C   UNL     1       0.253  12.144  20.981  0.00  0.00    +0.000 A 
ATOM     11  C   UNL     1       0.580  12.423  19.652  0.00  0.00    +0.000 A 
ATOM     12  C   UNL     1       1.035  11.405  18.818  0.00  0.00    +0.000 A 
ATOM     13  C   UNL     1       1.172  10.119  19.342  0.00  0.00    +0.000 A 
ATOM     14  C   UNL     1       1.683   9.015  18.537  0.00  0.00    +0.000 A 
ATOM     15  O   UNL     1       1.902   9.078  17.331  0.00  0.00    +0.000 OA
ATOM     16  H   UNL     1       0.851   8.386  22.154  0.00  0.00    +0.000 HD
ENDBRANCH   2   5
BRANCH   1  22
ATOM     17  C   UNL     1       6.120   5.323  19.330  0.00  0.00    +0.000 C 
ATOM     18  N   UNL     1       5.815   5.370  17.921  0.00  0.00    +0.000 N 
ATOM     19  N   UNL     1       6.563   4.634  17.074  0.00  0.00    +0.000 NA
ATOM     20  C   UNL     1       6.111   4.970  15.862  0.00  0.00    +0.000 A 
ATOM     21  C   UNL     1       5.046   5.892  15.947  0.00  0.00    +0.000 A 
ATOM     22  C   UNL     1       4.902   6.180  17.282  0.00  0.00    +0.000 A 
BRANCH  20  23
ATOM     23  C   UNL     1       6.732   4.424  14.610  0.00  0.00    +0.000 C 
ATOM     24  C   UNL     1       7.525   5.524  13.878  0.00  0.00    +0.000 C 
ATOM     25  C   UNL     1       8.118   5.026  12.564  0.00  0.00    +0.000 C 
ATOM     26  C   UNL     1       7.041   4.432  11.663  0.00  0.00    +0.000 C 
ATOM     27  C   UNL     1       6.274   3.319  12.371  0.00  0.00    +0.000 C 
ATOM     28  C   UNL     1       5.670   3.804  13.685  0.00  0.00    +0.000 C 
ENDBRANCH  20  23
ENDBRANCH   1  22
TORSDOF 3
ENDMDL
MODEL 2
REMARK VINA RESULT:      -7.9      0.977      1.022
REMARK  Name = 
REMARK  4 active torsions:
REMARK  status: ('A' for Active; 'I' for Inactive)
REMARK    1  A    between atoms: C_1  and  N_2
REMARK    2  A    between atoms: C_4  and  C_5
REMARK    3  A    between atoms: C_12  and  N_13
REMARK    4  A    between atoms: C_14  and  C_16
REMARK                            x       y       z     vdW  Elec       q    Type
REMARK                         _______ _______ _______ _____ _____    ______ ____
ROOT
ATOM      1  N   UNL     1       4.439   7.173  17.510  0.00  0.00    +0.000 N 
ATOM      2  C   UNL     1       3.325   6.507  18.147  0.00  0.00    +0.000 C 
ATOM      3  O   UNL     1       3.114   5.316  17.991  0.00  0.00    +0.000 OA
ATOM      4  H   UNL     1       4.490   8.193  17.577  0.00  0.00    +0.000 HD
ENDROOT
BRANCH   2   5
ATOM      5  C   UNL     1       2.411   7.349  19.012  0.00  0.00    +0.000 A 
ATOM      6  N   UNL     1       2.165   6.933  20.222  0.00  0.00    +0.000 NA
ATOM      7  N   UNL     1       1.372   7.676  21.039  0.00  0.00    +0.000 N 
ATOM      8  C   UNL     1       1.071   9.018  20.762  0.00  0.00    +0.000 A 
ATOM      9  C   UNL     1       0.503   9.844  21.734  0.00  0.00    +0.000 A 
ATOM     10  C   UNL     1       0.168  11.166  21.431  0.00  0.00    +0.000 A 
ATOM     11  C   UNL     1       0.363  11.666  20.141  0.00  0.00    +0.000 A 
ATOM     12  C   UNL     1       0.900  10.847  19.151  0.00  0.00    +0.000 A 
ATOM     13  C   UNL     1       1.251   9.537  19.480  0.00  0.00    +0.000 A 
ATOM     14  C   UNL     1       1.856   8.639  18.503  0.00  0.00    +0.000 A 
ATOM     15  O   UNL     1       1.983   8.894  17.309  0.00  0.00    +0.000 OA
ATOM     16  H   UNL     1       1.362   7.415  22.029  0.00  0.00    +0.000 HD
ENDBRANCH   2   5
BRANCH   1  22
ATOM     17  C   UNL     1       7.535   7.276  17.906  0.00  0.00    +0.000 C 
ATOM     18  N   UNL     1       6.771   6.488  16.971  0.00  0.00    +0.000 N 
ATOM     19  N   UNL     1       7.433   5.737  16.067  0.00  0.00    +0.000 NA
ATOM     20  C   UNL     1       6.469   5.225  15.297  0.00  0.00    +0.000 A 
ATOM     21  C   UNL     1       5.189   5.623  15.741  0.00  0.00    +0.000 A 
ATOM     22  C   UNL     1       5.405   6.480  16.792  0.00  0.00    +0.000 A 
BRANCH  20  23
ATOM     23  C   UNL     1       6.783   4.373  14.102  0.00  0.00    +0.000 C 
ATOM     24  C   UNL     1       7.483   5.209  13.013  0.00  0.00    +0.000 C 
ATOM     25  C   UNL     1       7.760   4.396  11.754  0.00  0.00    +0.000 C 
ATOM     26  C   UNL     1       6.484   3.754  11.220  0.00  0.00    +0.000 C 
ATOM     27  C   UNL     1       5.803   2.898  12.283  0.00  0.00    +0.000 C 
ATOM     28  C   UNL     1       5.515   3.700  13.548  0.00  0.00    +0.000 C 
ENDBRANCH  20  23
ENDBRANCH   1  22
TORSDOF 3
ENDMDL
MODEL 3
REMARK VINA RESULT:      -7.9      2.190      3.585
REMARK  Name = 
REMARK  4 active torsions:
REMARK  status: ('A' for Active; 'I' for Inactive)
REMARK    1  A    between atoms: C_1  and  N_2
REMARK    2  A    between atoms: C_4  and  C_5
REMARK    3  A    between atoms: C_12  and  N_13
REMARK    4  A    between atoms: C_14  and  C_16
REMARK                            x       y       z     vdW  Elec       q    Type
REMARK                         _______ _______ _______ _____ _____    ______ ____
ROOT
ATOM      1  N   UNL     1       2.066   7.611  19.911  0.00  0.00    +0.000 N 
ATOM      2  C   UNL     1       1.541   8.651  19.054  0.00  0.00    +0.000 C 
ATOM      3  O   UNL     1       1.673   8.613  17.843  0.00  0.00    +0.000 OA
ATOM      4  H   UNL     1       2.035   7.763  20.923  0.00  0.00    +0.000 HD
ENDROOT
BRANCH   2   5
ATOM      5  C   UNL     1       0.826   9.808  19.720  0.00  0.00    +0.000 A 
ATOM      6  N   UNL     1       0.487  10.823  18.976  0.00  0.00    +0.000 NA
ATOM      7  N   UNL     1      -0.182  11.868  19.531  0.00  0.00    +0.000 N 
ATOM      8  C   UNL     1      -0.809  11.768  20.782  0.00  0.00    +0.000 A 
ATOM      9  C   UNL     1      -1.721  12.736  21.210  0.00  0.00    +0.000 A 
ATOM     10  C   UNL     1      -2.305  12.646  22.476  0.00  0.00    +0.000 A 
ATOM     11  C   UNL     1      -1.955  11.609  23.343  0.00  0.00    +0.000 A 
ATOM     12  C   UNL     1      -1.024  10.653  22.946  0.00  0.00    +0.000 A 
ATOM     13  C   UNL     1      -0.470  10.745  21.668  0.00  0.00    +0.000 A 
ATOM     14  C   UNL     1       0.479   9.755  21.172  0.00  0.00    +0.000 A 
ATOM     15  O   UNL     1       0.967   8.859  21.852  0.00  0.00    +0.000 OA
ATOM     16  H   UNL     1      -0.593  12.545  18.882  0.00  0.00    +0.000 HD
ENDBRANCH   2   5
BRANCH   1  22
ATOM     17  C   UNL     1       1.255   4.665  20.554  0.00  0.00    +0.000 C 
ATOM     18  N   UNL     1       2.273   5.145  19.651  0.00  0.00    +0.000 N 
ATOM     19  N   UNL     1       3.066   4.243  19.036  0.00  0.00    +0.000 NA
ATOM     20  C   UNL     1       3.952   4.989  18.369  0.00  0.00    +0.000 A 
ATOM     21  C   UNL     1       3.692   6.367  18.532  0.00  0.00    +0.000 A 
ATOM     22  C   UNL     1       2.635   6.450  19.405  0.00  0.00    +0.000 A 
BRANCH  20  23
ATOM     23  C   UNL     1       5.080   4.371  17.595  0.00  0.00    +0.000 C 
ATOM     24  C   UNL     1       6.407   5.088  17.911  0.00  0.00    +0.000 C 
ATOM     25  C   UNL     1       7.568   4.532  17.094  0.00  0.00    +0.000 C 
ATOM     26  C   UNL     1       7.262   4.573  15.601  0.00  0.00    +0.000 C 
ATOM     27  C   UNL     1       5.965   3.836  15.278  0.00  0.00    +0.000 C 
ATOM     28  C   UNL     1       4.792   4.385  16.084  0.00  0.00    +0.000 C 
ENDBRANCH  20  23
ENDBRANCH   1  22
TORSDOF 3
ENDMDL
MODEL 4
REMARK VINA RESULT:      -7.9      1.307      1.849
REMARK  Name = 
REMARK  4 active torsions:
REMARK  status: ('A' for Active; 'I' for Inactive)
REMARK    1  A    between atoms: C_1  and  N_2
REMARK    2  A    between atoms: C_4  and  C_5
REMARK    3  A    between atoms: C_12  and  N_13
REMARK    4  A    between atoms: C_14  and  C_16
REMARK                            x       y       z     vdW  Elec       q    Type
REMARK                         _______ _______ _______ _____ _____    ______ ____
ROOT
ATOM      1  N   UNL     1       3.957   7.194  17.854  0.00  0.00    +0.000 N 
ATOM      2  C   UNL     1       2.561   7.108  18.221  0.00  0.00    +0.000 C 
ATOM      3  O   UNL     1       1.876   6.146  17.920  0.00  0.00    +0.000 OA
ATOM      4  H   UNL     1       4.443   8.079  18.023  0.00  0.00    +0.000 HD
ENDROOT
BRANCH   2   5
ATOM      5  C   UNL     1       1.968   8.271  18.989  0.00  0.00    +0.000 A 
ATOM      6  N   UNL     1       1.766   9.386  18.345  0.00  0.00    +0.000 NA
ATOM      7  N   UNL     1       1.210  10.444  18.994  0.00  0.00    +0.000 N 
ATOM      8  C   UNL     1       0.547  10.297  20.221  0.00  0.00    +0.000 A 
ATOM      9  C   UNL     1      -0.257  11.319  20.732  0.00  0.00    +0.000 A 
ATOM     10  C   UNL     1      -0.877  11.176  21.976  0.00  0.00    +0.000 A 
ATOM     11  C   UNL     1      -0.669  10.026  22.740  0.00  0.00    +0.000 A 
ATOM     12  C   UNL     1       0.154   9.010  22.261  0.00  0.00    +0.000 A 
ATOM     13  C   UNL     1       0.745   9.161  21.005  0.00  0.00    +0.000 A 
ATOM     14  C   UNL     1       1.584   8.119  20.425  0.00  0.00    +0.000 A 
ATOM     15  O   UNL     1       1.950   7.109  21.019  0.00  0.00    +0.000 OA
ATOM     16  H   UNL     1       0.895  11.224  18.410  0.00  0.00    +0.000 HD
ENDBRANCH   2   5
BRANCH   1  22
ATOM     17  C   UNL     1       4.868   4.522  19.187  0.00  0.00    +0.000 C 
ATOM     18  N   UNL     1       5.015   4.942  17.815  0.00  0.00    +0.000 N 
ATOM     19  N   UNL     1       5.703   4.149  16.967  0.00  0.00    +0.000 NA
ATOM     20  C   UNL     1       5.751   4.850  15.830  0.00  0.00    +0.000 A 
ATOM     21  C   UNL     1       5.057   6.073  15.949  0.00  0.00    +0.000 A 
ATOM     22  C   UNL     1       4.632   6.140  17.253  0.00  0.00    +0.000 A 
BRANCH  20  23
ATOM     23  C   UNL     1       6.501   4.353  14.629  0.00  0.00    +0.000 C 
ATOM     24  C   UNL     1       7.384   5.473  14.044  0.00  0.00    +0.000 C 
ATOM     25  C   UNL     1       8.113   5.028  12.781  0.00  0.00    +0.000 C 
ATOM     26  C   UNL     1       7.136   4.494  11.738  0.00  0.00    +0.000 C 
ATOM     27  C   UNL     1       6.282   3.363  12.302  0.00  0.00    +0.000 C 
ATOM     28  C   UNL     1       5.542   3.795  13.564  0.00  0.00    +0.000 C 
ENDBRANCH  20  23
ENDBRANCH   1  22
TORSDOF 3
ENDMDL
MODEL 5
REMARK VINA RESULT:      -7.8      2.358      3.429
REMARK  Name = 
REMARK  4 active torsions:
REMARK  status: ('A' for Active; 'I' for Inactive)
REMARK    1  A    between atoms: C_1  and  N_2
REMARK    2  A    between atoms: C_4  and  C_5
REMARK    3  A    between atoms: C_12  and  N_13
REMARK    4  A    between atoms: C_14  and  C_16
REMARK                            x       y       z     vdW  Elec       q    Type
REMARK                         _______ _______ _______ _____ _____    ______ ____
ROOT
ATOM      1  N   UNL     1       1.784   6.618  20.756  0.00  0.00    +0.000 N 
ATOM      2  C   UNL     1       1.629   7.930  20.168  0.00  0.00    +0.000 C 
ATOM      3  O   UNL     1       2.203   8.246  19.140  0.00  0.00    +0.000 OA
ATOM      4  H   UNL     1       1.379   6.456  21.682  0.00  0.00    +0.000 HD
ENDROOT
BRANCH   2   5
ATOM      5  C   UNL     1       0.730   8.914  20.887  0.00  0.00    +0.000 A 
ATOM      6  N   UNL     1       0.736   8.905  22.190  0.00  0.00    +0.000 NA
ATOM      7  N   UNL     1      -0.037   9.792  22.871  0.00  0.00    +0.000 N 
ATOM      8  C   UNL     1      -0.587  10.926  22.253  0.00  0.00    +0.000 A 
ATOM      9  C   UNL     1      -1.130  11.966  23.009  0.00  0.00    +0.000 A 
ATOM     10  C   UNL     1      -1.713  13.069  22.379  0.00  0.00    +0.000 A 
ATOM     11  C   UNL     1      -1.793  13.125  20.986  0.00  0.00    +0.000 A 
ATOM     12  C   UNL     1      -1.285  12.082  20.216  0.00  0.00    +0.000 A 
ATOM     13  C   UNL     1      -0.684  11.001  20.863  0.00  0.00    +0.000 A 
ATOM     14  C   UNL     1      -0.094   9.895  20.118  0.00  0.00    +0.000 A 
ATOM     15  O   UNL     1      -0.187   9.748  18.903  0.00  0.00    +0.000 OA
ATOM     16  H   UNL     1       0.142   9.878  23.875  0.00  0.00    +0.000 HD
ENDBRANCH   2   5
BRANCH   1  22
ATOM     17  C   UNL     1       1.440   3.541  21.156  0.00  0.00    +0.000 C 
ATOM     18  N   UNL     1       2.331   4.240  20.263  0.00  0.00    +0.000 N 
ATOM     19  N   UNL     1       3.213   3.522  19.538  0.00  0.00    +0.000 NA
ATOM     20  C   UNL     1       3.947   4.445  18.908  0.00  0.00    +0.000 A 
ATOM     21  C   UNL     1       3.499   5.750  19.206  0.00  0.00    +0.000 A 
ATOM     22  C   UNL     1       2.488   5.601  20.123  0.00  0.00    +0.000 A 
BRANCH  20  23
ATOM     23  C   UNL     1       5.110   4.068  18.039  0.00  0.00    +0.000 C 
ATOM     24  C   UNL     1       6.334   4.947  18.366  0.00  0.00    +0.000 C 
ATOM     25  C   UNL     1       7.519   4.641  17.457  0.00  0.00    +0.000 C 
ATOM     26  C   UNL     1       7.133   4.759  15.986  0.00  0.00    +0.000 C 
ATOM     27  C   UNL     1       5.942   3.867  15.649  0.00  0.00    +0.000 C 
ATOM     28  C   UNL     1       4.746   4.165  16.547  0.00  0.00    +0.000 C 
ENDBRANCH  20  23
ENDBRANCH   1  22
TORSDOF 3
ENDMDL
MODEL 6
REMARK VINA RESULT:      -7.7      2.369      4.114
REMARK  Name = 
REMARK  4 active torsions:
REMARK  status: ('A' for Active; 'I' for Inactive)
REMARK    1  A    between atoms: C_1  and  N_2
REMARK    2  A    between atoms: C_4  and  C_5
REMARK    3  A    between atoms: C_12  and  N_13
REMARK    4  A    between atoms: C_14  and  C_16
REMARK                            x       y       z     vdW  Elec       q    Type
REMARK                         _______ _______ _______ _____ _____    ______ ____
ROOT
ATOM      1  N   UNL     1       1.422   8.504  19.668  0.00  0.00    +0.000 N 
ATOM      2  C   UNL     1       1.137   9.726  18.949  0.00  0.00    +0.000 C 
ATOM      3  O   UNL     1       1.666   9.981  17.880  0.00  0.00    +0.000 OA
ATOM      4  H   UNL     1       1.045   8.406  20.615  0.00  0.00    +0.000 HD
ENDROOT
BRANCH   2   5
ATOM      5  C   UNL     1       0.159  10.695  19.579  0.00  0.00    +0.000 A 
ATOM      6  N   UNL     1      -0.644  11.351  18.790  0.00  0.00    +0.000 NA
ATOM      7  N   UNL     1      -1.555  12.209  19.321  0.00  0.00    +0.000 N 
ATOM      8  C   UNL     1      -1.895  12.183  20.682  0.00  0.00    +0.000 A 
ATOM      9  C   UNL     1      -3.020  12.860  21.156  0.00  0.00    +0.000 A 
ATOM     10  C   UNL     1      -3.322  12.861  22.520  0.00  0.00    +0.000 A 
ATOM     11  C   UNL     1      -2.481  12.216  23.429  0.00  0.00    +0.000 A 
ATOM     12  C   UNL     1      -1.338  11.561  22.978  0.00  0.00    +0.000 A 
ATOM     13  C   UNL     1      -1.066  11.550  21.609  0.00  0.00    +0.000 A 
ATOM     14  C   UNL     1       0.090  10.849  21.064  0.00  0.00    +0.000 A 
ATOM     15  O   UNL     1       0.976  10.338  21.742  0.00  0.00    +0.000 OA
ATOM     16  H   UNL     1      -2.283  12.551  18.688  0.00  0.00    +0.000 HD
ENDBRANCH   2   5
BRANCH   1  22
ATOM     17  C   UNL     1       1.745   5.585  20.728  0.00  0.00    +0.000 C 
ATOM     18  N   UNL     1       2.342   6.194  19.564  0.00  0.00    +0.000 N 
ATOM     19  N   UNL     1       3.231   5.478  18.846  0.00  0.00    +0.000 NA
ATOM     20  C   UNL     1       3.671   6.337  17.920  0.00  0.00    +0.000 A 
ATOM     21  C   UNL     1       3.027   7.588  18.032  0.00  0.00    +0.000 A 
ATOM     22  C   UNL     1       2.209   7.494  19.131  0.00  0.00    +0.000 A 
BRANCH  20  23
ATOM     23  C   UNL     1       4.745   5.960  16.943  0.00  0.00    +0.000 C 
ATOM     24  C   UNL     1       4.669   4.457  16.610  0.00  0.00    +0.000 C 
ATOM     25  C   UNL     1       5.787   4.020  15.670  0.00  0.00    +0.000 C 
ATOM     26  C   UNL     1       7.156   4.391  16.230  0.00  0.00    +0.000 C 
ATOM     27  C   UNL     1       7.249   5.884  16.530  0.00  0.00    +0.000 C 
ATOM     28  C   UNL     1       6.139   6.336  17.475  0.00  0.00    +0.000 C 
ENDBRANCH  20  23
ENDBRANCH   1  22
TORSDOF 3
ENDMDL
MODEL 7
REMARK VINA RESULT:      -7.5      2.251      3.693
REMARK  Name = 
REMARK  4 active torsions:
REMARK  status: ('A' for Active; 'I' for Inactive)
REMARK    1  A    between atoms: C_1  and  N_2
REMARK    2  A    between atoms: C_4  and  C_5
REMARK    3  A    between atoms: C_12  and  N_13
REMARK    4  A    between atoms: C_14  and  C_16
REMARK                            x       y       z     vdW  Elec       q    Type
REMARK                         _______ _______ _______ _____ _____    ______ ____
ROOT
ATOM      1  N   UNL     1       1.629   8.225  19.689  0.00  0.00    +0.000 N 
ATOM      2  C   UNL     1       1.326   9.384  18.879  0.00  0.00    +0.000 C 
ATOM      3  O   UNL     1       1.814   9.540  17.772  0.00  0.00    +0.000 OA
ATOM      4  H   UNL     1       1.291   8.213  20.655  0.00  0.00    +0.000 HD
ENDROOT
BRANCH   2   5
ATOM      5  C   UNL     1       0.384  10.416  19.463  0.00  0.00    +0.000 A 
ATOM      6  N   UNL     1      -0.393  11.065  18.643  0.00  0.00    +0.000 NA
ATOM      7  N   UNL     1      -1.272  11.979  19.132  0.00  0.00    +0.000 N 
ATOM      8  C   UNL     1      -1.614  12.026  20.492  0.00  0.00    +0.000 A 
ATOM      9  C   UNL     1      -2.714  12.766  20.932  0.00  0.00    +0.000 A 
ATOM     10  C   UNL     1      -3.018  12.839  22.294  0.00  0.00    +0.000 A 
ATOM     11  C   UNL     1      -2.202  12.204  23.234  0.00  0.00    +0.000 A 
ATOM     12  C   UNL     1      -1.084  11.488  22.816  0.00  0.00    +0.000 A 
ATOM     13  C   UNL     1      -0.811  11.406  21.449  0.00  0.00    +0.000 A 
ATOM     14  C   UNL     1       0.319  10.639  20.939  0.00  0.00    +0.000 A 
ATOM     15  O   UNL     1       1.184  10.126  21.642  0.00  0.00    +0.000 OA
ATOM     16  H   UNL     1      -1.986  12.320  18.483  0.00  0.00    +0.000 HD
ENDBRANCH   2   5
BRANCH   1  22
ATOM     17  C   UNL     1       1.718   5.308  20.798  0.00  0.00    +0.000 C 
ATOM     18  N   UNL     1       2.415   5.864  19.664  0.00  0.00    +0.000 N 
ATOM     19  N   UNL     1       3.300   5.086  19.006  0.00  0.00    +0.000 NA
ATOM     20  C   UNL     1       3.842   5.904  18.098  0.00  0.00    +0.000 A 
ATOM     21  C   UNL     1       3.268   7.192  18.158  0.00  0.00    +0.000 A 
ATOM     22  C   UNL     1       2.385   7.163  19.209  0.00  0.00    +0.000 A 
BRANCH  20  23
ATOM     23  C   UNL     1       4.946   5.451  17.188  0.00  0.00    +0.000 C 
ATOM     24  C   UNL     1       5.070   6.399  15.979  0.00  0.00    +0.000 C 
ATOM     25  C   UNL     1       6.138   5.935  14.995  0.00  0.00    +0.000 C 
ATOM     26  C   UNL     1       5.890   4.499  14.546  0.00  0.00    +0.000 C 
ATOM     27  C   UNL     1       5.798   3.551  15.738  0.00  0.00    +0.000 C 
ATOM     28  C   UNL     1       4.729   3.999  16.730  0.00  0.00    +0.000 C 
ENDBRANCH  20  23
ENDBRANCH   1  22
TORSDOF 3
ENDMDL
MODEL 8
REMARK VINA RESULT:      -7.4      4.428      6.527
REMARK  Name = 
REMARK  4 active torsions:
REMARK  status: ('A' for Active; 'I' for Inactive)
REMARK    1  A    between atoms: C_1  and  N_2
REMARK    2  A    between atoms: C_4  and  C_5
REMARK    3  A    between atoms: C_12  and  N_13
REMARK    4  A    between atoms: C_14  and  C_16
REMARK                            x       y       z     vdW  Elec       q    Type
REMARK                         _______ _______ _______ _____ _____    ______ ____
ROOT
ATOM      1  N   UNL     1       0.638  10.086  20.498  0.00  0.00    +0.000 N 
ATOM      2  C   UNL     1      -0.630  10.487  19.931  0.00  0.00    +0.000 C 
ATOM      3  O   UNL     1      -1.157   9.859  19.028  0.00  0.00    +0.000 OA
ATOM      4  H   UNL     1       1.088  10.722  21.163  0.00  0.00    +0.000 HD
ENDROOT
BRANCH   2   5
ATOM      5  C   UNL     1      -1.284  11.732  20.493  0.00  0.00    +0.000 A 
ATOM      6  N   UNL     1      -1.643  12.663  19.655  0.00  0.00    +0.000 NA
ATOM      7  N   UNL     1      -2.258  13.783  20.119  0.00  0.00    +0.000 N 
ATOM      8  C   UNL     1      -2.816  13.845  21.404  0.00  0.00    +0.000 A 
ATOM      9  C   UNL     1      -3.683  14.880  21.763  0.00  0.00    +0.000 A 
ATOM     10  C   UNL     1      -4.197  14.953  23.061  0.00  0.00    +0.000 A 
ATOM     11  C   UNL     1      -3.820  14.014  24.023  0.00  0.00    +0.000 A 
ATOM     12  C   UNL     1      -2.933  12.994  23.692  0.00  0.00    +0.000 A 
ATOM     13  C   UNL     1      -2.449  12.923  22.384  0.00  0.00    +0.000 A 
ATOM     14  C   UNL     1      -1.550  11.857  21.958  0.00  0.00    +0.000 A 
ATOM     15  O   UNL     1      -1.043  11.032  22.712  0.00  0.00    +0.000 OA
ATOM     16  H   UNL     1      -2.690  14.391  19.418  0.00  0.00    +0.000 HD
ENDBRANCH   2   5
BRANCH   1  22
ATOM     17  C   UNL     1       2.022   9.416  17.780  0.00  0.00    +0.000 C 
ATOM     18  N   UNL     1       1.910   8.597  18.962  0.00  0.00    +0.000 N 
ATOM     19  N   UNL     1       2.376   7.332  18.917  0.00  0.00    +0.000 NA
ATOM     20  C   UNL     1       2.035   6.815  20.102  0.00  0.00    +0.000 A 
ATOM     21  C   UNL     1       1.387   7.771  20.913  0.00  0.00    +0.000 A 
ATOM     22  C   UNL     1       1.268   8.901  20.142  0.00  0.00    +0.000 A 
BRANCH  20  23
ATOM     23  C   UNL     1       2.306   5.379  20.443  0.00  0.00    +0.000 C 
ATOM     24  C   UNL     1       3.305   4.766  19.442  0.00  0.00    +0.000 C 
ATOM     25  C   UNL     1       3.556   3.288  19.715  0.00  0.00    +0.000 C 
ATOM     26  C   UNL     1       2.250   2.501  19.740  0.00  0.00    +0.000 C 
ATOM     27  C   UNL     1       1.269   3.083  20.753  0.00  0.00    +0.000 C 
ATOM     28  C   UNL     1       1.003   4.563  20.491  0.00  0.00    +0.000 C 
ENDBRANCH  20  23
ENDBRANCH   1  22
TORSDOF 3
ENDMDL
MODEL 9
REMARK VINA RESULT:      -7.4      4.170      6.585
REMARK  Name = 
REMARK  4 active torsions:
REMARK  status: ('A' for Active; 'I' for Inactive)
REMARK    1  A    between atoms: C_1  and  N_2
REMARK    2  A    between atoms: C_4  and  C_5
REMARK    3  A    between atoms: C_12  and  N_13
REMARK    4  A    between atoms: C_14  and  C_16
REMARK                            x       y       z     vdW  Elec       q    Type
REMARK                         _______ _______ _______ _____ _____    ______ ____
ROOT
ATOM      1  N   UNL     1       0.093   9.814  20.783  0.00  0.00    +0.000 N 
ATOM      2  C   UNL     1       0.544  11.119  21.213  0.00  0.00    +0.000 C 
ATOM      3  O   UNL     1       1.725  11.421  21.220  0.00  0.00    +0.000 OA
ATOM      4  H   UNL     1      -0.894   9.579  20.920  0.00  0.00    +0.000 HD
ENDROOT
BRANCH   2   5
ATOM      5  C   UNL     1      -0.510  12.105  21.673  0.00  0.00    +0.000 A 
ATOM      6  N   UNL     1      -0.640  13.214  21.001  0.00  0.00    +0.000 NA
ATOM      7  N   UNL     1      -1.594  14.111  21.366  0.00  0.00    +0.000 N 
ATOM      8  C   UNL     1      -2.653  13.764  22.218  0.00  0.00    +0.000 A 
ATOM      9  C   UNL     1      -3.768  14.594  22.355  0.00  0.00    +0.000 A 
ATOM     10  C   UNL     1      -4.795  14.257  23.241  0.00  0.00    +0.000 A 
ATOM     11  C   UNL     1      -4.701  13.105  24.025  0.00  0.00    +0.000 A 
ATOM     12  C   UNL     1      -3.583  12.282  23.923  0.00  0.00    +0.000 A 
ATOM     13  C   UNL     1      -2.579  12.623  23.016  0.00  0.00    +0.000 A 
ATOM     14  C   UNL     1      -1.401  11.784  22.828  0.00  0.00    +0.000 A 
ATOM     15  O   UNL     1      -1.124  10.810  23.521  0.00  0.00    +0.000 OA
ATOM     16  H   UNL     1      -1.788  14.867  20.703  0.00  0.00    +0.000 HD
ENDBRANCH   2   5
BRANCH   1  22
ATOM     17  C   UNL     1       1.490   9.927  17.993  0.00  0.00    +0.000 C 
ATOM     18  N   UNL     1       1.606   8.921  19.020  0.00  0.00    +0.000 N 
ATOM     19  N   UNL     1       2.339   7.818  18.763  0.00  0.00    +0.000 NA
ATOM     20  C   UNL     1       2.165   7.051  19.844  0.00  0.00    +0.000 A 
ATOM     21  C   UNL     1       1.351   7.690  20.804  0.00  0.00    +0.000 A 
ATOM     22  C   UNL     1       0.956   8.876  20.234  0.00  0.00    +0.000 A 
BRANCH  20  23
ATOM     23  C   UNL     1       2.760   5.677  19.939  0.00  0.00    +0.000 C 
ATOM     24  C   UNL     1       2.902   5.053  18.537  0.00  0.00    +0.000 C 
ATOM     25  C   UNL     1       3.442   3.628  18.595  0.00  0.00    +0.000 C 
ATOM     26  C   UNL     1       2.589   2.751  19.505  0.00  0.00    +0.000 C 
ATOM     27  C   UNL     1       2.472   3.347  20.904  0.00  0.00    +0.000 C 
ATOM     28  C   UNL     1       1.927   4.772  20.863  0.00  0.00    +0.000 C 
ENDBRANCH  20  23
ENDBRANCH   1  22
TORSDOF 3
ENDMDL
