MODEL 1
REMARK VINA RESULT:      -8.6      0.000      0.000
REMARK  Name = 
REMARK  6 active torsions:
REMARK  status: ('A' for Active; 'I' for Inactive)
REMARK    1  A    between atoms: C_2  and  C_4
REMARK    2  A    between atoms: C_7  and  C_8
REMARK    3  A    between atoms: C_8  and  N_9
REMARK    4  A    between atoms: C_10  and  C_11
REMARK    5  A    between atoms: C_11  and  O_12
REMARK    6  A    between atoms: O_12  and  C_13
REMARK                            x       y       z     vdW  Elec       q    Type
REMARK                         _______ _______ _______ _____ _____    ______ ____
ROOT
ATOM      1  N   UNL     1       5.026   5.888  17.153  0.00  0.00    +0.000 N 
ATOM      2  C   UNL     1       5.073   4.511  17.353  0.00  0.00    +0.000 A 
ATOM      3  N   UNL     1       6.107   4.223  18.131  0.00  0.00    +0.000 NA
ATOM      4  C   UNL     1       6.805   5.386  18.304  0.00  0.00    +0.000 A 
ATOM      5  C   UNL     1       7.921   5.650  19.109  0.00  0.00    +0.000 A 
ATOM      6  C   UNL     1       8.513   6.917  19.046  0.00  0.00    +0.000 A 
ATOM      7  C   UNL     1       8.021   7.886  18.171  0.00  0.00    +0.000 A 
ATOM      8  C   UNL     1       6.867   7.660  17.410  0.00  0.00    +0.000 A 
ATOM      9  C   UNL     1       6.247   6.410  17.549  0.00  0.00    +0.000 A 
ENDROOT
BRANCH   1  10
ATOM     10  C   UNL     1       3.869   6.720  16.799  0.00  0.00    +0.000 C 
BRANCH  10  14
ATOM     11  C   UNL     1       1.583   8.029  20.285  0.00  0.00    +0.000 A 
ATOM     12  C   UNL     1       2.130   6.742  20.237  0.00  0.00    +0.000 A 
ATOM     13  C   UNL     1       2.836   6.310  19.094  0.00  0.00    +0.000 A 
ATOM     14  C   UNL     1       2.950   7.127  17.954  0.00  0.00    +0.000 A 
ATOM     15  C   UNL     1       2.265   8.347  17.995  0.00  0.00    +0.000 A 
ATOM     16  C   UNL     1       1.664   8.830  19.153  0.00  0.00    +0.000 A 
BRANCH  11  18
ATOM     17  N   UNL     1       1.609   9.095  22.490  0.00  0.00    +0.000 N 
ATOM     18  C   UNL     1       0.862   8.609  21.450  0.00  0.00    +0.000 C 
ATOM     19  O   UNL     1      -0.354   8.697  21.479  0.00  0.00    +0.000 OA
ATOM     20  H   UNL     1       1.089   9.591  23.197  0.00  0.00    +0.000 HD
ATOM     21  H   UNL     1       2.596   9.279  22.404  0.00  0.00    +0.000 HD
ENDBRANCH  11  18
ENDBRANCH  10  14
ENDBRANCH   1  10
BRANCH   2  22
ATOM     22  C   UNL     1       3.944   3.541  17.109  0.00  0.00    +0.000 C 
BRANCH  22  23
ATOM     23  O   UNL     1       3.951   2.460  18.037  0.00  0.00    +0.000 OA
BRANCH  23  24
ATOM     24  C   UNL     1       3.093   2.647  19.105  0.00  0.00    +0.000 A 
ATOM     25  C   UNL     1       3.453   2.680  20.463  0.00  0.00    +0.000 A 
ATOM     26  C   UNL     1       2.482   2.855  21.453  0.00  0.00    +0.000 A 
ATOM     27  C   UNL     1       1.145   3.012  21.100  0.00  0.00    +0.000 A 
ATOM     28  C   UNL     1       0.775   2.987  19.757  0.00  0.00    +0.000 A 
ATOM     29  C   UNL     1       1.750   2.803  18.768  0.00  0.00    +0.000 A 
ENDBRANCH  23  24
ENDBRANCH  22  23
ENDBRANCH   2  22
TORSDOF 6
ENDMDL
MODEL 2
REMARK VINA RESULT:      -8.4      0.769      1.190
REMARK  Name = 
REMARK  6 active torsions:
REMARK  status: ('A' for Active; 'I' for Inactive)
REMARK    1  A    between atoms: C_2  and  C_4
REMARK    2  A    between atoms: C_7  and  C_8
REMARK    3  A    between atoms: C_8  and  N_9
REMARK    4  A    between atoms: C_10  and  C_11
REMARK    5  A    between atoms: C_11  and  O_12
REMARK    6  A    between atoms: O_12  and  C_13
REMARK                            x       y       z     vdW  Elec       q    Type
REMARK                         _______ _______ _______ _____ _____    ______ ____
ROOT
ATOM      1  N   UNL     1       4.861   5.441  17.333  0.00  0.00    +0.000 N 
ATOM      2  C   UNL     1       5.224   4.122  17.597  0.00  0.00    +0.000 A 
ATOM      3  N   UNL     1       6.395   4.113  18.219  0.00  0.00    +0.000 NA
ATOM      4  C   UNL     1       6.851   5.402  18.217  0.00  0.00    +0.000 A 
ATOM      5  C   UNL     1       7.990   5.950  18.823  0.00  0.00    +0.000 A 
ATOM      6  C   UNL     1       8.288   7.299  18.599  0.00  0.00    +0.000 A 
ATOM      7  C   UNL     1       7.485   8.074  17.762  0.00  0.00    +0.000 A 
ATOM      8  C   UNL     1       6.308   7.558  17.204  0.00  0.00    +0.000 A 
ATOM      9  C   UNL     1       5.990   6.226  17.504  0.00  0.00    +0.000 A 
ENDROOT
BRANCH   1  10
ATOM     10  C   UNL     1       3.517   5.992  17.121  0.00  0.00    +0.000 C 
BRANCH  10  14
ATOM     11  C   UNL     1       1.492   8.261  20.258  0.00  0.00    +0.000 A 
ATOM     12  C   UNL     1       1.798   8.862  19.031  0.00  0.00    +0.000 A 
ATOM     13  C   UNL     1       2.485   8.137  18.035  0.00  0.00    +0.000 A 
ATOM     14  C   UNL     1       2.939   6.825  18.267  0.00  0.00    +0.000 A 
ATOM     15  C   UNL     1       2.736   6.319  19.556  0.00  0.00    +0.000 A 
ATOM     16  C   UNL     1       1.964   6.979  20.507  0.00  0.00    +0.000 A 
BRANCH  11  18
ATOM     17  N   UNL     1      -0.470   8.363  21.719  0.00  0.00    +0.000 N 
ATOM     18  C   UNL     1       0.734   8.909  21.362  0.00  0.00    +0.000 C 
ATOM     19  O   UNL     1       1.173   9.871  21.970  0.00  0.00    +0.000 OA
ATOM     20  H   UNL     1      -0.889   8.752  22.550  0.00  0.00    +0.000 HD
ATOM     21  H   UNL     1      -0.749   7.439  21.431  0.00  0.00    +0.000 HD
ENDBRANCH  11  18
ENDBRANCH  10  14
ENDBRANCH   1  10
BRANCH   2  22
ATOM     22  C   UNL     1       4.301   2.930  17.585  0.00  0.00    +0.000 C 
BRANCH  22  23
ATOM     23  O   UNL     1       4.277   2.253  18.839  0.00  0.00    +0.000 OA
BRANCH  23  24
ATOM     24  C   UNL     1       3.183   2.581  19.619  0.00  0.00    +0.000 A 
ATOM     25  C   UNL     1       3.180   2.744  21.015  0.00  0.00    +0.000 A 
ATOM     26  C   UNL     1       1.997   3.056  21.693  0.00  0.00    +0.000 A 
ATOM     27  C   UNL     1       0.810   3.220  20.985  0.00  0.00    +0.000 A 
ATOM     28  C   UNL     1       0.801   3.068  19.600  0.00  0.00    +0.000 A 
ATOM     29  C   UNL     1       1.986   2.747  18.926  0.00  0.00    +0.000 A 
ENDBRANCH  23  24
ENDBRANCH  22  23
ENDBRANCH   2  22
TORSDOF 6
ENDMDL
MODEL 3
REMARK VINA RESULT:      -8.3      1.855      5.169
REMARK  Name = 
REMARK  6 active torsions:
REMARK  status: ('A' for Active; 'I' for Inactive)
REMARK    1  A    between atoms: C_2  and  C_4
REMARK    2  A    between atoms: C_7  and  C_8
REMARK    3  A    between atoms: C_8  and  N_9
REMARK    4  A    between atoms: C_10  and  C_11
REMARK    5  A    between atoms: C_11  and  O_12
REMARK    6  A    between atoms: O_12  and  C_13
REMARK                            x       y       z     vdW  Elec       q    Type
REMARK                         _______ _______ _______ _____ _____    ______ ____
ROOT
ATOM      1  N   UNL     1       3.523   4.921  18.556  0.00  0.00    +0.000 N 
ATOM      2  C   UNL     1       3.787   4.294  17.341  0.00  0.00    +0.000 A 
ATOM      3  N   UNL     1       2.901   3.326  17.153  0.00  0.00    +0.000 NA
ATOM      4  C   UNL     1       2.172   3.233  18.306  0.00  0.00    +0.000 A 
ATOM      5  C   UNL     1       1.056   2.436  18.598  0.00  0.00    +0.000 A 
ATOM      6  C   UNL     1       0.534   2.458  19.897  0.00  0.00    +0.000 A 
ATOM      7  C   UNL     1       1.135   3.233  20.889  0.00  0.00    +0.000 A 
ATOM      8  C   UNL     1       2.209   4.084  20.596  0.00  0.00    +0.000 A 
ATOM      9  C   UNL     1       2.665   4.102  19.271  0.00  0.00    +0.000 A 
ENDROOT
BRANCH   1  10
ATOM     10  C   UNL     1       3.878   6.283  18.976  0.00  0.00    +0.000 C 
BRANCH  10  14
ATOM     11  C   UNL     1       0.941   9.518  18.979  0.00  0.00    +0.000 A 
ATOM     12  C   UNL     1       1.126   8.725  20.117  0.00  0.00    +0.000 A 
ATOM     13  C   UNL     1       2.049   7.658  20.101  0.00  0.00    +0.000 A 
ATOM     14  C   UNL     1       2.753   7.319  18.930  0.00  0.00    +0.000 A 
ATOM     15  C   UNL     1       2.429   8.049  17.780  0.00  0.00    +0.000 A 
ATOM     16  C   UNL     1       1.608   9.171  17.811  0.00  0.00    +0.000 A 
BRANCH  11  18
ATOM     17  N   UNL     1      -0.652  10.893  17.726  0.00  0.00    +0.000 N 
ATOM     18  C   UNL     1       0.034  10.694  18.894  0.00  0.00    +0.000 C 
ATOM     19  O   UNL     1      -0.138  11.446  19.839  0.00  0.00    +0.000 OA
ATOM     20  H   UNL     1      -1.347  11.623  17.754  0.00  0.00    +0.000 HD
ATOM     21  H   UNL     1      -0.741  10.174  17.025  0.00  0.00    +0.000 HD
ENDBRANCH  11  18
ENDBRANCH  10  14
ENDBRANCH   1  10
BRANCH   2  22
ATOM     22  C   UNL     1       4.633   4.850  16.223  0.00  0.00    +0.000 C 
BRANCH  22  23
ATOM     23  O   UNL     1       6.013   4.531  16.379  0.00  0.00    +0.000 OA
BRANCH  23  24
ATOM     24  C   UNL     1       6.716   5.479  17.101  0.00  0.00    +0.000 A 
ATOM     25  C   UNL     1       6.877   6.832  16.758  0.00  0.00    +0.000 A 
ATOM     26  C   UNL     1       7.634   7.686  17.564  0.00  0.00    +0.000 A 
ATOM     27  C   UNL     1       8.228   7.204  18.727  0.00  0.00    +0.000 A 
ATOM     28  C   UNL     1       8.072   5.866  19.083  0.00  0.00    +0.000 A 
ATOM     29  C   UNL     1       7.319   5.011  18.267  0.00  0.00    +0.000 A 
ENDBRANCH  23  24
ENDBRANCH  22  23
ENDBRANCH   2  22
TORSDOF 6
ENDMDL
MODEL 4
REMARK VINA RESULT:      -8.2      1.730      5.041
REMARK  Name = 
REMARK  6 active torsions:
REMARK  status: ('A' for Active; 'I' for Inactive)
REMARK    1  A    between atoms: C_2  and  C_4
REMARK    2  A    between atoms: C_7  and  C_8
REMARK    3  A    between atoms: C_8  and  N_9
REMARK    4  A    between atoms: C_10  and  C_11
REMARK    5  A    between atoms: C_11  and  O_12
REMARK    6  A    between atoms: O_12  and  C_13
REMARK                            x       y       z     vdW  Elec       q    Type
REMARK                         _______ _______ _______ _____ _____    ______ ____
ROOT
ATOM      1  N   UNL     1       3.595   4.767  18.551  0.00  0.00    +0.000 N 
ATOM      2  C   UNL     1       3.840   4.121  17.342  0.00  0.00    +0.000 A 
ATOM      3  N   UNL     1       2.931   3.174  17.166  0.00  0.00    +0.000 NA
ATOM      4  C   UNL     1       2.202   3.110  18.322  0.00  0.00    +0.000 A 
ATOM      5  C   UNL     1       1.068   2.343  18.624  0.00  0.00    +0.000 A 
ATOM      6  C   UNL     1       0.550   2.391  19.924  0.00  0.00    +0.000 A 
ATOM      7  C   UNL     1       1.173   3.161  20.907  0.00  0.00    +0.000 A 
ATOM      8  C   UNL     1       2.266   3.983  20.603  0.00  0.00    +0.000 A 
ATOM      9  C   UNL     1       2.719   3.976  19.276  0.00  0.00    +0.000 A 
ENDROOT
BRANCH   1  10
ATOM     10  C   UNL     1       3.984   6.123  18.957  0.00  0.00    +0.000 C 
BRANCH  10  14
ATOM     11  C   UNL     1       1.122   9.424  18.955  0.00  0.00    +0.000 A 
ATOM     12  C   UNL     1       1.244   8.591  20.072  0.00  0.00    +0.000 A 
ATOM     13  C   UNL     1       2.143   7.504  20.055  0.00  0.00    +0.000 A 
ATOM     14  C   UNL     1       2.885   7.187  18.902  0.00  0.00    +0.000 A 
ATOM     15  C   UNL     1       2.623   7.961  17.765  0.00  0.00    +0.000 A 
ATOM     16  C   UNL     1       1.827   9.101  17.802  0.00  0.00    +0.000 A 
BRANCH  11  18
ATOM     17  N   UNL     1       0.597  11.726  19.606  0.00  0.00    +0.000 N 
ATOM     18  C   UNL     1       0.246  10.624  18.874  0.00  0.00    +0.000 C 
ATOM     19  O   UNL     1      -0.736  10.659  18.151  0.00  0.00    +0.000 OA
ATOM     20  H   UNL     1       0.052  12.554  19.426  0.00  0.00    +0.000 HD
ATOM     21  H   UNL     1       1.516  11.837  20.006  0.00  0.00    +0.000 HD
ENDBRANCH  11  18
ENDBRANCH  10  14
ENDBRANCH   1  10
BRANCH   2  22
ATOM     22  C   UNL     1       4.696   4.645  16.216  0.00  0.00    +0.000 C 
BRANCH  22  23
ATOM     23  O   UNL     1       6.066   4.284  16.367  0.00  0.00    +0.000 OA
BRANCH  23  24
ATOM     24  C   UNL     1       6.779   5.157  17.169  0.00  0.00    +0.000 A 
ATOM     25  C   UNL     1       7.435   4.833  18.369  0.00  0.00    +0.000 A 
ATOM     26  C   UNL     1       8.105   5.816  19.102  0.00  0.00    +0.000 A 
ATOM     27  C   UNL     1       8.139   7.129  18.641  0.00  0.00    +0.000 A 
ATOM     28  C   UNL     1       7.498   7.463  17.450  0.00  0.00    +0.000 A 
ATOM     29  C   UNL     1       6.820   6.476  16.722  0.00  0.00    +0.000 A 
ENDBRANCH  23  24
ENDBRANCH  22  23
ENDBRANCH   2  22
TORSDOF 6
ENDMDL
MODEL 5
REMARK VINA RESULT:      -8.1      0.891      1.556
REMARK  Name = 
REMARK  6 active torsions:
REMARK  status: ('A' for Active; 'I' for Inactive)
REMARK    1  A    between atoms: C_2  and  C_4
REMARK    2  A    between atoms: C_7  and  C_8
REMARK    3  A    between atoms: C_8  and  N_9
REMARK    4  A    between atoms: C_10  and  C_11
REMARK    5  A    between atoms: C_11  and  O_12
REMARK    6  A    between atoms: O_12  and  C_13
REMARK                            x       y       z     vdW  Elec       q    Type
REMARK                         _______ _______ _______ _____ _____    ______ ____
ROOT
ATOM      1  N   UNL     1       5.166   5.438  17.422  0.00  0.00    +0.000 N 
ATOM      2  C   UNL     1       5.617   4.187  17.835  0.00  0.00    +0.000 A 
ATOM      3  N   UNL     1       6.756   4.335  18.496  0.00  0.00    +0.000 NA
ATOM      4  C   UNL     1       7.111   5.650  18.376  0.00  0.00    +0.000 A 
ATOM      5  C   UNL     1       8.178   6.347  18.962  0.00  0.00    +0.000 A 
ATOM      6  C   UNL     1       8.380   7.687  18.610  0.00  0.00    +0.000 A 
ATOM      7  C   UNL     1       7.557   8.305  17.668  0.00  0.00    +0.000 A 
ATOM      8  C   UNL     1       6.449   7.642  17.125  0.00  0.00    +0.000 A 
ATOM      9  C   UNL     1       6.222   6.326  17.551  0.00  0.00    +0.000 A 
ENDROOT
BRANCH   1  10
ATOM     10  C   UNL     1       3.794   5.854  17.105  0.00  0.00    +0.000 C 
BRANCH  10  14
ATOM     11  C   UNL     1       1.505   8.374  19.844  0.00  0.00    +0.000 A 
ATOM     12  C   UNL     1       1.880   8.853  18.583  0.00  0.00    +0.000 A 
ATOM     13  C   UNL     1       2.651   8.050  17.717  0.00  0.00    +0.000 A 
ATOM     14  C   UNL     1       3.119   6.784  18.116  0.00  0.00    +0.000 A 
ATOM     15  C   UNL     1       2.839   6.409  19.435  0.00  0.00    +0.000 A 
ATOM     16  C   UNL     1       1.988   7.140  20.258  0.00  0.00    +0.000 A 
BRANCH  11  18
ATOM     17  N   UNL     1      -0.006  10.224  20.383  0.00  0.00    +0.000 N 
ATOM     18  C   UNL     1       0.657   9.109  20.820  0.00  0.00    +0.000 C 
ATOM     19  O   UNL     1       0.510   8.722  21.968  0.00  0.00    +0.000 OA
ATOM     20  H   UNL     1      -0.665  10.617  21.037  0.00  0.00    +0.000 HD
ATOM     21  H   UNL     1      -0.122  10.433  19.404  0.00  0.00    +0.000 HD
ENDBRANCH  11  18
ENDBRANCH  10  14
ENDBRANCH   1  10
BRANCH   2  22
ATOM     22  C   UNL     1       4.790   2.929  17.915  0.00  0.00    +0.000 C 
BRANCH  22  23
ATOM     23  O   UNL     1       4.467   2.578  19.258  0.00  0.00    +0.000 OA
BRANCH  23  24
ATOM     24  C   UNL     1       3.139   2.796  19.578  0.00  0.00    +0.000 A 
ATOM     25  C   UNL     1       2.067   2.855  18.671  0.00  0.00    +0.000 A 
ATOM     26  C   UNL     1       0.767   3.104  19.121  0.00  0.00    +0.000 A 
ATOM     27  C   UNL     1       0.521   3.285  20.479  0.00  0.00    +0.000 A 
ATOM     28  C   UNL     1       1.574   3.223  21.390  0.00  0.00    +0.000 A 
ATOM     29  C   UNL     1       2.876   2.981  20.933  0.00  0.00    +0.000 A 
ENDBRANCH  23  24
ENDBRANCH  22  23
ENDBRANCH   2  22
TORSDOF 6
ENDMDL
MODEL 6
REMARK VINA RESULT:      -7.9      2.526      7.050
REMARK  Name = 
REMARK  6 active torsions:
REMARK  status: ('A' for Active; 'I' for Inactive)
REMARK    1  A    between atoms: C_2  and  C_4
REMARK    2  A    between atoms: C_7  and  C_8
REMARK    3  A    between atoms: C_8  and  N_9
REMARK    4  A    between atoms: C_10  and  C_11
REMARK    5  A    between atoms: C_11  and  O_12
REMARK    6  A    between atoms: O_12  and  C_13
REMARK                            x       y       z     vdW  Elec       q    Type
REMARK                         _______ _______ _______ _____ _____    ______ ____
ROOT
ATOM      1  N   UNL     1       3.099   5.441  19.346  0.00  0.00    +0.000 N 
ATOM      2  C   UNL     1       2.022   6.009  20.022  0.00  0.00    +0.000 A 
ATOM      3  N   UNL     1       1.089   5.086  20.201  0.00  0.00    +0.000 NA
ATOM      4  C   UNL     1       1.496   3.977  19.513  0.00  0.00    +0.000 A 
ATOM      5  C   UNL     1       0.922   2.699  19.451  0.00  0.00    +0.000 A 
ATOM      6  C   UNL     1       1.489   1.747  18.596  0.00  0.00    +0.000 A 
ATOM      7  C   UNL     1       2.584   2.075  17.796  0.00  0.00    +0.000 A 
ATOM      8  C   UNL     1       3.209   3.325  17.896  0.00  0.00    +0.000 A 
ATOM      9  C   UNL     1       2.669   4.235  18.816  0.00  0.00    +0.000 A 
ENDROOT
BRANCH   1  10
ATOM     10  C   UNL     1       4.502   5.874  19.338  0.00  0.00    +0.000 C 
BRANCH  10  14
ATOM     11  C   UNL     1       6.431   5.034  15.509  0.00  0.00    +0.000 A 
ATOM     12  C   UNL     1       6.965   4.527  16.700  0.00  0.00    +0.000 A 
ATOM     13  C   UNL     1       6.360   4.831  17.937  0.00  0.00    +0.000 A 
ATOM     14  C   UNL     1       5.255   5.700  18.017  0.00  0.00    +0.000 A 
ATOM     15  C   UNL     1       4.848   6.294  16.818  0.00  0.00    +0.000 A 
ATOM     16  C   UNL     1       5.362   5.916  15.581  0.00  0.00    +0.000 A 
BRANCH  11  18
ATOM     17  N   UNL     1       6.425   3.677  13.470  0.00  0.00    +0.000 N 
ATOM     18  C   UNL     1       6.953   4.744  14.146  0.00  0.00    +0.000 C 
ATOM     19  O   UNL     1       7.796   5.447  13.614  0.00  0.00    +0.000 OA
ATOM     20  H   UNL     1       6.712   3.593  12.508  0.00  0.00    +0.000 HD
ATOM     21  H   UNL     1       5.566   3.232  13.753  0.00  0.00    +0.000 HD
ENDBRANCH  11  18
ENDBRANCH  10  14
ENDBRANCH   1  10
BRANCH   2  22
ATOM     22  C   UNL     1       2.046   7.302  20.799  0.00  0.00    +0.000 C 
BRANCH  22  23
ATOM     23  O   UNL     1       1.467   8.381  20.071  0.00  0.00    +0.000 OA
BRANCH  23  24
ATOM     24  C   UNL     1       0.691   9.217  20.853  0.00  0.00    +0.000 A 
ATOM     25  C   UNL     1      -0.010  10.352  20.411  0.00  0.00    +0.000 A 
ATOM     26  C   UNL     1      -0.744  11.131  21.311  0.00  0.00    +0.000 A 
ATOM     27  C   UNL     1      -0.797  10.779  22.657  0.00  0.00    +0.000 A 
ATOM     28  C   UNL     1      -0.112   9.652  23.107  0.00  0.00    +0.000 A 
ATOM     29  C   UNL     1       0.629   8.880  22.204  0.00  0.00    +0.000 A 
ENDBRANCH  23  24
ENDBRANCH  22  23
ENDBRANCH   2  22
TORSDOF 6
ENDMDL
MODEL 7
REMARK VINA RESULT:      -7.9      2.794      5.636
REMARK  Name = 
REMARK  6 active torsions:
REMARK  status: ('A' for Active; 'I' for Inactive)
REMARK    1  A    between atoms: C_2  and  C_4
REMARK    2  A    between atoms: C_7  and  C_8
REMARK    3  A    between atoms: C_8  and  N_9
REMARK    4  A    between atoms: C_10  and  C_11
REMARK    5  A    between atoms: C_11  and  O_12
REMARK    6  A    between atoms: O_12  and  C_13
REMARK                            x       y       z     vdW  Elec       q    Type
REMARK                         _______ _______ _______ _____ _____    ______ ____
ROOT
ATOM      1  N   UNL     1       3.603   5.197  18.546  0.00  0.00    +0.000 N 
ATOM      2  C   UNL     1       3.970   4.612  17.337  0.00  0.00    +0.000 A 
ATOM      3  N   UNL     1       3.144   3.609  17.074  0.00  0.00    +0.000 NA
ATOM      4  C   UNL     1       2.351   3.454  18.177  0.00  0.00    +0.000 A 
ATOM      5  C   UNL     1       1.259   2.599  18.381  0.00  0.00    +0.000 A 
ATOM      6  C   UNL     1       0.657   2.567  19.645  0.00  0.00    +0.000 A 
ATOM      7  C   UNL     1       1.159   3.344  20.689  0.00  0.00    +0.000 A 
ATOM      8  C   UNL     1       2.206   4.251  20.482  0.00  0.00    +0.000 A 
ATOM      9  C   UNL     1       2.742   4.322  19.188  0.00  0.00    +0.000 A 
ENDROOT
BRANCH   1  10
ATOM     10  C   UNL     1       3.866   6.563  19.016  0.00  0.00    +0.000 C 
BRANCH  10  14
ATOM     11  C   UNL     1       0.764   9.639  18.970  0.00  0.00    +0.000 A 
ATOM     12  C   UNL     1       0.967   8.853  20.109  0.00  0.00    +0.000 A 
ATOM     13  C   UNL     1       1.945   7.836  20.108  0.00  0.00    +0.000 A 
ATOM     14  C   UNL     1       2.689   7.539  18.951  0.00  0.00    +0.000 A 
ATOM     15  C   UNL     1       2.349   8.254  17.796  0.00  0.00    +0.000 A 
ATOM     16  C   UNL     1       1.470   9.332  17.814  0.00  0.00    +0.000 A 
BRANCH  11  18
ATOM     17  N   UNL     1       0.192  11.890  18.194  0.00  0.00    +0.000 N 
ATOM     18  C   UNL     1      -0.202  10.767  18.870  0.00  0.00    +0.000 C 
ATOM     19  O   UNL     1      -1.329  10.695  19.332  0.00  0.00    +0.000 OA
ATOM     20  H   UNL     1      -0.532  12.576  18.041  0.00  0.00    +0.000 HD
ATOM     21  H   UNL     1       0.995  11.900  17.586  0.00  0.00    +0.000 HD
ENDBRANCH  11  18
ENDBRANCH  10  14
ENDBRANCH   1  10
BRANCH   2  22
ATOM     22  C   UNL     1       4.855   5.233  16.286  0.00  0.00    +0.000 C 
BRANCH  22  23
ATOM     23  O   UNL     1       6.006   4.439  16.011  0.00  0.00    +0.000 OA
BRANCH  23  24
ATOM     24  C   UNL     1       6.289   4.331  14.661  0.00  0.00    +0.000 A 
ATOM     25  C   UNL     1       5.619   3.513  13.737  0.00  0.00    +0.000 A 
ATOM     26  C   UNL     1       6.018   3.476  12.397  0.00  0.00    +0.000 A 
ATOM     27  C   UNL     1       7.080   4.265  11.964  0.00  0.00    +0.000 A 
ATOM     28  C   UNL     1       7.750   5.085  12.869  0.00  0.00    +0.000 A 
ATOM     29  C   UNL     1       7.352   5.112  14.212  0.00  0.00    +0.000 A 
ENDBRANCH  23  24
ENDBRANCH  22  23
ENDBRANCH   2  22
TORSDOF 6
ENDMDL
MODEL 8
REMARK VINA RESULT:      -7.8      1.757      5.122
REMARK  Name = 
REMARK  6 active torsions:
REMARK  status: ('A' for Active; 'I' for Inactive)
REMARK    1  A    between atoms: C_2  and  C_4
REMARK    2  A    between atoms: C_7  and  C_8
REMARK    3  A    between atoms: C_8  and  N_9
REMARK    4  A    between atoms: C_10  and  C_11
REMARK    5  A    between atoms: C_11  and  O_12
REMARK    6  A    between atoms: O_12  and  C_13
REMARK                            x       y       z     vdW  Elec       q    Type
REMARK                         _______ _______ _______ _____ _____    ______ ____
ROOT
ATOM      1  N   UNL     1       3.583   4.750  18.638  0.00  0.00    +0.000 N 
ATOM      2  C   UNL     1       3.725   4.199  17.367  0.00  0.00    +0.000 A 
ATOM      3  N   UNL     1       2.738   3.341  17.155  0.00  0.00    +0.000 NA
ATOM      4  C   UNL     1       2.056   3.227  18.335  0.00  0.00    +0.000 A 
ATOM      5  C   UNL     1       0.880   2.522  18.626  0.00  0.00    +0.000 A 
ATOM      6  C   UNL     1       0.422   2.492  19.949  0.00  0.00    +0.000 A 
ATOM      7  C   UNL     1       1.144   3.123  20.963  0.00  0.00    +0.000 A 
ATOM      8  C   UNL     1       2.284   3.885  20.678  0.00  0.00    +0.000 A 
ATOM      9  C   UNL     1       2.678   3.964  19.335  0.00  0.00    +0.000 A 
ENDROOT
BRANCH   1  10
ATOM     10  C   UNL     1       4.093   6.032  19.139  0.00  0.00    +0.000 C 
BRANCH  10  14
ATOM     11  C   UNL     1       1.062   9.158  18.773  0.00  0.00    +0.000 A 
ATOM     12  C   UNL     1       1.992   8.947  17.749  0.00  0.00    +0.000 A 
ATOM     13  C   UNL     1       2.992   7.961  17.886  0.00  0.00    +0.000 A 
ATOM     14  C   UNL     1       3.126   7.217  19.074  0.00  0.00    +0.000 A 
ATOM     15  C   UNL     1       2.265   7.563  20.122  0.00  0.00    +0.000 A 
ATOM     16  C   UNL     1       1.206   8.451  19.959  0.00  0.00    +0.000 A 
BRANCH  11  18
ATOM     17  N   UNL     1       0.133  11.299  18.031  0.00  0.00    +0.000 N 
ATOM     18  C   UNL     1      -0.061  10.132  18.721  0.00  0.00    +0.000 C 
ATOM     19  O   UNL     1      -1.143   9.899  19.235  0.00  0.00    +0.000 OA
ATOM     20  H   UNL     1      -0.689  11.871  17.913  0.00  0.00    +0.000 HD
ATOM     21  H   UNL     1       0.897  11.423  17.386  0.00  0.00    +0.000 HD
ENDBRANCH  11  18
ENDBRANCH  10  14
ENDBRANCH   1  10
BRANCH   2  22
ATOM     22  C   UNL     1       4.571   4.757  16.250  0.00  0.00    +0.000 C 
BRANCH  22  23
ATOM     23  O   UNL     1       5.934   4.356  16.354  0.00  0.00    +0.000 OA
BRANCH  23  24
ATOM     24  C   UNL     1       6.694   5.196  17.148  0.00  0.00    +0.000 A 
ATOM     25  C   UNL     1       7.380   4.834  18.319  0.00  0.00    +0.000 A 
ATOM     26  C   UNL     1       8.099   5.786  19.048  0.00  0.00    +0.000 A 
ATOM     27  C   UNL     1       8.150   7.107  18.609  0.00  0.00    +0.000 A 
ATOM     28  C   UNL     1       7.479   7.479  17.446  0.00  0.00    +0.000 A 
ATOM     29  C   UNL     1       6.754   6.522  16.724  0.00  0.00    +0.000 A 
ENDBRANCH  23  24
ENDBRANCH  22  23
ENDBRANCH   2  22
TORSDOF 6
ENDMDL
MODEL 9
REMARK VINA RESULT:      -7.8      3.935      6.625
REMARK  Name = 
REMARK  6 active torsions:
REMARK  status: ('A' for Active; 'I' for Inactive)
REMARK    1  A    between atoms: C_2  and  C_4
REMARK    2  A    between atoms: C_7  and  C_8
REMARK    3  A    between atoms: C_8  and  N_9
REMARK    4  A    between atoms: C_10  and  C_11
REMARK    5  A    between atoms: C_11  and  O_12
REMARK    6  A    between atoms: O_12  and  C_13
REMARK                            x       y       z     vdW  Elec       q    Type
REMARK                         _______ _______ _______ _____ _____    ______ ____
ROOT
ATOM      1  N   UNL     1       0.880   9.877  19.743  0.00  0.00    +0.000 N 
ATOM      2  C   UNL     1       1.496   8.660  20.025  0.00  0.00    +0.000 A 
ATOM      3  N   UNL     1       1.116   8.251  21.227  0.00  0.00    +0.000 NA
ATOM      4  C   UNL     1       0.385   9.269  21.775  0.00  0.00    +0.000 A 
ATOM      5  C   UNL     1      -0.319   9.314  22.986  0.00  0.00    +0.000 A 
ATOM      6  C   UNL     1      -0.926  10.517  23.367  0.00  0.00    +0.000 A 
ATOM      7  C   UNL     1      -0.800  11.657  22.573  0.00  0.00    +0.000 A 
ATOM      8  C   UNL     1      -0.156  11.610  21.329  0.00  0.00    +0.000 A 
ATOM      9  C   UNL     1       0.376  10.374  20.934  0.00  0.00    +0.000 A 
ENDROOT
BRANCH   1  10
ATOM     10  C   UNL     1       0.594  10.473  18.433  0.00  0.00    +0.000 C 
BRANCH  10  14
ATOM     11  C   UNL     1      -3.713  10.876  17.814  0.00  0.00    +0.000 A 
ATOM     12  C   UNL     1      -3.012   9.800  17.257  0.00  0.00    +0.000 A 
ATOM     13  C   UNL     1      -1.617   9.693  17.428  0.00  0.00    +0.000 A 
ATOM     14  C   UNL     1      -0.884  10.691  18.097  0.00  0.00    +0.000 A 
ATOM     15  C   UNL     1      -1.606  11.817  18.510  0.00  0.00    +0.000 A 
ATOM     16  C   UNL     1      -2.994  11.881  18.448  0.00  0.00    +0.000 A 
BRANCH  11  18
ATOM     17  N   UNL     1      -5.684  11.820  16.709  0.00  0.00    +0.000 N 
ATOM     18  C   UNL     1      -5.186  11.068  17.739  0.00  0.00    +0.000 C 
ATOM     19  O   UNL     1      -5.947  10.545  18.537  0.00  0.00    +0.000 OA
ATOM     20  H   UNL     1      -6.688  11.820  16.623  0.00  0.00    +0.000 HD
ATOM     21  H   UNL     1      -5.135  12.052  15.897  0.00  0.00    +0.000 HD
ENDBRANCH  11  18
ENDBRANCH  10  14
ENDBRANCH   1  10
BRANCH   2  22
ATOM     22  C   UNL     1       2.137   7.738  19.018  0.00  0.00    +0.000 C 
BRANCH  22  23
ATOM     23  O   UNL     1       2.838   6.664  19.638  0.00  0.00    +0.000 OA
BRANCH  23  24
ATOM     24  C   UNL     1       2.235   5.433  19.451  0.00  0.00    +0.000 A 
ATOM     25  C   UNL     1       2.040   4.784  18.220  0.00  0.00    +0.000 A 
ATOM     26  C   UNL     1       1.393   3.546  18.162  0.00  0.00    +0.000 A 
ATOM     27  C   UNL     1       0.946   2.938  19.331  0.00  0.00    +0.000 A 
ATOM     28  C   UNL     1       1.138   3.567  20.559  0.00  0.00    +0.000 A 
ATOM     29  C   UNL     1       1.779   4.811  20.611  0.00  0.00    +0.000 A 
ENDBRANCH  23  24
ENDBRANCH  22  23
ENDBRANCH   2  22
TORSDOF 6
ENDMDL
