MODEL 1
REMARK VINA RESULT:      -8.9      0.000      0.000
REMARK  Name = 
REMARK  5 active torsions:
REMARK  status: ('A' for Active; 'I' for Inactive)
REMARK    1  A    between atoms: C_2  and  C_20
REMARK    2  A    between atoms: N_3  and  C_4
REMARK    3  A    between atoms: C_4  and  C_5
REMARK    4  A    between atoms: C_10  and  S_11
REMARK    5  A    between atoms: S_11  and  N_14
REMARK                            x       y       z     vdW  Elec       q    Type
REMARK                         _______ _______ _______ _____ _____    ______ ____
ROOT
ATOM      1  C   UNL     1       2.493   6.251  18.682  0.00  0.00    +0.000 C 
ENDROOT
BRANCH   1   2
ATOM      2  C   UNL     1       2.647   5.023  19.597  0.00  0.00    +0.000 A 
ATOM      3  C   UNL     1       2.147   5.074  20.912  0.00  0.00    +0.000 A 
ATOM      4  C   UNL     1       2.078   3.921  21.727  0.00  0.00    +0.000 A 
ATOM      5  C   UNL     1       2.507   2.688  21.242  0.00  0.00    +0.000 A 
ATOM      6  C   UNL     1       3.015   2.592  19.945  0.00  0.00    +0.000 A 
ATOM      7  C   UNL     1       3.100   3.747  19.122  0.00  0.00    +0.000 A 
BRANCH   7   8
ATOM      8  S   UNL     1       3.666   3.521  17.422  0.00  0.00    +0.000 S 
ATOM      9  O   UNL     1       4.326   2.228  17.429  0.00  0.00    +0.000 OA
ATOM     10  O   UNL     1       2.535   3.794  16.567  0.00  0.00    +0.000 OA
BRANCH   8  11
ATOM     11  N   UNL     1       4.827   4.708  17.073  0.00  0.00    +0.000 NA
ATOM     12  C   UNL     1       5.238   4.957  15.659  0.00  0.00    +0.000 C 
ATOM     13  C   UNL     1       6.676   4.515  15.344  0.00  0.00    +0.000 C 
ATOM     14  O   UNL     1       7.629   4.960  16.313  0.00  0.00    +0.000 OA
ATOM     15  C   UNL     1       7.294   4.514  17.630  0.00  0.00    +0.000 C 
ATOM     16  C   UNL     1       5.906   4.995  18.067  0.00  0.00    +0.000 C 
ENDBRANCH   8  11
ENDBRANCH   7   8
ENDBRANCH   1   2
BRANCH   1  19
ATOM     17  O   UNL     1       2.341   8.891  17.378  0.00  0.00    +0.000 OA
ATOM     18  C   UNL     1       1.889   8.687  18.497  0.00  0.00    +0.000 C 
ATOM     19  N   UNL     1       2.267   7.579  19.289  0.00  0.00    +0.000 N 
ATOM     20  H   UNL     1       1.724   7.571  20.152  0.00  0.00    +0.000 HD
BRANCH  18  21
ATOM     21  C   UNL     1       0.781   9.508  19.083  0.00  0.00    +0.000 A 
ATOM     22  N   UNL     1       0.311  10.569  18.384  0.00  0.00    +0.000 NA
ATOM     23  N   UNL     1      -0.371  11.283  19.295  0.00  0.00    +0.000 N 
ATOM     24  C   UNL     1      -0.303  10.790  20.567  0.00  0.00    +0.000 A 
ATOM     25  C   UNL     1      -0.651  11.363  21.797  0.00  0.00    +0.000 A 
ATOM     26  C   UNL     1      -0.629  10.535  22.920  0.00  0.00    +0.000 A 
ATOM     27  C   UNL     1      -0.336   9.179  22.782  0.00  0.00    +0.000 A 
ATOM     28  C   UNL     1       0.111   8.653  21.549  0.00  0.00    +0.000 A 
ATOM     29  C   UNL     1       0.200   9.499  20.419  0.00  0.00    +0.000 A 
ATOM     30  H   UNL     1      -0.852  12.122  18.997  0.00  0.00    +0.000 HD
ENDBRANCH  18  21
ENDBRANCH   1  19
TORSDOF 5
ENDMDL
MODEL 2
REMARK VINA RESULT:      -8.8      1.876      4.314
REMARK  Name = 
REMARK  5 active torsions:
REMARK  status: ('A' for Active; 'I' for Inactive)
REMARK    1  A    between atoms: C_2  and  C_20
REMARK    2  A    between atoms: N_3  and  C_4
REMARK    3  A    between atoms: C_4  and  C_5
REMARK    4  A    between atoms: C_10  and  S_11
REMARK    5  A    between atoms: S_11  and  N_14
REMARK                            x       y       z     vdW  Elec       q    Type
REMARK                         _______ _______ _______ _____ _____    ______ ____
ROOT
ATOM      1  C   UNL     1       4.055   6.390  18.130  0.00  0.00    +0.000 C 
ENDROOT
BRANCH   1   2
ATOM      2  C   UNL     1       4.611   5.565  16.956  0.00  0.00    +0.000 A 
ATOM      3  C   UNL     1       5.150   6.230  15.839  0.00  0.00    +0.000 A 
ATOM      4  C   UNL     1       5.852   5.535  14.828  0.00  0.00    +0.000 A 
ATOM      5  C   UNL     1       6.033   4.157  14.913  0.00  0.00    +0.000 A 
ATOM      6  C   UNL     1       5.509   3.456  16.002  0.00  0.00    +0.000 A 
ATOM      7  C   UNL     1       4.791   4.143  17.018  0.00  0.00    +0.000 A 
BRANCH   7   8
ATOM      8  S   UNL     1       4.242   3.184  18.445  0.00  0.00    +0.000 S 
ATOM      9  O   UNL     1       3.965   1.863  17.910  0.00  0.00    +0.000 OA
ATOM     10  O   UNL     1       5.216   3.394  19.489  0.00  0.00    +0.000 OA
BRANCH   8  11
ATOM     11  N   UNL     1       2.784   3.841  19.014  0.00  0.00    +0.000 NA
ATOM     12  C   UNL     1       2.556   3.994  20.481  0.00  0.00    +0.000 C 
ATOM     13  C   UNL     1       1.486   3.046  21.045  0.00  0.00    +0.000 C 
ATOM     14  O   UNL     1       0.285   3.024  20.270  0.00  0.00    +0.000 OA
ATOM     15  C   UNL     1       0.539   2.666  18.909  0.00  0.00    +0.000 C 
ATOM     16  C   UNL     1       1.526   3.623  18.234  0.00  0.00    +0.000 C 
ENDBRANCH   8  11
ENDBRANCH   7   8
ENDBRANCH   1   2
BRANCH   1  19
ATOM     17  O   UNL     1       2.199   7.347  20.212  0.00  0.00    +0.000 OA
ATOM     18  C   UNL     1       2.164   7.765  19.062  0.00  0.00    +0.000 C 
ATOM     19  N   UNL     1       2.758   7.082  17.977  0.00  0.00    +0.000 N 
ATOM     20  H   UNL     1       2.665   7.637  17.127  0.00  0.00    +0.000 HD
BRANCH  18  21
ATOM     21  C   UNL     1       1.617   9.115  18.709  0.00  0.00    +0.000 A 
ATOM     22  N   UNL     1       2.147   9.783  17.657  0.00  0.00    +0.000 NA
ATOM     23  N   UNL     1       1.727  11.047  17.829  0.00  0.00    +0.000 N 
ATOM     24  C   UNL     1       1.021  11.258  18.978  0.00  0.00    +0.000 A 
ATOM     25  C   UNL     1       0.644  12.443  19.625  0.00  0.00    +0.000 A 
ATOM     26  C   UNL     1      -0.234  12.333  20.704  0.00  0.00    +0.000 A 
ATOM     27  C   UNL     1      -0.754  11.090  21.058  0.00  0.00    +0.000 A 
ATOM     28  C   UNL     1      -0.277   9.903  20.457  0.00  0.00    +0.000 A 
ATOM     29  C   UNL     1       0.695   9.981  19.432  0.00  0.00    +0.000 A 
ATOM     30  H   UNL     1       1.972  11.742  17.134  0.00  0.00    +0.000 HD
ENDBRANCH  18  21
ENDBRANCH   1  19
TORSDOF 5
ENDMDL
MODEL 3
REMARK VINA RESULT:      -8.6      1.342      1.513
REMARK  Name = 
REMARK  5 active torsions:
REMARK  status: ('A' for Active; 'I' for Inactive)
REMARK    1  A    between atoms: C_2  and  C_20
REMARK    2  A    between atoms: N_3  and  C_4
REMARK    3  A    between atoms: C_4  and  C_5
REMARK    4  A    between atoms: C_10  and  S_11
REMARK    5  A    between atoms: S_11  and  N_14
REMARK                            x       y       z     vdW  Elec       q    Type
REMARK                         _______ _______ _______ _____ _____    ______ ____
ROOT
ATOM      1  C   UNL     1       2.580   6.599  18.731  0.00  0.00    +0.000 C 
ENDROOT
BRANCH   1   2
ATOM      2  C   UNL     1       2.395   5.291  19.520  0.00  0.00    +0.000 A 
ATOM      3  C   UNL     1       1.114   4.942  19.988  0.00  0.00    +0.000 A 
ATOM      4  C   UNL     1       0.845   3.667  20.538  0.00  0.00    +0.000 A 
ATOM      5  C   UNL     1       1.853   2.712  20.632  0.00  0.00    +0.000 A 
ATOM      6  C   UNL     1       3.141   3.018  20.186  0.00  0.00    +0.000 A 
ATOM      7  C   UNL     1       3.425   4.299  19.641  0.00  0.00    +0.000 A 
BRANCH   7   8
ATOM      8  S   UNL     1       5.084   4.579  18.986  0.00  0.00    +0.000 S 
ATOM      9  O   UNL     1       5.580   5.722  19.732  0.00  0.00    +0.000 OA
ATOM     10  O   UNL     1       5.761   3.304  19.008  0.00  0.00    +0.000 OA
BRANCH   8  11
ATOM     11  N   UNL     1       4.957   5.025  17.354  0.00  0.00    +0.000 NA
ATOM     12  C   UNL     1       4.720   3.983  16.312  0.00  0.00    +0.000 C 
ATOM     13  C   UNL     1       5.922   3.749  15.384  0.00  0.00    +0.000 C 
ATOM     14  O   UNL     1       6.489   4.959  14.877  0.00  0.00    +0.000 OA
ATOM     15  C   UNL     1       6.891   5.838  15.930  0.00  0.00    +0.000 C 
ATOM     16  C   UNL     1       5.726   6.206  16.853  0.00  0.00    +0.000 C 
ENDBRANCH   8  11
ENDBRANCH   7   8
ENDBRANCH   1   2
BRANCH   1  19
ATOM     17  O   UNL     1       2.131   9.228  17.473  0.00  0.00    +0.000 OA
ATOM     18  C   UNL     1       1.703   8.953  18.587  0.00  0.00    +0.000 C 
ATOM     19  N   UNL     1       2.203   7.881  19.360  0.00  0.00    +0.000 N 
ATOM     20  H   UNL     1       1.663   7.796  20.220  0.00  0.00    +0.000 HD
BRANCH  18  21
ATOM     21  C   UNL     1       0.507   9.633  19.183  0.00  0.00    +0.000 A 
ATOM     22  N   UNL     1      -0.172  10.537  18.438  0.00  0.00    +0.000 NA
ATOM     23  N   UNL     1      -0.912  11.208  19.336  0.00  0.00    +0.000 N 
ATOM     24  C   UNL     1      -0.692  10.848  20.634  0.00  0.00    +0.000 A 
ATOM     25  C   UNL     1      -1.061  11.463  21.838  0.00  0.00    +0.000 A 
ATOM     26  C   UNL     1      -0.838  10.751  23.017  0.00  0.00    +0.000 A 
ATOM     27  C   UNL     1      -0.330   9.454  22.965  0.00  0.00    +0.000 A 
ATOM     28  C   UNL     1       0.130   8.901  21.749  0.00  0.00    +0.000 A 
ATOM     29  C   UNL     1       0.012   9.647  20.552  0.00  0.00    +0.000 A 
ATOM     30  H   UNL     1      -1.543  11.929  19.007  0.00  0.00    +0.000 HD
ENDBRANCH  18  21
ENDBRANCH   1  19
TORSDOF 5
ENDMDL
MODEL 4
REMARK VINA RESULT:      -8.5      2.064      4.149
REMARK  Name = 
REMARK  5 active torsions:
REMARK  status: ('A' for Active; 'I' for Inactive)
REMARK    1  A    between atoms: C_2  and  C_20
REMARK    2  A    between atoms: N_3  and  C_4
REMARK    3  A    between atoms: C_4  and  C_5
REMARK    4  A    between atoms: C_10  and  S_11
REMARK    5  A    between atoms: S_11  and  N_14
REMARK                            x       y       z     vdW  Elec       q    Type
REMARK                         _______ _______ _______ _____ _____    ______ ____
ROOT
ATOM      1  C   UNL     1       3.832   6.538  18.264  0.00  0.00    +0.000 C 
ENDROOT
BRANCH   1   2
ATOM      2  C   UNL     1       4.416   5.674  17.132  0.00  0.00    +0.000 A 
ATOM      3  C   UNL     1       5.547   6.130  16.429  0.00  0.00    +0.000 A 
ATOM      4  C   UNL     1       6.245   5.298  15.524  0.00  0.00    +0.000 A 
ATOM      5  C   UNL     1       5.827   3.989  15.302  0.00  0.00    +0.000 A 
ATOM      6  C   UNL     1       4.704   3.497  15.973  0.00  0.00    +0.000 A 
ATOM      7  C   UNL     1       3.989   4.329  16.876  0.00  0.00    +0.000 A 
BRANCH   7   8
ATOM      8  S   UNL     1       2.617   3.586  17.786  0.00  0.00    +0.000 S 
ATOM      9  O   UNL     1       1.451   4.340  17.363  0.00  0.00    +0.000 OA
ATOM     10  O   UNL     1       2.713   2.159  17.592  0.00  0.00    +0.000 OA
BRANCH   8  11
ATOM     11  N   UNL     1       2.853   3.859  19.444  0.00  0.00    +0.000 NA
ATOM     12  C   UNL     1       4.019   3.244  20.144  0.00  0.00    +0.000 C 
ATOM     13  C   UNL     1       3.633   2.138  21.139  0.00  0.00    +0.000 C 
ATOM     14  O   UNL     1       2.563   2.511  22.011  0.00  0.00    +0.000 OA
ATOM     15  C   UNL     1       1.395   2.896  21.282  0.00  0.00    +0.000 C 
ATOM     16  C   UNL     1       1.666   4.066  20.331  0.00  0.00    +0.000 C 
ENDBRANCH   8  11
ENDBRANCH   7   8
ENDBRANCH   1   2
BRANCH   1  19
ATOM     17  O   UNL     1       1.904   7.629  20.210  0.00  0.00    +0.000 OA
ATOM     18  C   UNL     1       1.973   8.037  19.057  0.00  0.00    +0.000 C 
ATOM     19  N   UNL     1       2.594   7.307  18.019  0.00  0.00    +0.000 N 
ATOM     20  H   UNL     1       2.592   7.858  17.162  0.00  0.00    +0.000 HD
BRANCH  18  21
ATOM     21  C   UNL     1       1.536   9.415  18.660  0.00  0.00    +0.000 A 
ATOM     22  N   UNL     1       2.223  10.067  17.693  0.00  0.00    +0.000 NA
ATOM     23  N   UNL     1       1.843  11.348  17.831  0.00  0.00    +0.000 N 
ATOM     24  C   UNL     1       1.011  11.581  18.887  0.00  0.00    +0.000 A 
ATOM     25  C   UNL     1       0.611  12.776  19.501  0.00  0.00    +0.000 A 
ATOM     26  C   UNL     1      -0.398  12.698  20.461  0.00  0.00    +0.000 A 
ATOM     27  C   UNL     1      -1.015  11.477  20.729  0.00  0.00    +0.000 A 
ATOM     28  C   UNL     1      -0.522  10.275  20.172  0.00  0.00    +0.000 A 
ATOM     29  C   UNL     1       0.572  10.316  19.277  0.00  0.00    +0.000 A 
ATOM     30  H   UNL     1       2.205  12.037  17.183  0.00  0.00    +0.000 HD
ENDBRANCH  18  21
ENDBRANCH   1  19
TORSDOF 5
ENDMDL
MODEL 5
REMARK VINA RESULT:      -8.5      1.469      1.821
REMARK  Name = 
REMARK  5 active torsions:
REMARK  status: ('A' for Active; 'I' for Inactive)
REMARK    1  A    between atoms: C_2  and  C_20
REMARK    2  A    between atoms: N_3  and  C_4
REMARK    3  A    between atoms: C_4  and  C_5
REMARK    4  A    between atoms: C_10  and  S_11
REMARK    5  A    between atoms: S_11  and  N_14
REMARK                            x       y       z     vdW  Elec       q    Type
REMARK                         _______ _______ _______ _____ _____    ______ ____
ROOT
ATOM      1  C   UNL     1       2.396   6.555  18.497  0.00  0.00    +0.000 C 
ENDROOT
BRANCH   1   2
ATOM      2  C   UNL     1       2.586   5.256  19.299  0.00  0.00    +0.000 A 
ATOM      3  C   UNL     1       1.457   4.575  19.789  0.00  0.00    +0.000 A 
ATOM      4  C   UNL     1       1.555   3.282  20.353  0.00  0.00    +0.000 A 
ATOM      5  C   UNL     1       2.787   2.641  20.439  0.00  0.00    +0.000 A 
ATOM      6  C   UNL     1       3.936   3.283  19.971  0.00  0.00    +0.000 A 
ATOM      7  C   UNL     1       3.850   4.587  19.412  0.00  0.00    +0.000 A 
BRANCH   7   8
ATOM      8  S   UNL     1       5.361   5.303  18.730  0.00  0.00    +0.000 S 
ATOM      9  O   UNL     1       4.933   6.562  18.146  0.00  0.00    +0.000 OA
ATOM     10  O   UNL     1       6.357   5.247  19.774  0.00  0.00    +0.000 OA
BRANCH   8  11
ATOM     11  N   UNL     1       5.922   4.302  17.481  0.00  0.00    +0.000 NA
ATOM     12  C   UNL     1       7.308   4.472  16.953  0.00  0.00    +0.000 C 
ATOM     13  C   UNL     1       7.362   5.032  15.523  0.00  0.00    +0.000 C 
ATOM     14  O   UNL     1       6.475   4.366  14.621  0.00  0.00    +0.000 OA
ATOM     15  C   UNL     1       5.121   4.415  15.077  0.00  0.00    +0.000 C 
ATOM     16  C   UNL     1       4.955   3.784  16.464  0.00  0.00    +0.000 C 
ENDBRANCH   8  11
ENDBRANCH   7   8
ENDBRANCH   1   2
BRANCH   1  19
ATOM     17  O   UNL     1       2.218   9.303  17.442  0.00  0.00    +0.000 OA
ATOM     18  C   UNL     1       1.741   8.985  18.524  0.00  0.00    +0.000 C 
ATOM     19  N   UNL     1       2.123   7.816  19.219  0.00  0.00    +0.000 N 
ATOM     20  H   UNL     1       1.557   7.715  20.061  0.00  0.00    +0.000 HD
BRANCH  18  21
ATOM     21  C   UNL     1       0.599   9.725  19.152  0.00  0.00    +0.000 A 
ATOM     22  N   UNL     1       0.052  10.772  18.489  0.00  0.00    +0.000 NA
ATOM     23  N   UNL     1      -0.652  11.422  19.430  0.00  0.00    +0.000 N 
ATOM     24  C   UNL     1      -0.527  10.905  20.687  0.00  0.00    +0.000 A 
ATOM     25  C   UNL     1      -0.882  11.428  21.939  0.00  0.00    +0.000 A 
ATOM     26  C   UNL     1      -0.786  10.577  23.040  0.00  0.00    +0.000 A 
ATOM     27  C   UNL     1      -0.416   9.244  22.864  0.00  0.00    +0.000 A 
ATOM     28  C   UNL     1       0.035   8.774  21.609  0.00  0.00    +0.000 A 
ATOM     29  C   UNL     1       0.049   9.650  20.498  0.00  0.00    +0.000 A 
ATOM     30  H   UNL     1      -1.189  12.238  19.162  0.00  0.00    +0.000 HD
ENDBRANCH  18  21
ENDBRANCH   1  19
TORSDOF 5
ENDMDL
MODEL 6
REMARK VINA RESULT:      -8.4      1.252      1.252
REMARK  Name = 
REMARK  5 active torsions:
REMARK  status: ('A' for Active; 'I' for Inactive)
REMARK    1  A    between atoms: C_2  and  C_20
REMARK    2  A    between atoms: N_3  and  C_4
REMARK    3  A    between atoms: C_4  and  C_5
REMARK    4  A    between atoms: C_10  and  S_11
REMARK    5  A    between atoms: S_11  and  N_14
REMARK                            x       y       z     vdW  Elec       q    Type
REMARK                         _______ _______ _______ _____ _____    ______ ____
ROOT
ATOM      1  C   UNL     1       2.405   6.449  18.610  0.00  0.00    +0.000 C 
ENDROOT
BRANCH   1   2
ATOM      2  C   UNL     1       2.332   5.155  19.440  0.00  0.00    +0.000 A 
ATOM      3  C   UNL     1       1.219   4.929  20.270  0.00  0.00    +0.000 A 
ATOM      4  C   UNL     1       1.000   3.680  20.896  0.00  0.00    +0.000 A 
ATOM      5  C   UNL     1       1.891   2.628  20.703  0.00  0.00    +0.000 A 
ATOM      6  C   UNL     1       3.013   2.810  19.892  0.00  0.00    +0.000 A 
ATOM      7  C   UNL     1       3.249   4.065  19.268  0.00  0.00    +0.000 A 
BRANCH   7   8
ATOM      8  S   UNL     1       4.661   4.187  18.148  0.00  0.00    +0.000 S 
ATOM      9  O   UNL     1       5.522   3.083  18.529  0.00  0.00    +0.000 OA
ATOM     10  O   UNL     1       4.124   4.310  16.814  0.00  0.00    +0.000 OA
BRANCH   8  11
ATOM     11  N   UNL     1       5.484   5.636  18.467  0.00  0.00    +0.000 NA
ATOM     12  C   UNL     1       5.732   6.612  17.365  0.00  0.00    +0.000 C 
ATOM     13  C   UNL     1       7.210   6.729  16.961  0.00  0.00    +0.000 C 
ATOM     14  O   UNL     1       8.091   6.876  18.077  0.00  0.00    +0.000 OA
ATOM     15  C   UNL     1       7.957   5.797  19.005  0.00  0.00    +0.000 C 
ATOM     16  C   UNL     1       6.527   5.668  19.539  0.00  0.00    +0.000 C 
ENDBRANCH   8  11
ENDBRANCH   7   8
ENDBRANCH   1   2
BRANCH   1  19
ATOM     17  O   UNL     1       2.219   9.141  17.421  0.00  0.00    +0.000 OA
ATOM     18  C   UNL     1       1.772   8.884  18.532  0.00  0.00    +0.000 C 
ATOM     19  N   UNL     1       2.165   7.747  19.274  0.00  0.00    +0.000 N 
ATOM     20  H   UNL     1       1.625   7.695  20.137  0.00  0.00    +0.000 HD
BRANCH  18  21
ATOM     21  C   UNL     1       0.657   9.666  19.156  0.00  0.00    +0.000 A 
ATOM     22  N   UNL     1       0.173  10.750  18.505  0.00  0.00    +0.000 NA
ATOM     23  N   UNL     1      -0.515  11.416  19.447  0.00  0.00    +0.000 N 
ATOM     24  C   UNL     1      -0.437  10.870  20.696  0.00  0.00    +0.000 A 
ATOM     25  C   UNL     1      -0.787  11.386  21.951  0.00  0.00    +0.000 A 
ATOM     26  C   UNL     1      -0.751  10.510  23.037  0.00  0.00    +0.000 A 
ATOM     27  C   UNL     1      -0.443   9.165  22.841  0.00  0.00    +0.000 A 
ATOM     28  C   UNL     1       0.006   8.698  21.585  0.00  0.00    +0.000 A 
ATOM     29  C   UNL     1       0.081   9.592  20.491  0.00  0.00    +0.000 A 
ATOM     30  H   UNL     1      -1.007  12.262  19.187  0.00  0.00    +0.000 HD
ENDBRANCH  18  21
ENDBRANCH   1  19
TORSDOF 5
ENDMDL
MODEL 7
REMARK VINA RESULT:      -8.4      0.773      1.265
REMARK  Name = 
REMARK  5 active torsions:
REMARK  status: ('A' for Active; 'I' for Inactive)
REMARK    1  A    between atoms: C_2  and  C_20
REMARK    2  A    between atoms: N_3  and  C_4
REMARK    3  A    between atoms: C_4  and  C_5
REMARK    4  A    between atoms: C_10  and  S_11
REMARK    5  A    between atoms: S_11  and  N_14
REMARK                            x       y       z     vdW  Elec       q    Type
REMARK                         _______ _______ _______ _____ _____    ______ ____
ROOT
ATOM      1  C   UNL     1       2.434   6.039  18.739  0.00  0.00    +0.000 C 
ENDROOT
BRANCH   1   2
ATOM      2  C   UNL     1       2.593   4.848  19.700  0.00  0.00    +0.000 A 
ATOM      3  C   UNL     1       2.171   4.978  21.036  0.00  0.00    +0.000 A 
ATOM      4  C   UNL     1       2.105   3.865  21.906  0.00  0.00    +0.000 A 
ATOM      5  C   UNL     1       2.458   2.596  21.457  0.00  0.00    +0.000 A 
ATOM      6  C   UNL     1       2.889   2.422  20.140  0.00  0.00    +0.000 A 
ATOM      7  C   UNL     1       2.970   3.535  19.261  0.00  0.00    +0.000 A 
BRANCH   7   8
ATOM      8  S   UNL     1       3.430   3.211  17.545  0.00  0.00    +0.000 S 
ATOM      9  O   UNL     1       3.655   1.778  17.494  0.00  0.00    +0.000 OA
ATOM     10  O   UNL     1       2.438   3.857  16.719  0.00  0.00    +0.000 OA
BRANCH   8  11
ATOM     11  N   UNL     1       4.903   3.990  17.220  0.00  0.00    +0.000 NA
ATOM     12  C   UNL     1       5.865   4.259  18.328  0.00  0.00    +0.000 C 
ATOM     13  C   UNL     1       6.008   5.748  18.678  0.00  0.00    +0.000 C 
ATOM     14  O   UNL     1       6.194   6.583  17.532  0.00  0.00    +0.000 OA
ATOM     15  C   UNL     1       5.127   6.437  16.592  0.00  0.00    +0.000 C 
ATOM     16  C   UNL     1       4.975   4.991  16.110  0.00  0.00    +0.000 C 
ENDBRANCH   8  11
ENDBRANCH   7   8
ENDBRANCH   1   2
BRANCH   1  19
ATOM     17  O   UNL     1       2.462   8.622  17.317  0.00  0.00    +0.000 OA
ATOM     18  C   UNL     1       2.056   8.512  18.466  0.00  0.00    +0.000 C 
ATOM     19  N   UNL     1       2.370   7.408  19.291  0.00  0.00    +0.000 N 
ATOM     20  H   UNL     1       1.879   7.491  20.180  0.00  0.00    +0.000 HD
BRANCH  18  21
ATOM     21  C   UNL     1       1.067   9.464  19.068  0.00  0.00    +0.000 A 
ATOM     22  N   UNL     1       0.861  10.661  18.470  0.00  0.00    +0.000 NA
ATOM     23  N   UNL     1       0.240  11.393  19.409  0.00  0.00    +0.000 N 
ATOM     24  C   UNL     1       0.104  10.767  20.615  0.00  0.00    +0.000 A 
ATOM     25  C   UNL     1      -0.244  11.265  21.878  0.00  0.00    +0.000 A 
ATOM     26  C   UNL     1      -0.472  10.335  22.893  0.00  0.00    +0.000 A 
ATOM     27  C   UNL     1      -0.417   8.970  22.617  0.00  0.00    +0.000 A 
ATOM     28  C   UNL     1       0.036   8.499  21.363  0.00  0.00    +0.000 A 
ATOM     29  C   UNL     1       0.377   9.426  20.350  0.00  0.00    +0.000 A 
ATOM     30  H   UNL     1      -0.053  12.334  19.180  0.00  0.00    +0.000 HD
ENDBRANCH  18  21
ENDBRANCH   1  19
TORSDOF 5
ENDMDL
MODEL 8
REMARK VINA RESULT:      -8.4      1.929      2.464
REMARK  Name = 
REMARK  5 active torsions:
REMARK  status: ('A' for Active; 'I' for Inactive)
REMARK    1  A    between atoms: C_2  and  C_20
REMARK    2  A    between atoms: N_3  and  C_4
REMARK    3  A    between atoms: C_4  and  C_5
REMARK    4  A    between atoms: C_10  and  S_11
REMARK    5  A    between atoms: S_11  and  N_14
REMARK                            x       y       z     vdW  Elec       q    Type
REMARK                         _______ _______ _______ _____ _____    ______ ____
ROOT
ATOM      1  C   UNL     1       2.150   5.977  17.924  0.00  0.00    +0.000 C 
ENDROOT
BRANCH   1   2
ATOM      2  C   UNL     1       2.114   4.543  18.481  0.00  0.00    +0.000 A 
ATOM      3  C   UNL     1       0.919   3.804  18.410  0.00  0.00    +0.000 A 
ATOM      4  C   UNL     1       0.878   2.425  18.717  0.00  0.00    +0.000 A 
ATOM      5  C   UNL     1       2.034   1.753  19.102  0.00  0.00    +0.000 A 
ATOM      6  C   UNL     1       3.242   2.449  19.192  0.00  0.00    +0.000 A 
ATOM      7  C   UNL     1       3.292   3.838  18.896  0.00  0.00    +0.000 A 
BRANCH   7   8
ATOM      8  S   UNL     1       4.910   4.640  18.929  0.00  0.00    +0.000 S 
ATOM      9  O   UNL     1       4.750   5.739  19.865  0.00  0.00    +0.000 OA
ATOM     10  O   UNL     1       5.887   3.598  19.136  0.00  0.00    +0.000 OA
BRANCH   8  11
ATOM     11  N   UNL     1       5.225   5.292  17.395  0.00  0.00    +0.000 NA
ATOM     12  C   UNL     1       5.594   4.393  16.262  0.00  0.00    +0.000 C 
ATOM     13  C   UNL     1       7.054   4.539  15.805  0.00  0.00    +0.000 C 
ATOM     14  O   UNL     1       7.455   5.898  15.621  0.00  0.00    +0.000 OA
ATOM     15  C   UNL     1       7.271   6.671  16.810  0.00  0.00    +0.000 C 
ATOM     16  C   UNL     1       5.815   6.662  17.286  0.00  0.00    +0.000 C 
ENDBRANCH   8  11
ENDBRANCH   7   8
ENDBRANCH   1   2
BRANCH   1  19
ATOM     17  O   UNL     1       2.321   8.861  17.336  0.00  0.00    +0.000 OA
ATOM     18  C   UNL     1       2.087   8.435  18.460  0.00  0.00    +0.000 C 
ATOM     19  N   UNL     1       2.366   7.107  18.852  0.00  0.00    +0.000 N 
ATOM     20  H   UNL     1       2.035   6.951  19.803  0.00  0.00    +0.000 HD
BRANCH  18  21
ATOM     21  C   UNL     1       1.347   9.234  19.489  0.00  0.00    +0.000 A 
ATOM     22  N   UNL     1       0.887   8.609  20.598  0.00  0.00    +0.000 NA
ATOM     23  N   UNL     1      -0.012   9.468  21.108  0.00  0.00    +0.000 N 
ATOM     24  C   UNL     1      -0.224  10.581  20.348  0.00  0.00    +0.000 A 
ATOM     25  C   UNL     1      -1.230  11.556  20.400  0.00  0.00    +0.000 A 
ATOM     26  C   UNL     1      -1.076  12.681  19.591  0.00  0.00    +0.000 A 
ATOM     27  C   UNL     1       0.077  12.838  18.823  0.00  0.00    +0.000 A 
ATOM     28  C   UNL     1       1.023  11.794  18.710  0.00  0.00    +0.000 A 
ATOM     29  C   UNL     1       0.834  10.597  19.440  0.00  0.00    +0.000 A 
ATOM     30  H   UNL     1      -0.475   9.231  21.976  0.00  0.00    +0.000 HD
ENDBRANCH  18  21
ENDBRANCH   1  19
TORSDOF 5
ENDMDL
MODEL 9
REMARK VINA RESULT:      -8.3      1.872      3.601
REMARK  Name = 
REMARK  5 active torsions:
REMARK  status: ('A' for Active; 'I' for Inactive)
REMARK    1  A    between atoms: C_2  and  C_20
REMARK    2  A    between atoms: N_3  and  C_4
REMARK    3  A    between atoms: C_4  and  C_5
REMARK    4  A    between atoms: C_10  and  S_11
REMARK    5  A    between atoms: S_11  and  N_14
REMARK                            x       y       z     vdW  Elec       q    Type
REMARK                         _______ _______ _______ _____ _____    ______ ____
ROOT
ATOM      1  C   UNL     1       2.233   6.832  17.657  0.00  0.00    +0.000 C 
ENDROOT
BRANCH   1   2
ATOM      2  C   UNL     1       3.511   5.980  17.733  0.00  0.00    +0.000 A 
ATOM      3  C   UNL     1       4.759   6.617  17.874  0.00  0.00    +0.000 A 
ATOM      4  C   UNL     1       5.939   5.888  18.150  0.00  0.00    +0.000 A 
ATOM      5  C   UNL     1       5.896   4.504  18.294  0.00  0.00    +0.000 A 
ATOM      6  C   UNL     1       4.681   3.830  18.155  0.00  0.00    +0.000 A 
ATOM      7  C   UNL     1       3.491   4.551  17.866  0.00  0.00    +0.000 A 
BRANCH   7   8
ATOM      8  S   UNL     1       1.944   3.622  17.812  0.00  0.00    +0.000 S 
ATOM      9  O   UNL     1       1.029   4.482  17.084  0.00  0.00    +0.000 OA
ATOM     10  O   UNL     1       2.272   2.294  17.350  0.00  0.00    +0.000 OA
BRANCH   8  11
ATOM     11  N   UNL     1       1.359   3.446  19.395  0.00  0.00    +0.000 NA
ATOM     12  C   UNL     1       1.177   4.647  20.262  0.00  0.00    +0.000 C 
ATOM     13  C   UNL     1       2.171   4.725  21.431  0.00  0.00    +0.000 C 
ATOM     14  O   UNL     1       2.288   3.499  22.156  0.00  0.00    +0.000 OA
ATOM     15  C   UNL     1       2.670   2.415  21.306  0.00  0.00    +0.000 C 
ATOM     16  C   UNL     1       1.675   2.200  20.161  0.00  0.00    +0.000 C 
ENDBRANCH   8  11
ENDBRANCH   7   8
ENDBRANCH   1   2
BRANCH   1  19
ATOM     17  O   UNL     1       2.301   9.766  17.374  0.00  0.00    +0.000 OA
ATOM     18  C   UNL     1       1.737   9.212  18.309  0.00  0.00    +0.000 C 
ATOM     19  N   UNL     1       1.997   7.873  18.679  0.00  0.00    +0.000 N 
ATOM     20  H   UNL     1       1.375   7.598  19.438  0.00  0.00    +0.000 HD
BRANCH  18  21
ATOM     21  C   UNL     1       0.608   9.847  19.063  0.00  0.00    +0.000 A 
ATOM     22  N   UNL     1      -0.010  10.928  18.531  0.00  0.00    +0.000 NA
ATOM     23  N   UNL     1      -0.680  11.462  19.566  0.00  0.00    +0.000 N 
ATOM     24  C   UNL     1      -0.467  10.838  20.761  0.00  0.00    +0.000 A 
ATOM     25  C   UNL     1      -0.768  11.229  22.073  0.00  0.00    +0.000 A 
ATOM     26  C   UNL     1      -0.581  10.285  23.083  0.00  0.00    +0.000 A 
ATOM     27  C   UNL     1      -0.178   8.990  22.763  0.00  0.00    +0.000 A 
ATOM     28  C   UNL     1       0.217   8.654  21.448  0.00  0.00    +0.000 A 
ATOM     29  C   UNL     1       0.138   9.628  20.424  0.00  0.00    +0.000 A 
ATOM     30  H   UNL     1      -1.258  12.278  19.404  0.00  0.00    +0.000 HD
ENDBRANCH  18  21
ENDBRANCH   1  19
TORSDOF 5
ENDMDL
