MODEL 1
REMARK VINA RESULT:      -8.5      0.000      0.000
REMARK  Name = 
REMARK  6 active torsions:
REMARK  status: ('A' for Active; 'I' for Inactive)
REMARK    1  A    between atoms: C_2  and  C_5
REMARK    2  A    between atoms: C_11  and  C_12
REMARK    3  A    between atoms: C_12  and  N_13
REMARK    4  A    between atoms: N_13  and  C_14
REMARK    5  A    between atoms: C_14  and  C_15
REMARK    6  A    between atoms: C_18  and  C_19
REMARK                            x       y       z     vdW  Elec       q    Type
REMARK                         _______ _______ _______ _____ _____    ______ ____
ROOT
ATOM      1  N   UNL     1       4.970   7.307  17.515  0.00  0.00    +0.000 NA
ATOM      2  H   UNL     1       5.454   7.434  16.622  0.00  0.00    +0.000 HD
ENDROOT
BRANCH   1   3
ATOM      3  C   UNL     1       5.590   6.191  18.232  0.00  0.00    +0.000 C 
BRANCH   3  10
ATOM      4  C   UNL     1       2.584   3.228  19.856  0.00  0.00    +0.000 A 
ATOM      5  C   UNL     1       2.487   2.038  19.001  0.00  0.00    +0.000 A 
ATOM      6  C   UNL     1       3.205   1.917  17.866  0.00  0.00    +0.000 A 
ATOM      7  C   UNL     1       4.087   2.958  17.478  0.00  0.00    +0.000 A 
ATOM      8  N   UNL     1       4.896   3.099  16.453  0.00  0.00    +0.000 NA
ATOM      9  N   UNL     1       5.542   4.303  16.591  0.00  0.00    +0.000 NA
ATOM     10  C   UNL     1       5.117   4.882  17.699  0.00  0.00    +0.000 A 
ATOM     11  N   UNL     1       4.168   4.076  18.297  0.00  0.00    +0.000 N 
ATOM     12  C   UNL     1       3.421   4.217  19.466  0.00  0.00    +0.000 A 
BRANCH   4  14
ATOM     13  F   UNL     1       2.410   3.991  22.111  0.00  0.00    +0.000 F 
ATOM     14  C   UNL     1       1.789   3.287  21.130  0.00  0.00    +0.000 C 
ATOM     15  F   UNL     1       1.550   2.047  21.628  0.00  0.00    +0.000 F 
ATOM     16  F   UNL     1       0.579   3.872  20.936  0.00  0.00    +0.000 F 
ENDBRANCH   4  14
ENDBRANCH   3  10
ENDBRANCH   1   3
BRANCH   1  17
ATOM     17  C   UNL     1       3.559   7.039  17.226  0.00  0.00    +0.000 C 
BRANCH  17  18
ATOM     18  C   UNL     1       2.674   7.752  18.219  0.00  0.00    +0.000 A 
ATOM     19  C   UNL     1       2.434   7.243  19.499  0.00  0.00    +0.000 A 
ATOM     20  C   UNL     1       1.605   7.931  20.401  0.00  0.00    +0.000 A 
ATOM     21  C   UNL     1       0.993   9.153  20.058  0.00  0.00    +0.000 A 
ATOM     22  C   UNL     1       1.258   9.648  18.770  0.00  0.00    +0.000 A 
ATOM     23  C   UNL     1       2.074   8.963  17.863  0.00  0.00    +0.000 A 
BRANCH  21  24
ATOM     24  C   UNL     1       0.130   9.914  20.999  0.00  0.00    +0.000 A 
ATOM     25  C   UNL     1      -0.113   9.480  22.315  0.00  0.00    +0.000 A 
ATOM     26  C   UNL     1      -0.864  10.251  23.214  0.00  0.00    +0.000 A 
ATOM     27  C   UNL     1      -1.385  11.478  22.821  0.00  0.00    +0.000 A 
ATOM     28  C   UNL     1      -1.185  11.923  21.521  0.00  0.00    +0.000 A 
ATOM     29  C   UNL     1      -0.450  11.142  20.621  0.00  0.00    +0.000 A 
ENDBRANCH  21  24
ENDBRANCH  17  18
ENDBRANCH   1  17
TORSDOF 6
ENDMDL
MODEL 2
REMARK VINA RESULT:      -8.5      4.148      5.138
REMARK  Name = 
REMARK  6 active torsions:
REMARK  status: ('A' for Active; 'I' for Inactive)
REMARK    1  A    between atoms: C_2  and  C_5
REMARK    2  A    between atoms: C_11  and  C_12
REMARK    3  A    between atoms: C_12  and  N_13
REMARK    4  A    between atoms: N_13  and  C_14
REMARK    5  A    between atoms: C_14  and  C_15
REMARK    6  A    between atoms: C_18  and  C_19
REMARK                            x       y       z     vdW  Elec       q    Type
REMARK                         _______ _______ _______ _____ _____    ______ ____
ROOT
ATOM      1  N   UNL     1       3.889   4.867  18.153  0.00  0.00    +0.000 NA
ATOM      2  H   UNL     1       4.607   5.027  18.864  0.00  0.00    +0.000 HD
ENDROOT
BRANCH   1   3
ATOM      3  C   UNL     1       4.374   3.852  17.216  0.00  0.00    +0.000 C 
BRANCH   3  10
ATOM      4  C   UNL     1       5.425   3.779  12.817  0.00  0.00    +0.000 A 
ATOM      5  C   UNL     1       6.771   4.317  12.578  0.00  0.00    +0.000 A 
ATOM      6  C   UNL     1       7.536   4.791  13.581  0.00  0.00    +0.000 A 
ATOM      7  C   UNL     1       7.044   4.770  14.911  0.00  0.00    +0.000 A 
ATOM      8  N   UNL     1       7.565   5.149  16.056  0.00  0.00    +0.000 NA
ATOM      9  N   UNL     1       6.652   4.871  17.044  0.00  0.00    +0.000 NA
ATOM     10  C   UNL     1       5.585   4.328  16.488  0.00  0.00    +0.000 A 
ATOM     11  N   UNL     1       5.770   4.259  15.121  0.00  0.00    +0.000 N 
ATOM     12  C   UNL     1       4.965   3.777  14.090  0.00  0.00    +0.000 A 
BRANCH   4  14
ATOM     13  F   UNL     1       4.554   4.088  10.616  0.00  0.00    +0.000 F 
ATOM     14  C   UNL     1       4.636   3.228  11.664  0.00  0.00    +0.000 C 
ATOM     15  F   UNL     1       3.362   2.931  12.027  0.00  0.00    +0.000 F 
ATOM     16  F   UNL     1       5.184   2.081  11.186  0.00  0.00    +0.000 F 
ENDBRANCH   4  14
ENDBRANCH   3  10
ENDBRANCH   1   3
BRANCH   1  17
ATOM     17  C   UNL     1       3.636   6.142  17.477  0.00  0.00    +0.000 C 
BRANCH  17  18
ATOM     18  C   UNL     1       2.811   7.049  18.356  0.00  0.00    +0.000 A 
ATOM     19  C   UNL     1       2.292   8.261  17.890  0.00  0.00    +0.000 A 
ATOM     20  C   UNL     1       1.526   9.085  18.733  0.00  0.00    +0.000 A 
ATOM     21  C   UNL     1       1.246   8.722  20.066  0.00  0.00    +0.000 A 
ATOM     22  C   UNL     1       1.770   7.495  20.505  0.00  0.00    +0.000 A 
ATOM     23  C   UNL     1       2.543   6.675  19.675  0.00  0.00    +0.000 A 
BRANCH  21  24
ATOM     24  C   UNL     1       0.420   9.561  20.973  0.00  0.00    +0.000 A 
ATOM     25  C   UNL     1       0.060   9.141  22.266  0.00  0.00    +0.000 A 
ATOM     26  C   UNL     1      -0.652   9.978  23.137  0.00  0.00    +0.000 A 
ATOM     27  C   UNL     1      -1.016  11.259  22.738  0.00  0.00    +0.000 A 
ATOM     28  C   UNL     1      -0.698  11.695  21.459  0.00  0.00    +0.000 A 
ATOM     29  C   UNL     1      -0.003  10.850  20.586  0.00  0.00    +0.000 A 
ENDBRANCH  21  24
ENDBRANCH  17  18
ENDBRANCH   1  17
TORSDOF 6
ENDMDL
MODEL 3
REMARK VINA RESULT:      -8.4      0.266      1.308
REMARK  Name = 
REMARK  6 active torsions:
REMARK  status: ('A' for Active; 'I' for Inactive)
REMARK    1  A    between atoms: C_2  and  C_5
REMARK    2  A    between atoms: C_11  and  C_12
REMARK    3  A    between atoms: C_12  and  N_13
REMARK    4  A    between atoms: N_13  and  C_14
REMARK    5  A    between atoms: C_14  and  C_15
REMARK    6  A    between atoms: C_18  and  C_19
REMARK                            x       y       z     vdW  Elec       q    Type
REMARK                         _______ _______ _______ _____ _____    ______ ____
ROOT
ATOM      1  N   UNL     1       4.929   7.238  17.393  0.00  0.00    +0.000 NA
ATOM      2  H   UNL     1       5.371   7.329  16.474  0.00  0.00    +0.000 HD
ENDROOT
BRANCH   1   3
ATOM      3  C   UNL     1       5.569   6.137  18.115  0.00  0.00    +0.000 C 
BRANCH   3  10
ATOM      4  C   UNL     1       2.425   3.363  19.812  0.00  0.00    +0.000 A 
ATOM      5  C   UNL     1       2.309   2.134  19.017  0.00  0.00    +0.000 A 
ATOM      6  C   UNL     1       3.049   1.930  17.909  0.00  0.00    +0.000 A 
ATOM      7  C   UNL     1       3.976   2.920  17.491  0.00  0.00    +0.000 A 
ATOM      8  N   UNL     1       4.813   2.980  16.481  0.00  0.00    +0.000 NA
ATOM      9  N   UNL     1       5.496   4.168  16.574  0.00  0.00    +0.000 NA
ATOM     10  C   UNL     1       5.064   4.818  17.639  0.00  0.00    +0.000 A 
ATOM     11  N   UNL     1       4.074   4.076  18.253  0.00  0.00    +0.000 N 
ATOM     12  C   UNL     1       3.305   4.303  19.394  0.00  0.00    +0.000 A 
BRANCH   4  14
ATOM     13  F   UNL     1       2.355   3.727  22.170  0.00  0.00    +0.000 F 
ATOM     14  C   UNL     1       1.602   3.515  21.060  0.00  0.00    +0.000 C 
ATOM     15  F   UNL     1       0.851   2.410  21.301  0.00  0.00    +0.000 F 
ATOM     16  F   UNL     1       0.742   4.561  20.965  0.00  0.00    +0.000 F 
ENDBRANCH   4  14
ENDBRANCH   3  10
ENDBRANCH   1   3
BRANCH   1  17
ATOM     17  C   UNL     1       3.503   6.982  17.181  0.00  0.00    +0.000 C 
BRANCH  17  18
ATOM     18  C   UNL     1       2.673   7.780  18.156  0.00  0.00    +0.000 A 
ATOM     19  C   UNL     1       2.112   9.015  17.816  0.00  0.00    +0.000 A 
ATOM     20  C   UNL     1       1.344   9.735  18.747  0.00  0.00    +0.000 A 
ATOM     21  C   UNL     1       1.103   9.243  20.045  0.00  0.00    +0.000 A 
ATOM     22  C   UNL     1       1.669   7.996  20.358  0.00  0.00    +0.000 A 
ATOM     23  C   UNL     1       2.445   7.278  19.440  0.00  0.00    +0.000 A 
BRANCH  21  24
ATOM     24  C   UNL     1       0.276   9.971  21.043  0.00  0.00    +0.000 A 
ATOM     25  C   UNL     1      -0.428  11.146  20.722  0.00  0.00    +0.000 A 
ATOM     26  C   UNL     1      -1.268  11.775  21.652  0.00  0.00    +0.000 A 
ATOM     27  C   UNL     1      -1.429  11.240  22.925  0.00  0.00    +0.000 A 
ATOM     28  C   UNL     1      -0.728  10.096  23.282  0.00  0.00    +0.000 A 
ATOM     29  C   UNL     1       0.122   9.481  22.356  0.00  0.00    +0.000 A 
ENDBRANCH  21  24
ENDBRANCH  17  18
ENDBRANCH   1  17
TORSDOF 6
ENDMDL
MODEL 4
REMARK VINA RESULT:      -8.4      0.164      1.185
REMARK  Name = 
REMARK  6 active torsions:
REMARK  status: ('A' for Active; 'I' for Inactive)
REMARK    1  A    between atoms: C_2  and  C_5
REMARK    2  A    between atoms: C_11  and  C_12
REMARK    3  A    between atoms: C_12  and  N_13
REMARK    4  A    between atoms: N_13  and  C_14
REMARK    5  A    between atoms: C_14  and  C_15
REMARK    6  A    between atoms: C_18  and  C_19
REMARK                            x       y       z     vdW  Elec       q    Type
REMARK                         _______ _______ _______ _____ _____    ______ ____
ROOT
ATOM      1  N   UNL     1       4.843   7.279  17.510  0.00  0.00    +0.000 NA
ATOM      2  H   UNL     1       5.282   7.387  16.591  0.00  0.00    +0.000 HD
ENDROOT
BRANCH   1   3
ATOM      3  C   UNL     1       5.508   6.186  18.222  0.00  0.00    +0.000 C 
BRANCH   3  10
ATOM      4  C   UNL     1       2.655   3.131  19.949  0.00  0.00    +0.000 A 
ATOM      5  C   UNL     1       2.570   1.936  19.100  0.00  0.00    +0.000 A 
ATOM      6  C   UNL     1       3.255   1.834  17.944  0.00  0.00    +0.000 A 
ATOM      7  C   UNL     1       4.090   2.903  17.525  0.00  0.00    +0.000 A 
ATOM      8  N   UNL     1       4.860   3.067  16.474  0.00  0.00    +0.000 NA
ATOM      9  N   UNL     1       5.470   4.292  16.589  0.00  0.00    +0.000 NA
ATOM     10  C   UNL     1       5.061   4.860  17.709  0.00  0.00    +0.000 A 
ATOM     11  N   UNL     1       4.159   4.025  18.339  0.00  0.00    +0.000 N 
ATOM     12  C   UNL     1       3.446   4.146  19.531  0.00  0.00    +0.000 A 
BRANCH   4  14
ATOM     13  F   UNL     1       0.597   3.521  21.094  0.00  0.00    +0.000 F 
ATOM     14  C   UNL     1       1.899   3.169  21.247  0.00  0.00    +0.000 C 
ATOM     15  F   UNL     1       2.445   4.056  22.118  0.00  0.00    +0.000 F 
ATOM     16  F   UNL     1       1.906   1.959  21.864  0.00  0.00    +0.000 F 
ENDBRANCH   4  14
ENDBRANCH   3  10
ENDBRANCH   1   3
BRANCH   1  17
ATOM     17  C   UNL     1       3.422   6.992  17.297  0.00  0.00    +0.000 C 
BRANCH  17  18
ATOM     18  C   UNL     1       2.577   7.759  18.284  0.00  0.00    +0.000 A 
ATOM     19  C   UNL     1       2.361   7.302  19.588  0.00  0.00    +0.000 A 
ATOM     20  C   UNL     1       1.568   8.040  20.484  0.00  0.00    +0.000 A 
ATOM     21  C   UNL     1       0.972   9.261  20.112  0.00  0.00    +0.000 A 
ATOM     22  C   UNL     1       1.213   9.702  18.800  0.00  0.00    +0.000 A 
ATOM     23  C   UNL     1       1.992   8.968  17.899  0.00  0.00    +0.000 A 
BRANCH  21  24
ATOM     24  C   UNL     1       0.149  10.074  21.045  0.00  0.00    +0.000 A 
ATOM     25  C   UNL     1      -0.468  11.276  20.653  0.00  0.00    +0.000 A 
ATOM     26  C   UNL     1      -1.307  11.988  21.523  0.00  0.00    +0.000 A 
ATOM     27  C   UNL     1      -1.554  11.511  22.804  0.00  0.00    +0.000 A 
ATOM     28  C   UNL     1      -0.940  10.342  23.232  0.00  0.00    +0.000 A 
ATOM     29  C   UNL     1      -0.090   9.644  22.367  0.00  0.00    +0.000 A 
ENDBRANCH  21  24
ENDBRANCH  17  18
ENDBRANCH   1  17
TORSDOF 6
ENDMDL
MODEL 5
REMARK VINA RESULT:      -8.3      3.952      5.063
REMARK  Name = 
REMARK  6 active torsions:
REMARK  status: ('A' for Active; 'I' for Inactive)
REMARK    1  A    between atoms: C_2  and  C_5
REMARK    2  A    between atoms: C_11  and  C_12
REMARK    3  A    between atoms: C_12  and  N_13
REMARK    4  A    between atoms: N_13  and  C_14
REMARK    5  A    between atoms: C_14  and  C_15
REMARK    6  A    between atoms: C_18  and  C_19
REMARK                            x       y       z     vdW  Elec       q    Type
REMARK                         _______ _______ _______ _____ _____    ______ ____
ROOT
ATOM      1  N   UNL     1       3.374   4.320  18.484  0.00  0.00    +0.000 NA
ATOM      2  H   UNL     1       3.724   4.558  19.416  0.00  0.00    +0.000 HD
ENDROOT
BRANCH   1   3
ATOM      3  C   UNL     1       4.331   3.421  17.838  0.00  0.00    +0.000 C 
BRANCH   3  10
ATOM      4  C   UNL     1       6.091   3.996  13.711  0.00  0.00    +0.000 A 
ATOM      5  C   UNL     1       7.339   4.768  13.762  0.00  0.00    +0.000 A 
ATOM      6  C   UNL     1       7.831   5.248  14.921  0.00  0.00    +0.000 A 
ATOM      7  C   UNL     1       7.137   5.005  16.134  0.00  0.00    +0.000 A 
ATOM      8  N   UNL     1       7.385   5.337  17.380  0.00  0.00    +0.000 NA
ATOM      9  N   UNL     1       6.387   4.809  18.162  0.00  0.00    +0.000 NA
ATOM     10  C   UNL     1       5.541   4.163  17.381  0.00  0.00    +0.000 A 
ATOM     11  N   UNL     1       5.959   4.273  16.069  0.00  0.00    +0.000 N 
ATOM     12  C   UNL     1       5.434   3.781  14.875  0.00  0.00    +0.000 A 
BRANCH   4  14
ATOM     13  F   UNL     1       6.245   4.009  11.329  0.00  0.00    +0.000 F 
ATOM     14  C   UNL     1       5.614   3.451  12.394  0.00  0.00    +0.000 C 
ATOM     15  F   UNL     1       4.285   3.664  12.217  0.00  0.00    +0.000 F 
ATOM     16  F   UNL     1       5.811   2.111  12.308  0.00  0.00    +0.000 F 
ENDBRANCH   4  14
ENDBRANCH   3  10
ENDBRANCH   1   3
BRANCH   1  17
ATOM     17  C   UNL     1       3.220   5.568  17.732  0.00  0.00    +0.000 C 
BRANCH  17  18
ATOM     18  C   UNL     1       2.556   6.620  18.587  0.00  0.00    +0.000 A 
ATOM     19  C   UNL     1       2.263   7.897  18.098  0.00  0.00    +0.000 A 
ATOM     20  C   UNL     1       1.644   8.855  18.919  0.00  0.00    +0.000 A 
ATOM     21  C   UNL     1       1.290   8.568  20.252  0.00  0.00    +0.000 A 
ATOM     22  C   UNL     1       1.585   7.275  20.716  0.00  0.00    +0.000 A 
ATOM     23  C   UNL     1       2.212   6.319  19.907  0.00  0.00    +0.000 A 
BRANCH  21  24
ATOM     24  C   UNL     1       0.613   9.553  21.136  0.00  0.00    +0.000 A 
ATOM     25  C   UNL     1       0.502  10.914  20.799  0.00  0.00    +0.000 A 
ATOM     26  C   UNL     1      -0.209  11.814  21.606  0.00  0.00    +0.000 A 
ATOM     27  C   UNL     1      -0.832  11.373  22.767  0.00  0.00    +0.000 A 
ATOM     28  C   UNL     1      -0.720  10.041  23.143  0.00  0.00    +0.000 A 
ATOM     29  C   UNL     1       0.006   9.150  22.343  0.00  0.00    +0.000 A 
ENDBRANCH  21  24
ENDBRANCH  17  18
ENDBRANCH   1  17
TORSDOF 6
ENDMDL
MODEL 6
REMARK VINA RESULT:      -8.2      3.158      4.267
REMARK  Name = 
REMARK  6 active torsions:
REMARK  status: ('A' for Active; 'I' for Inactive)
REMARK    1  A    between atoms: C_2  and  C_5
REMARK    2  A    between atoms: C_11  and  C_12
REMARK    3  A    between atoms: C_12  and  N_13
REMARK    4  A    between atoms: N_13  and  C_14
REMARK    5  A    between atoms: C_14  and  C_15
REMARK    6  A    between atoms: C_18  and  C_19
REMARK                            x       y       z     vdW  Elec       q    Type
REMARK                         _______ _______ _______ _____ _____    ______ ____
ROOT
ATOM      1  N   UNL     1       1.256   8.604  17.950  0.00  0.00    +0.000 NA
ATOM      2  H   UNL     1       0.349   8.174  18.149  0.00  0.00    +0.000 HD
ENDROOT
BRANCH   1   3
ATOM      3  C   UNL     1       2.268   7.982  18.807  0.00  0.00    +0.000 C 
BRANCH   3  10
ATOM      4  C   UNL     1       2.061   3.473  18.519  0.00  0.00    +0.000 A 
ATOM      5  C   UNL     1       3.135   2.940  17.673  0.00  0.00    +0.000 A 
ATOM      6  C   UNL     1       4.022   3.746  17.056  0.00  0.00    +0.000 A 
ATOM      7  C   UNL     1       3.931   5.151  17.226  0.00  0.00    +0.000 A 
ATOM      8  N   UNL     1       4.649   6.149  16.762  0.00  0.00    +0.000 NA
ATOM      9  N   UNL     1       4.127   7.313  17.273  0.00  0.00    +0.000 NA
ATOM     10  C   UNL     1       3.096   7.009  18.040  0.00  0.00    +0.000 A 
ATOM     11  N   UNL     1       2.910   5.640  18.029  0.00  0.00    +0.000 N 
ATOM     12  C   UNL     1       1.980   4.817  18.662  0.00  0.00    +0.000 A 
BRANCH   4  14
ATOM     13  F   UNL     1       0.068   2.162  18.444  0.00  0.00    +0.000 F 
ATOM     14  C   UNL     1       1.127   2.522  19.213  0.00  0.00    +0.000 C 
ATOM     15  F   UNL     1       0.620   3.061  20.351  0.00  0.00    +0.000 F 
ATOM     16  F   UNL     1       1.759   1.375  19.570  0.00  0.00    +0.000 F 
ENDBRANCH   4  14
ENDBRANCH   3  10
ENDBRANCH   1   3
BRANCH   1  17
ATOM     17  C   UNL     1       1.140  10.040  18.216  0.00  0.00    +0.000 C 
BRANCH  17  18
ATOM     18  C   UNL     1      -0.311  10.445  18.294  0.00  0.00    +0.000 A 
ATOM     19  C   UNL     1      -1.279   9.907  17.440  0.00  0.00    +0.000 A 
ATOM     20  C   UNL     1      -2.624  10.305  17.539  0.00  0.00    +0.000 A 
ATOM     21  C   UNL     1      -3.048  11.246  18.498  0.00  0.00    +0.000 A 
ATOM     22  C   UNL     1      -2.058  11.763  19.350  0.00  0.00    +0.000 A 
ATOM     23  C   UNL     1      -0.715  11.381  19.250  0.00  0.00    +0.000 A 
BRANCH  21  24
ATOM     24  C   UNL     1      -4.466  11.668  18.641  0.00  0.00    +0.000 A 
ATOM     25  C   UNL     1      -5.503  11.084  17.891  0.00  0.00    +0.000 A 
ATOM     26  C   UNL     1      -6.845  11.438  18.096  0.00  0.00    +0.000 A 
ATOM     27  C   UNL     1      -7.182  12.380  19.060  0.00  0.00    +0.000 A 
ATOM     28  C   UNL     1      -6.180  12.995  19.799  0.00  0.00    +0.000 A 
ATOM     29  C   UNL     1      -4.841  12.652  19.578  0.00  0.00    +0.000 A 
ENDBRANCH  21  24
ENDBRANCH  17  18
ENDBRANCH   1  17
TORSDOF 6
ENDMDL
MODEL 7
REMARK VINA RESULT:      -8.2      3.089      4.213
REMARK  Name = 
REMARK  6 active torsions:
REMARK  status: ('A' for Active; 'I' for Inactive)
REMARK    1  A    between atoms: C_2  and  C_5
REMARK    2  A    between atoms: C_11  and  C_12
REMARK    3  A    between atoms: C_12  and  N_13
REMARK    4  A    between atoms: N_13  and  C_14
REMARK    5  A    between atoms: C_14  and  C_15
REMARK    6  A    between atoms: C_18  and  C_19
REMARK                            x       y       z     vdW  Elec       q    Type
REMARK                         _______ _______ _______ _____ _____    ______ ____
ROOT
ATOM      1  N   UNL     1       1.377   8.803  17.892  0.00  0.00    +0.000 NA
ATOM      2  H   UNL     1       0.430   8.416  17.894  0.00  0.00    +0.000 HD
ENDROOT
BRANCH   1   3
ATOM      3  C   UNL     1       2.209   8.013  18.802  0.00  0.00    +0.000 C 
BRANCH   3  10
ATOM      4  C   UNL     1       2.125   3.499  18.525  0.00  0.00    +0.000 A 
ATOM      5  C   UNL     1       3.223   2.992  17.693  0.00  0.00    +0.000 A 
ATOM      6  C   UNL     1       4.097   3.819  17.085  0.00  0.00    +0.000 A 
ATOM      7  C   UNL     1       3.966   5.223  17.250  0.00  0.00    +0.000 A 
ATOM      8  N   UNL     1       4.663   6.238  16.793  0.00  0.00    +0.000 NA
ATOM      9  N   UNL     1       4.105   7.388  17.294  0.00  0.00    +0.000 NA
ATOM     10  C   UNL     1       3.072   7.059  18.048  0.00  0.00    +0.000 A 
ATOM     11  N   UNL     1       2.923   5.687  18.039  0.00  0.00    +0.000 N 
ATOM     12  C   UNL     1       2.006   4.840  18.662  0.00  0.00    +0.000 A 
BRANCH   4  14
ATOM     13  F   UNL     1       1.804   1.337  19.483  0.00  0.00    +0.000 F 
ATOM     14  C   UNL     1       1.208   2.525  19.209  0.00  0.00    +0.000 C 
ATOM     15  F   UNL     1       0.115   2.250  18.453  0.00  0.00    +0.000 F 
ATOM     16  F   UNL     1       0.753   3.015  20.391  0.00  0.00    +0.000 F 
ENDBRANCH   4  14
ENDBRANCH   3  10
ENDBRANCH   1   3
BRANCH   1  17
ATOM     17  C   UNL     1       1.291  10.200  18.324  0.00  0.00    +0.000 C 
BRANCH  17  18
ATOM     18  C   UNL     1      -0.152  10.623  18.454  0.00  0.00    +0.000 A 
ATOM     19  C   UNL     1      -0.546  11.669  19.294  0.00  0.00    +0.000 A 
ATOM     20  C   UNL     1      -1.898  12.040  19.393  0.00  0.00    +0.000 A 
ATOM     21  C   UNL     1      -2.900  11.384  18.650  0.00  0.00    +0.000 A 
ATOM     22  C   UNL     1      -2.477  10.345  17.806  0.00  0.00    +0.000 A 
ATOM     23  C   UNL     1      -1.134   9.963  17.711  0.00  0.00    +0.000 A 
BRANCH  21  24
ATOM     24  C   UNL     1      -4.334  11.770  18.716  0.00  0.00    +0.000 A 
ATOM     25  C   UNL     1      -5.295  11.251  17.829  0.00  0.00    +0.000 A 
ATOM     26  C   UNL     1      -6.656  11.564  17.956  0.00  0.00    +0.000 A 
ATOM     27  C   UNL     1      -7.090  12.399  18.979  0.00  0.00    +0.000 A 
ATOM     28  C   UNL     1      -6.165  12.949  19.856  0.00  0.00    +0.000 A 
ATOM     29  C   UNL     1      -4.805  12.648  19.714  0.00  0.00    +0.000 A 
ENDBRANCH  21  24
ENDBRANCH  17  18
ENDBRANCH   1  17
TORSDOF 6
ENDMDL
MODEL 8
REMARK VINA RESULT:      -8.2      4.130      8.636
REMARK  Name = 
REMARK  6 active torsions:
REMARK  status: ('A' for Active; 'I' for Inactive)
REMARK    1  A    between atoms: C_2  and  C_5
REMARK    2  A    between atoms: C_11  and  C_12
REMARK    3  A    between atoms: C_12  and  N_13
REMARK    4  A    between atoms: N_13  and  C_14
REMARK    5  A    between atoms: C_14  and  C_15
REMARK    6  A    between atoms: C_18  and  C_19
REMARK                            x       y       z     vdW  Elec       q    Type
REMARK                         _______ _______ _______ _____ _____    ______ ____
ROOT
ATOM      1  N   UNL     1       1.665   8.680  21.530  0.00  0.00    +0.000 NA
ATOM      2  H   UNL     1       2.266   8.597  22.355  0.00  0.00    +0.000 HD
ENDROOT
BRANCH   1   3
ATOM      3  C   UNL     1       0.506   9.505  21.875  0.00  0.00    +0.000 C 
BRANCH   3  10
ATOM      4  C   UNL     1      -1.736  10.842  18.181  0.00  0.00    +0.000 A 
ATOM      5  C   UNL     1      -1.344  12.197  17.776  0.00  0.00    +0.000 A 
ATOM      6  C   UNL     1      -0.447  12.918  18.478  0.00  0.00    +0.000 A 
ATOM      7  C   UNL     1       0.147  12.361  19.640  0.00  0.00    +0.000 A 
ATOM      8  N   UNL     1       1.036  12.823  20.490  0.00  0.00    +0.000 NA
ATOM      9  N   UNL     1       1.274  11.842  21.421  0.00  0.00    +0.000 NA
ATOM     10  C   UNL     1       0.525  10.795  21.128  0.00  0.00    +0.000 A 
ATOM     11  N   UNL     1      -0.234  11.079  20.010  0.00  0.00    +0.000 N 
ATOM     12  C   UNL     1      -1.169  10.329  19.298  0.00  0.00    +0.000 A 
BRANCH   4  14
ATOM     13  F   UNL     1      -3.337   9.079  18.017  0.00  0.00    +0.000 F 
ATOM     14  C   UNL     1      -2.711  10.072  17.335  0.00  0.00    +0.000 C 
ATOM     15  F   UNL     1      -2.099   9.492  16.271  0.00  0.00    +0.000 F 
ATOM     16  F   UNL     1      -3.683  10.877  16.837  0.00  0.00    +0.000 F 
ENDBRANCH   4  14
ENDBRANCH   3  10
ENDBRANCH   1   3
BRANCH   1  17
ATOM     17  C   UNL     1       1.260   7.329  21.134  0.00  0.00    +0.000 C 
BRANCH  17  18
ATOM     18  C   UNL     1       2.114   6.837  19.991  0.00  0.00    +0.000 A 
ATOM     19  C   UNL     1       2.346   7.612  18.851  0.00  0.00    +0.000 A 
ATOM     20  C   UNL     1       3.146   7.126  17.803  0.00  0.00    +0.000 A 
ATOM     21  C   UNL     1       3.749   5.854  17.862  0.00  0.00    +0.000 A 
ATOM     22  C   UNL     1       3.509   5.099  19.023  0.00  0.00    +0.000 A 
ATOM     23  C   UNL     1       2.703   5.572  20.065  0.00  0.00    +0.000 A 
BRANCH  21  24
ATOM     24  C   UNL     1       4.619   5.323  16.780  0.00  0.00    +0.000 A 
ATOM     25  C   UNL     1       5.304   6.165  15.885  0.00  0.00    +0.000 A 
ATOM     26  C   UNL     1       6.184   5.650  14.922  0.00  0.00    +0.000 A 
ATOM     27  C   UNL     1       6.405   4.281  14.835  0.00  0.00    +0.000 A 
ATOM     28  C   UNL     1       5.724   3.420  15.686  0.00  0.00    +0.000 A 
ATOM     29  C   UNL     1       4.834   3.937  16.634  0.00  0.00    +0.000 A 
ENDBRANCH  21  24
ENDBRANCH  17  18
ENDBRANCH   1  17
TORSDOF 6
ENDMDL
MODEL 9
REMARK VINA RESULT:      -8.2      3.912      6.652
REMARK  Name = 
REMARK  6 active torsions:
REMARK  status: ('A' for Active; 'I' for Inactive)
REMARK    1  A    between atoms: C_2  and  C_5
REMARK    2  A    between atoms: C_11  and  C_12
REMARK    3  A    between atoms: C_12  and  N_13
REMARK    4  A    between atoms: N_13  and  C_14
REMARK    5  A    between atoms: C_14  and  C_15
REMARK    6  A    between atoms: C_18  and  C_19
REMARK                            x       y       z     vdW  Elec       q    Type
REMARK                         _______ _______ _______ _____ _____    ______ ____
ROOT
ATOM      1  N   UNL     1       5.523   4.757  16.510  0.00  0.00    +0.000 NA
ATOM      2  H   UNL     1       5.065   5.668  16.597  0.00  0.00    +0.000 HD
ENDROOT
BRANCH   1   3
ATOM      3  C   UNL     1       4.518   3.707  16.676  0.00  0.00    +0.000 C 
BRANCH   3  10
ATOM      4  C   UNL     1       2.342   7.005  18.877  0.00  0.00    +0.000 A 
ATOM      5  C   UNL     1       1.980   6.593  20.239  0.00  0.00    +0.000 A 
ATOM      6  C   UNL     1       2.258   5.360  20.707  0.00  0.00    +0.000 A 
ATOM      7  C   UNL     1       2.923   4.425  19.873  0.00  0.00    +0.000 A 
ATOM      8  N   UNL     1       3.318   3.187  20.067  0.00  0.00    +0.000 NA
ATOM      9  N   UNL     1       3.943   2.762  18.920  0.00  0.00    +0.000 NA
ATOM     10  C   UNL     1       3.919   3.747  18.040  0.00  0.00    +0.000 A 
ATOM     11  N   UNL     1       3.259   4.829  18.588  0.00  0.00    +0.000 N 
ATOM     12  C   UNL     1       2.966   6.098  18.089  0.00  0.00    +0.000 A 
BRANCH   4  14
ATOM     13  F   UNL     1       1.138   8.457  17.414  0.00  0.00    +0.000 F 
ATOM     14  C   UNL     1       2.043   8.407  18.426  0.00  0.00    +0.000 C 
ATOM     15  F   UNL     1       3.160   9.039  17.984  0.00  0.00    +0.000 F 
ATOM     16  F   UNL     1       1.540   9.159  19.437  0.00  0.00    +0.000 F 
ENDBRANCH   4  14
ENDBRANCH   3  10
ENDBRANCH   1   3
BRANCH   1  17
ATOM     17  C   UNL     1       6.558   4.676  17.544  0.00  0.00    +0.000 C 
BRANCH  17  18
ATOM     18  C   UNL     1       7.141   6.041  17.814  0.00  0.00    +0.000 A 
ATOM     19  C   UNL     1       6.795   7.160  17.051  0.00  0.00    +0.000 A 
ATOM     20  C   UNL     1       7.355   8.419  17.328  0.00  0.00    +0.000 A 
ATOM     21  C   UNL     1       8.274   8.604  18.380  0.00  0.00    +0.000 A 
ATOM     22  C   UNL     1       8.597   7.466  19.138  0.00  0.00    +0.000 A 
ATOM     23  C   UNL     1       8.052   6.207  18.861  0.00  0.00    +0.000 A 
BRANCH  21  24
ATOM     24  C   UNL     1       8.865   9.927  18.711  0.00  0.00    +0.000 A 
ATOM     25  C   UNL     1       9.017  10.944  17.751  0.00  0.00    +0.000 A 
ATOM     26  C   UNL     1       9.502  12.213  18.098  0.00  0.00    +0.000 A 
ATOM     27  C   UNL     1       9.841  12.498  19.415  0.00  0.00    +0.000 A 
ATOM     28  C   UNL     1       9.728  11.508  20.382  0.00  0.00    +0.000 A 
ATOM     29  C   UNL     1       9.261  10.237  20.028  0.00  0.00    +0.000 A 
ENDBRANCH  21  24
ENDBRANCH  17  18
ENDBRANCH   1  17
TORSDOF 6
ENDMDL
