MODEL 1
REMARK VINA RESULT:      -8.8      0.000      0.000
REMARK  Name = 
REMARK  4 active torsions:
REMARK  status: ('A' for Active; 'I' for Inactive)
REMARK    1  A    between atoms: C_2  and  C_15
REMARK    2  A    between atoms: C_6  and  C_7
REMARK    3  A    between atoms: N_18  and  C_19
REMARK    4  A    between atoms: C_26  and  C_27
REMARK                            x       y       z     vdW  Elec       q    Type
REMARK                         _______ _______ _______ _____ _____    ______ ____
ROOT
ATOM      1  C   UNL     1       0.756   9.527  21.423  0.00  0.00    +0.000 A 
ATOM      2  C   UNL     1       0.702   9.282  22.807  0.00  0.00    +0.000 A 
ATOM      3  N   UNL     1       0.051  10.226  23.469  0.00  0.00    +0.000 NA
ATOM      4  N   UNL     1      -0.468  11.037  22.511  0.00  0.00    +0.000 N 
ATOM      5  C   UNL     1       0.017  10.697  21.258  0.00  0.00    +0.000 A 
ENDROOT
BRANCH   1   7
ATOM      6  O   UNL     1       1.762   9.140  19.379  0.00  0.00    +0.000 OA
ATOM      7  C   UNL     1       1.458   8.677  20.470  0.00  0.00    +0.000 C 
ATOM      8  N   UNL     1       1.613   7.378  20.873  0.00  0.00    +0.000 N 
ATOM      9  C   UNL     1       2.227   6.451  20.084  0.00  0.00    +0.000 A 
ATOM     10  N   UNL     1       2.919   6.632  18.994  0.00  0.00    +0.000 NA
ATOM     11  C   UNL     1       3.341   5.410  18.499  0.00  0.00    +0.000 A 
ATOM     12  C   UNL     1       2.889   4.314  19.212  0.00  0.00    +0.000 A 
ATOM     13  S   UNL     1       2.037   4.840  20.610  0.00  0.00    +0.000 S 
ATOM     14  H   UNL     1       1.231   7.040  21.743  0.00  0.00    +0.000 HD
BRANCH  11  15
ATOM     15  C   UNL     1       4.171   5.346  17.310  0.00  0.00    +0.000 A 
ATOM     16  C   UNL     1       4.478   4.112  16.726  0.00  0.00    +0.000 A 
ATOM     17  C   UNL     1       5.253   4.065  15.570  0.00  0.00    +0.000 A 
ATOM     18  C   UNL     1       5.693   5.260  15.027  0.00  0.00    +0.000 A 
ATOM     19  N   UNL     1       5.416   6.473  15.553  0.00  0.00    +0.000 NA
ATOM     20  C   UNL     1       4.657   6.485  16.675  0.00  0.00    +0.000 A 
ENDBRANCH  11  15
ENDBRANCH   1   7
BRANCH   4  21
ATOM     21  C   UNL     1      -1.427  12.008  22.910  0.00  0.00    +0.000 A 
ATOM     22  C   UNL     1      -2.718  11.635  23.305  0.00  0.00    +0.000 A 
ATOM     23  C   UNL     1      -3.637  12.602  23.720  0.00  0.00    +0.000 A 
ATOM     24  C   UNL     1      -3.271  13.944  23.771  0.00  0.00    +0.000 A 
ATOM     25  C   UNL     1      -1.981  14.321  23.408  0.00  0.00    +0.000 A 
ATOM     26  C   UNL     1      -1.066  13.359  22.984  0.00  0.00    +0.000 A 
ATOM     27  F   UNL     1       0.142  13.788  22.590  0.00  0.00    +0.000 F 
ENDBRANCH   4  21
BRANCH   5  28
ATOM     28  C   UNL     1      -0.226  11.544  20.078  0.00  0.00    +0.000 C 
ATOM     29  F   UNL     1      -0.292  10.813  18.935  0.00  0.00    +0.000 F 
ATOM     30  F   UNL     1      -1.387  12.233  20.142  0.00  0.00    +0.000 F 
ATOM     31  F   UNL     1       0.776  12.434  19.876  0.00  0.00    +0.000 F 
ENDBRANCH   5  28
TORSDOF 4
ENDMDL
MODEL 2
REMARK VINA RESULT:      -8.5      1.817      2.214
REMARK  Name = 
REMARK  4 active torsions:
REMARK  status: ('A' for Active; 'I' for Inactive)
REMARK    1  A    between atoms: C_2  and  C_15
REMARK    2  A    between atoms: C_6  and  C_7
REMARK    3  A    between atoms: N_18  and  C_19
REMARK    4  A    between atoms: C_26  and  C_27
REMARK                            x       y       z     vdW  Elec       q    Type
REMARK                         _______ _______ _______ _____ _____    ______ ____
ROOT
ATOM      1  C   UNL     1       0.738  10.058  19.241  0.00  0.00    +0.000 A 
ATOM      2  C   UNL     1       0.103  11.062  18.487  0.00  0.00    +0.000 A 
ATOM      3  N   UNL     1      -0.719  11.805  19.213  0.00  0.00    +0.000 NA
ATOM      4  N   UNL     1      -0.527  11.397  20.494  0.00  0.00    +0.000 N 
ATOM      5  C   UNL     1       0.283  10.274  20.541  0.00  0.00    +0.000 A 
ENDROOT
BRANCH   1   7
ATOM      6  O   UNL     1       2.117   9.264  17.567  0.00  0.00    +0.000 OA
ATOM      7  C   UNL     1       1.648   9.069  18.680  0.00  0.00    +0.000 C 
ATOM      8  N   UNL     1       1.800   7.940  19.439  0.00  0.00    +0.000 N 
ATOM      9  C   UNL     1       2.599   6.910  19.039  0.00  0.00    +0.000 A 
ATOM     10  N   UNL     1       3.465   6.874  18.066  0.00  0.00    +0.000 NA
ATOM     11  C   UNL     1       4.038   5.616  17.995  0.00  0.00    +0.000 A 
ATOM     12  C   UNL     1       3.527   4.700  18.897  0.00  0.00    +0.000 A 
ATOM     13  S   UNL     1       2.409   5.478  19.946  0.00  0.00    +0.000 S 
ATOM     14  H   UNL     1       1.287   7.800  20.296  0.00  0.00    +0.000 HD
BRANCH  11  15
ATOM     15  C   UNL     1       5.072   5.333  17.016  0.00  0.00    +0.000 A 
ATOM     16  C   UNL     1       4.941   4.250  16.140  0.00  0.00    +0.000 A 
ATOM     17  C   UNL     1       5.926   4.005  15.187  0.00  0.00    +0.000 A 
ATOM     18  C   UNL     1       7.014   4.860  15.134  0.00  0.00    +0.000 A 
ATOM     19  N   UNL     1       7.178   5.921  15.954  0.00  0.00    +0.000 NA
ATOM     20  C   UNL     1       6.200   6.134  16.868  0.00  0.00    +0.000 A 
ENDBRANCH  11  15
ENDBRANCH   1   7
BRANCH   4  21
ATOM     21  C   UNL     1      -1.095  12.184  21.534  0.00  0.00    +0.000 A 
ATOM     22  C   UNL     1      -2.362  11.896  22.054  0.00  0.00    +0.000 A 
ATOM     23  C   UNL     1      -2.891  12.664  23.094  0.00  0.00    +0.000 A 
ATOM     24  C   UNL     1      -2.151  13.706  23.645  0.00  0.00    +0.000 A 
ATOM     25  C   UNL     1      -0.878  13.982  23.154  0.00  0.00    +0.000 A 
ATOM     26  C   UNL     1      -0.353  13.223  22.109  0.00  0.00    +0.000 A 
ATOM     27  F   UNL     1       0.853  13.573  21.637  0.00  0.00    +0.000 F 
ENDBRANCH   4  21
BRANCH   5  28
ATOM     28  C   UNL     1       0.480   9.512  21.786  0.00  0.00    +0.000 C 
ATOM     29  F   UNL     1       1.782   9.173  21.971  0.00  0.00    +0.000 F 
ATOM     30  F   UNL     1       0.116  10.194  22.894  0.00  0.00    +0.000 F 
ATOM     31  F   UNL     1      -0.198   8.339  21.777  0.00  0.00    +0.000 F 
ENDBRANCH   5  28
TORSDOF 4
ENDMDL
MODEL 3
REMARK VINA RESULT:      -8.4      1.525      2.012
REMARK  Name = 
REMARK  4 active torsions:
REMARK  status: ('A' for Active; 'I' for Inactive)
REMARK    1  A    between atoms: C_2  and  C_15
REMARK    2  A    between atoms: C_6  and  C_7
REMARK    3  A    between atoms: N_18  and  C_19
REMARK    4  A    between atoms: C_26  and  C_27
REMARK                            x       y       z     vdW  Elec       q    Type
REMARK                         _______ _______ _______ _____ _____    ______ ____
ROOT
ATOM      1  C   UNL     1       1.107   8.971  20.176  0.00  0.00    +0.000 A 
ATOM      2  C   UNL     1       0.382   8.502  21.286  0.00  0.00    +0.000 A 
ATOM      3  N   UNL     1      -0.307   9.459  21.890  0.00  0.00    +0.000 NA
ATOM      4  N   UNL     1      -0.168  10.550  21.094  0.00  0.00    +0.000 N 
ATOM      5  C   UNL     1       0.761  10.319  20.093  0.00  0.00    +0.000 A 
ENDROOT
BRANCH   1   7
ATOM      6  O   UNL     1       2.244   8.490  18.223  0.00  0.00    +0.000 OA
ATOM      7  C   UNL     1       1.991   8.141  19.368  0.00  0.00    +0.000 C 
ATOM      8  N   UNL     1       2.370   6.968  19.963  0.00  0.00    +0.000 N 
ATOM      9  C   UNL     1       3.176   6.070  19.328  0.00  0.00    +0.000 A 
ATOM     10  N   UNL     1       3.863   6.219  18.230  0.00  0.00    +0.000 NA
ATOM     11  C   UNL     1       4.524   5.041  17.928  0.00  0.00    +0.000 A 
ATOM     12  C   UNL     1       4.258   3.995  18.793  0.00  0.00    +0.000 A 
ATOM     13  S   UNL     1       3.271   4.546  20.087  0.00  0.00    +0.000 S 
ATOM     14  H   UNL     1       2.025   6.694  20.870  0.00  0.00    +0.000 HD
BRANCH  11  15
ATOM     15  C   UNL     1       5.396   4.964  16.769  0.00  0.00    +0.000 A 
ATOM     16  C   UNL     1       5.069   4.135  15.691  0.00  0.00    +0.000 A 
ATOM     17  C   UNL     1       5.899   4.090  14.573  0.00  0.00    +0.000 A 
ATOM     18  C   UNL     1       7.033   4.885  14.567  0.00  0.00    +0.000 A 
ATOM     19  N   UNL     1       7.383   5.703  15.582  0.00  0.00    +0.000 NA
ATOM     20  C   UNL     1       6.554   5.727  16.653  0.00  0.00    +0.000 A 
ENDBRANCH  11  15
ENDBRANCH   1   7
BRANCH   4  21
ATOM     21  C   UNL     1      -1.000  11.673  21.355  0.00  0.00    +0.000 A 
ATOM     22  C   UNL     1      -0.803  12.479  22.483  0.00  0.00    +0.000 A 
ATOM     23  C   UNL     1      -1.615  13.594  22.707  0.00  0.00    +0.000 A 
ATOM     24  C   UNL     1      -2.611  13.932  21.796  0.00  0.00    +0.000 A 
ATOM     25  C   UNL     1      -2.796  13.154  20.656  0.00  0.00    +0.000 A 
ATOM     26  C   UNL     1      -1.994  12.035  20.437  0.00  0.00    +0.000 A 
ATOM     27  F   UNL     1      -2.257  11.290  19.353  0.00  0.00    +0.000 F 
ENDBRANCH   4  21
BRANCH   5  28
ATOM     28  C   UNL     1       1.249  11.403  19.223  0.00  0.00    +0.000 C 
ATOM     29  F   UNL     1       0.346  11.725  18.261  0.00  0.00    +0.000 F 
ATOM     30  F   UNL     1       1.503  12.551  19.889  0.00  0.00    +0.000 F 
ATOM     31  F   UNL     1       2.374  11.051  18.554  0.00  0.00    +0.000 F 
ENDBRANCH   5  28
TORSDOF 4
ENDMDL
MODEL 4
REMARK VINA RESULT:      -8.2      1.587      1.847
REMARK  Name = 
REMARK  4 active torsions:
REMARK  status: ('A' for Active; 'I' for Inactive)
REMARK    1  A    between atoms: C_2  and  C_15
REMARK    2  A    between atoms: C_6  and  C_7
REMARK    3  A    between atoms: N_18  and  C_19
REMARK    4  A    between atoms: C_26  and  C_27
REMARK                            x       y       z     vdW  Elec       q    Type
REMARK                         _______ _______ _______ _____ _____    ______ ____
ROOT
ATOM      1  C   UNL     1       0.649  10.456  20.047  0.00  0.00    +0.000 A 
ATOM      2  C   UNL     1       1.026  10.993  21.291  0.00  0.00    +0.000 A 
ATOM      3  N   UNL     1       0.203  11.943  21.709  0.00  0.00    +0.000 NA
ATOM      4  N   UNL     1      -0.819  11.944  20.815  0.00  0.00    +0.000 N 
ATOM      5  C   UNL     1      -0.538  11.119  19.739  0.00  0.00    +0.000 A 
ENDROOT
BRANCH   1   7
ATOM      6  O   UNL     1       1.757   9.661  18.183  0.00  0.00    +0.000 OA
ATOM      7  C   UNL     1       1.409   9.438  19.334  0.00  0.00    +0.000 C 
ATOM      8  N   UNL     1       1.564   8.261  20.016  0.00  0.00    +0.000 N 
ATOM      9  C   UNL     1       2.230   7.202  19.475  0.00  0.00    +0.000 A 
ATOM     10  N   UNL     1       2.970   7.160  18.403  0.00  0.00    +0.000 NA
ATOM     11  C   UNL     1       3.434   5.871  18.204  0.00  0.00    +0.000 A 
ATOM     12  C   UNL     1       2.966   4.944  19.118  0.00  0.00    +0.000 A 
ATOM     13  S   UNL     1       2.040   5.738  20.330  0.00  0.00    +0.000 S 
ATOM     14  H   UNL     1       1.146   8.110  20.921  0.00  0.00    +0.000 HD
BRANCH  11  15
ATOM     15  C   UNL     1       4.321   5.572  17.095  0.00  0.00    +0.000 A 
ATOM     16  C   UNL     1       4.594   4.246  16.743  0.00  0.00    +0.000 A 
ATOM     17  C   UNL     1       5.426   3.971  15.660  0.00  0.00    +0.000 A 
ATOM     18  C   UNL     1       5.955   5.037  14.954  0.00  0.00    +0.000 A 
ATOM     19  N   UNL     1       5.714   6.332  15.254  0.00  0.00    +0.000 NA
ATOM     20  C   UNL     1       4.899   6.566  16.310  0.00  0.00    +0.000 A 
ENDBRANCH  11  15
ENDBRANCH   1   7
BRANCH   4  21
ATOM     21  C   UNL     1      -1.983  12.695  21.138  0.00  0.00    +0.000 A 
ATOM     22  C   UNL     1      -2.942  12.202  22.031  0.00  0.00    +0.000 A 
ATOM     23  C   UNL     1      -4.065  12.967  22.356  0.00  0.00    +0.000 A 
ATOM     24  C   UNL     1      -4.229  14.239  21.816  0.00  0.00    +0.000 A 
ATOM     25  C   UNL     1      -3.267  14.750  20.949  0.00  0.00    +0.000 A 
ATOM     26  C   UNL     1      -2.151  13.984  20.616  0.00  0.00    +0.000 A 
ATOM     27  F   UNL     1      -1.288  14.503  19.730  0.00  0.00    +0.000 F 
ENDBRANCH   4  21
BRANCH   5  28
ATOM     28  C   UNL     1      -1.386  11.099  18.534  0.00  0.00    +0.000 C 
ATOM     29  F   UNL     1      -1.229  12.221  17.786  0.00  0.00    +0.000 F 
ATOM     30  F   UNL     1      -1.117  10.065  17.707  0.00  0.00    +0.000 F 
ATOM     31  F   UNL     1      -2.705  11.055  18.841  0.00  0.00    +0.000 F 
ENDBRANCH   5  28
TORSDOF 4
ENDMDL
MODEL 5
REMARK VINA RESULT:      -8.2      0.954      1.336
REMARK  Name = 
REMARK  4 active torsions:
REMARK  status: ('A' for Active; 'I' for Inactive)
REMARK    1  A    between atoms: C_2  and  C_15
REMARK    2  A    between atoms: C_6  and  C_7
REMARK    3  A    between atoms: N_18  and  C_19
REMARK    4  A    between atoms: C_26  and  C_27
REMARK                            x       y       z     vdW  Elec       q    Type
REMARK                         _______ _______ _______ _____ _____    ______ ____
ROOT
ATOM      1  C   UNL     1       0.391   9.741  21.046  0.00  0.00    +0.000 A 
ATOM      2  C   UNL     1      -0.237   9.320  22.232  0.00  0.00    +0.000 A 
ATOM      3  N   UNL     1      -0.847  10.309  22.868  0.00  0.00    +0.000 NA
ATOM      4  N   UNL     1      -0.760  11.374  22.030  0.00  0.00    +0.000 N 
ATOM      5  C   UNL     1       0.067  11.093  20.955  0.00  0.00    +0.000 A 
ENDROOT
BRANCH   1   7
ATOM      6  O   UNL     1       1.425   9.232  19.044  0.00  0.00    +0.000 OA
ATOM      7  C   UNL     1       1.179   8.868  20.186  0.00  0.00    +0.000 C 
ATOM      8  N   UNL     1       1.477   7.649  20.732  0.00  0.00    +0.000 N 
ATOM      9  C   UNL     1       2.186   6.709  20.044  0.00  0.00    +0.000 A 
ATOM     10  N   UNL     1       2.850   6.837  18.929  0.00  0.00    +0.000 NA
ATOM     11  C   UNL     1       3.401   5.619  18.571  0.00  0.00    +0.000 A 
ATOM     12  C   UNL     1       3.076   4.571  19.412  0.00  0.00    +0.000 A 
ATOM     13  S   UNL     1       2.177   5.159  20.754  0.00  0.00    +0.000 S 
ATOM     14  H   UNL     1       1.138   7.374  21.641  0.00  0.00    +0.000 HD
BRANCH  11  15
ATOM     15  C   UNL     1       4.229   5.509  17.383  0.00  0.00    +0.000 A 
ATOM     16  C   UNL     1       4.525   4.254  16.840  0.00  0.00    +0.000 A 
ATOM     17  C   UNL     1       5.298   4.162  15.685  0.00  0.00    +0.000 A 
ATOM     18  C   UNL     1       5.747   5.335  15.101  0.00  0.00    +0.000 A 
ATOM     19  N   UNL     1       5.480   6.566  15.587  0.00  0.00    +0.000 NA
ATOM     20  C   UNL     1       4.723   6.622  16.710  0.00  0.00    +0.000 A 
ENDBRANCH  11  15
ENDBRANCH   1   7
BRANCH   4  21
ATOM     21  C   UNL     1      -1.541  12.523  22.333  0.00  0.00    +0.000 A 
ATOM     22  C   UNL     1      -1.213  13.365  23.403  0.00  0.00    +0.000 A 
ATOM     23  C   UNL     1      -1.977  14.505  23.667  0.00  0.00    +0.000 A 
ATOM     24  C   UNL     1      -3.057  14.830  22.852  0.00  0.00    +0.000 A 
ATOM     25  C   UNL     1      -3.374  14.015  21.768  0.00  0.00    +0.000 A 
ATOM     26  C   UNL     1      -2.619  12.872  21.510  0.00  0.00    +0.000 A 
ATOM     27  F   UNL     1      -3.007  12.094  20.489  0.00  0.00    +0.000 F 
ENDBRANCH   4  21
BRANCH   5  28
ATOM     28  C   UNL     1       0.494  12.141  20.011  0.00  0.00    +0.000 C 
ATOM     29  F   UNL     1      -0.227  12.110  18.861  0.00  0.00    +0.000 F 
ATOM     30  F   UNL     1       0.354  13.392  20.500  0.00  0.00    +0.000 F 
ATOM     31  F   UNL     1       1.784  11.985  19.628  0.00  0.00    +0.000 F 
ENDBRANCH   5  28
TORSDOF 4
ENDMDL
MODEL 6
REMARK VINA RESULT:      -8.2      1.561      1.976
REMARK  Name = 
REMARK  4 active torsions:
REMARK  status: ('A' for Active; 'I' for Inactive)
REMARK    1  A    between atoms: C_2  and  C_15
REMARK    2  A    between atoms: C_6  and  C_7
REMARK    3  A    between atoms: N_18  and  C_19
REMARK    4  A    between atoms: C_26  and  C_27
REMARK                            x       y       z     vdW  Elec       q    Type
REMARK                         _______ _______ _______ _____ _____    ______ ____
ROOT
ATOM      1  C   UNL     1       0.702  10.453  20.084  0.00  0.00    +0.000 A 
ATOM      2  C   UNL     1       1.138  11.054  21.279  0.00  0.00    +0.000 A 
ATOM      3  N   UNL     1       0.307  11.989  21.715  0.00  0.00    +0.000 NA
ATOM      4  N   UNL     1      -0.771  11.915  20.892  0.00  0.00    +0.000 N 
ATOM      5  C   UNL     1      -0.529  11.057  19.832  0.00  0.00    +0.000 A 
ENDROOT
BRANCH   1   7
ATOM      6  O   UNL     1       1.810   9.670  18.214  0.00  0.00    +0.000 OA
ATOM      7  C   UNL     1       1.454   9.436  19.361  0.00  0.00    +0.000 C 
ATOM      8  N   UNL     1       1.593   8.249  20.027  0.00  0.00    +0.000 N 
ATOM      9  C   UNL     1       2.249   7.189  19.475  0.00  0.00    +0.000 A 
ATOM     10  N   UNL     1       2.994   7.153  18.406  0.00  0.00    +0.000 NA
ATOM     11  C   UNL     1       3.444   5.861  18.192  0.00  0.00    +0.000 A 
ATOM     12  C   UNL     1       2.961   4.928  19.092  0.00  0.00    +0.000 A 
ATOM     13  S   UNL     1       2.039   5.716  20.310  0.00  0.00    +0.000 S 
ATOM     14  H   UNL     1       1.169   8.090  20.929  0.00  0.00    +0.000 HD
BRANCH  11  15
ATOM     15  C   UNL     1       4.332   5.567  17.083  0.00  0.00    +0.000 A 
ATOM     16  C   UNL     1       4.607   4.243  16.727  0.00  0.00    +0.000 A 
ATOM     17  C   UNL     1       5.440   3.973  15.644  0.00  0.00    +0.000 A 
ATOM     18  C   UNL     1       5.969   5.042  14.941  0.00  0.00    +0.000 A 
ATOM     19  N   UNL     1       5.726   6.335  15.246  0.00  0.00    +0.000 NA
ATOM     20  C   UNL     1       4.910   6.564  16.302  0.00  0.00    +0.000 A 
ENDBRANCH  11  15
ENDBRANCH   1   7
BRANCH   4  21
ATOM     21  C   UNL     1      -1.941  12.633  21.264  0.00  0.00    +0.000 A 
ATOM     22  C   UNL     1      -2.412  13.705  20.496  0.00  0.00    +0.000 A 
ATOM     23  C   UNL     1      -3.578  14.380  20.862  0.00  0.00    +0.000 A 
ATOM     24  C   UNL     1      -4.301  13.977  21.982  0.00  0.00    +0.000 A 
ATOM     25  C   UNL     1      -3.857  12.894  22.736  0.00  0.00    +0.000 A 
ATOM     26  C   UNL     1      -2.687  12.226  22.377  0.00  0.00    +0.000 A 
ATOM     27  F   UNL     1      -2.276  11.229  23.175  0.00  0.00    +0.000 F 
ENDBRANCH   4  21
BRANCH   5  28
ATOM     28  C   UNL     1      -1.453  10.956  18.689  0.00  0.00    +0.000 C 
ATOM     29  F   UNL     1      -1.378  12.043  17.880  0.00  0.00    +0.000 F 
ATOM     30  F   UNL     1      -1.209   9.889  17.896  0.00  0.00    +0.000 F 
ATOM     31  F   UNL     1      -2.747  10.893  19.086  0.00  0.00    +0.000 F 
ENDBRANCH   5  28
TORSDOF 4
ENDMDL
MODEL 7
REMARK VINA RESULT:      -8.2      3.074      9.710
REMARK  Name = 
REMARK  4 active torsions:
REMARK  status: ('A' for Active; 'I' for Inactive)
REMARK    1  A    between atoms: C_2  and  C_15
REMARK    2  A    between atoms: C_6  and  C_7
REMARK    3  A    between atoms: N_18  and  C_19
REMARK    4  A    between atoms: C_26  and  C_27
REMARK                            x       y       z     vdW  Elec       q    Type
REMARK                         _______ _______ _______ _____ _____    ______ ____
ROOT
ATOM      1  C   UNL     1       1.595   8.722  19.160  0.00  0.00    +0.000 A 
ATOM      2  C   UNL     1       2.104   9.057  17.892  0.00  0.00    +0.000 A 
ATOM      3  N   UNL     1       2.866   8.103  17.377  0.00  0.00    +0.000 NA
ATOM      4  N   UNL     1       2.751   7.057  18.235  0.00  0.00    +0.000 N 
ATOM      5  C   UNL     1       2.061   7.426  19.379  0.00  0.00    +0.000 A 
ENDROOT
BRANCH   1   7
ATOM      6  O   UNL     1      -0.338   9.238  20.314  0.00  0.00    +0.000 OA
ATOM      7  C   UNL     1       0.775   9.612  19.971  0.00  0.00    +0.000 C 
ATOM      8  N   UNL     1       1.316  10.852  20.178  0.00  0.00    +0.000 N 
ATOM      9  C   UNL     1       0.661  11.809  20.896  0.00  0.00    +0.000 A 
ATOM     10  N   UNL     1      -0.400  11.689  21.643  0.00  0.00    +0.000 NA
ATOM     11  C   UNL     1      -0.744  12.923  22.169  0.00  0.00    +0.000 A 
ATOM     12  C   UNL     1       0.050  13.972  21.740  0.00  0.00    +0.000 A 
ATOM     13  S   UNL     1       1.336  13.370  20.771  0.00  0.00    +0.000 S 
ATOM     14  H   UNL     1       2.193  11.128  19.763  0.00  0.00    +0.000 HD
BRANCH  11  15
ATOM     15  C   UNL     1      -1.871  13.047  23.075  0.00  0.00    +0.000 A 
ATOM     16  C   UNL     1      -2.058  14.218  23.817  0.00  0.00    +0.000 A 
ATOM     17  C   UNL     1      -3.158  14.337  24.663  0.00  0.00    +0.000 A 
ATOM     18  C   UNL     1      -4.046  13.277  24.735  0.00  0.00    +0.000 A 
ATOM     19  N   UNL     1      -3.909  12.132  24.033  0.00  0.00    +0.000 NA
ATOM     20  C   UNL     1      -2.830  12.049  23.217  0.00  0.00    +0.000 A 
ENDBRANCH  11  15
ENDBRANCH   1   7
BRANCH   4  21
ATOM     21  C   UNL     1       3.264   5.797  17.820  0.00  0.00    +0.000 A 
ATOM     22  C   UNL     1       4.641   5.575  17.707  0.00  0.00    +0.000 A 
ATOM     23  C   UNL     1       5.126   4.321  17.324  0.00  0.00    +0.000 A 
ATOM     24  C   UNL     1       4.246   3.272  17.077  0.00  0.00    +0.000 A 
ATOM     25  C   UNL     1       2.875   3.476  17.215  0.00  0.00    +0.000 A 
ATOM     26  C   UNL     1       2.389   4.728  17.587  0.00  0.00    +0.000 A 
ATOM     27  F   UNL     1       1.058   4.881  17.645  0.00  0.00    +0.000 F 
ENDBRANCH   4  21
BRANCH   5  28
ATOM     28  C   UNL     1       1.976   6.541  20.553  0.00  0.00    +0.000 C 
ATOM     29  F   UNL     1       0.928   5.682  20.464  0.00  0.00    +0.000 F 
ATOM     30  F   UNL     1       3.072   5.769  20.722  0.00  0.00    +0.000 F 
ATOM     31  F   UNL     1       1.774   7.234  21.699  0.00  0.00    +0.000 F 
ENDBRANCH   5  28
TORSDOF 4
ENDMDL
MODEL 8
REMARK VINA RESULT:      -8.2      1.880      2.504
REMARK  Name = 
REMARK  4 active torsions:
REMARK  status: ('A' for Active; 'I' for Inactive)
REMARK    1  A    between atoms: C_2  and  C_15
REMARK    2  A    between atoms: C_6  and  C_7
REMARK    3  A    between atoms: N_18  and  C_19
REMARK    4  A    between atoms: C_26  and  C_27
REMARK                            x       y       z     vdW  Elec       q    Type
REMARK                         _______ _______ _______ _____ _____    ______ ____
ROOT
ATOM      1  C   UNL     1       0.741  10.212  19.108  0.00  0.00    +0.000 A 
ATOM      2  C   UNL     1       0.317  11.342  18.384  0.00  0.00    +0.000 A 
ATOM      3  N   UNL     1      -0.550  12.084  19.056  0.00  0.00    +0.000 NA
ATOM      4  N   UNL     1      -0.599  11.536  20.297  0.00  0.00    +0.000 N 
ATOM      5  C   UNL     1       0.101  10.341  20.339  0.00  0.00    +0.000 A 
ENDROOT
BRANCH   1   7
ATOM      6  O   UNL     1       2.122   9.356  17.466  0.00  0.00    +0.000 OA
ATOM      7  C   UNL     1       1.648   9.200  18.583  0.00  0.00    +0.000 C 
ATOM      8  N   UNL     1       1.792   8.096  19.379  0.00  0.00    +0.000 N 
ATOM      9  C   UNL     1       2.586   7.049  19.017  0.00  0.00    +0.000 A 
ATOM     10  N   UNL     1       3.456   6.977  18.048  0.00  0.00    +0.000 NA
ATOM     11  C   UNL     1       4.022   5.715  18.021  0.00  0.00    +0.000 A 
ATOM     12  C   UNL     1       3.504   4.832  18.951  0.00  0.00    +0.000 A 
ATOM     13  S   UNL     1       2.385   5.649  19.969  0.00  0.00    +0.000 S 
ATOM     14  H   UNL     1       1.274   7.987  20.238  0.00  0.00    +0.000 HD
BRANCH  11  15
ATOM     15  C   UNL     1       5.059   5.395  17.056  0.00  0.00    +0.000 A 
ATOM     16  C   UNL     1       4.909   4.306  16.190  0.00  0.00    +0.000 A 
ATOM     17  C   UNL     1       5.897   4.026  15.250  0.00  0.00    +0.000 A 
ATOM     18  C   UNL     1       7.007   4.852  15.199  0.00  0.00    +0.000 A 
ATOM     19  N   UNL     1       7.190   5.916  16.010  0.00  0.00    +0.000 NA
ATOM     20  C   UNL     1       6.209   6.165  16.911  0.00  0.00    +0.000 A 
ENDBRANCH  11  15
ENDBRANCH   1   7
BRANCH   4  21
ATOM     21  C   UNL     1      -1.262  12.267  21.321  0.00  0.00    +0.000 A 
ATOM     22  C   UNL     1      -0.552  12.841  22.382  0.00  0.00    +0.000 A 
ATOM     23  C   UNL     1      -1.219  13.579  23.363  0.00  0.00    +0.000 A 
ATOM     24  C   UNL     1      -2.595  13.774  23.282  0.00  0.00    +0.000 A 
ATOM     25  C   UNL     1      -3.306  13.231  22.214  0.00  0.00    +0.000 A 
ATOM     26  C   UNL     1      -2.643  12.486  21.240  0.00  0.00    +0.000 A 
ATOM     27  F   UNL     1      -3.388  11.937  20.269  0.00  0.00    +0.000 F 
ENDBRANCH   4  21
BRANCH   5  28
ATOM     28  C   UNL     1       0.035   9.444  21.506  0.00  0.00    +0.000 C 
ATOM     29  F   UNL     1      -0.321   8.182  21.155  0.00  0.00    +0.000 F 
ATOM     30  F   UNL     1       1.212   9.327  22.159  0.00  0.00    +0.000 F 
ATOM     31  F   UNL     1      -0.900   9.844  22.402  0.00  0.00    +0.000 F 
ENDBRANCH   5  28
TORSDOF 4
ENDMDL
MODEL 9
REMARK VINA RESULT:      -8.2      1.836      2.236
REMARK  Name = 
REMARK  4 active torsions:
REMARK  status: ('A' for Active; 'I' for Inactive)
REMARK    1  A    between atoms: C_2  and  C_15
REMARK    2  A    between atoms: C_6  and  C_7
REMARK    3  A    between atoms: N_18  and  C_19
REMARK    4  A    between atoms: C_26  and  C_27
REMARK                            x       y       z     vdW  Elec       q    Type
REMARK                         _______ _______ _______ _____ _____    ______ ____
ROOT
ATOM      1  C   UNL     1       0.598  10.005  19.772  0.00  0.00    +0.000 A 
ATOM      2  C   UNL     1       0.033  10.989  18.941  0.00  0.00    +0.000 A 
ATOM      3  N   UNL     1      -0.814  11.779  19.585  0.00  0.00    +0.000 NA
ATOM      4  N   UNL     1      -0.708  11.421  20.891  0.00  0.00    +0.000 N 
ATOM      5  C   UNL     1       0.071  10.284  21.032  0.00  0.00    +0.000 A 
ENDROOT
BRANCH   1   7
ATOM      6  O   UNL     1       2.123   9.154  18.259  0.00  0.00    +0.000 OA
ATOM      7  C   UNL     1       1.517   8.974  19.306  0.00  0.00    +0.000 C 
ATOM      8  N   UNL     1       1.522   7.833  20.062  0.00  0.00    +0.000 N 
ATOM      9  C   UNL     1       2.309   6.766  19.744  0.00  0.00    +0.000 A 
ATOM     10  N   UNL     1       3.281   6.694  18.878  0.00  0.00    +0.000 NA
ATOM     11  C   UNL     1       3.793   5.409  18.857  0.00  0.00    +0.000 A 
ATOM     12  C   UNL     1       3.135   4.513  19.680  0.00  0.00    +0.000 A 
ATOM     13  S   UNL     1       1.941   5.338  20.601  0.00  0.00    +0.000 S 
ATOM     14  H   UNL     1       0.905   7.713  20.851  0.00  0.00    +0.000 HD
BRANCH  11  15
ATOM     15  C   UNL     1       4.920   5.081  18.001  0.00  0.00    +0.000 A 
ATOM     16  C   UNL     1       6.228   5.159  18.492  0.00  0.00    +0.000 A 
ATOM     17  C   UNL     1       7.299   4.816  17.670  0.00  0.00    +0.000 A 
ATOM     18  C   UNL     1       7.027   4.398  16.379  0.00  0.00    +0.000 A 
ATOM     19  N   UNL     1       5.781   4.302  15.866  0.00  0.00    +0.000 NA
ATOM     20  C   UNL     1       4.761   4.639  16.691  0.00  0.00    +0.000 A 
ENDBRANCH  11  15
ENDBRANCH   1   7
BRANCH   4  21
ATOM     21  C   UNL     1      -1.318  12.261  21.862  0.00  0.00    +0.000 A 
ATOM     22  C   UNL     1      -2.614  12.011  22.329  0.00  0.00    +0.000 A 
ATOM     23  C   UNL     1      -3.186  12.832  23.304  0.00  0.00    +0.000 A 
ATOM     24  C   UNL     1      -2.462  13.893  23.842  0.00  0.00    +0.000 A 
ATOM     25  C   UNL     1      -1.162  14.132  23.405  0.00  0.00    +0.000 A 
ATOM     26  C   UNL     1      -0.594  13.320  22.425  0.00  0.00    +0.000 A 
ATOM     27  F   UNL     1       0.639  13.635  22.000  0.00  0.00    +0.000 F 
ENDBRANCH   4  21
BRANCH   5  28
ATOM     28  C   UNL     1       0.177   9.571  22.316  0.00  0.00    +0.000 C 
ATOM     29  F   UNL     1      -0.200  10.352  23.361  0.00  0.00    +0.000 F 
ATOM     30  F   UNL     1      -0.601   8.468  22.382  0.00  0.00    +0.000 F 
ATOM     31  F   UNL     1       1.451   9.199  22.588  0.00  0.00    +0.000 F 
ENDBRANCH   5  28
TORSDOF 4
ENDMDL
