MODEL 1
REMARK VINA RESULT:      -8.8      0.000      0.000
REMARK  Name = 
REMARK  6 active torsions:
REMARK  status: ('A' for Active; 'I' for Inactive)
REMARK    1  A    between atoms: C_2  and  C_4
REMARK    2  A    between atoms: C_7  and  N_8
REMARK    3  A    between atoms: C_9  and  C_11
REMARK    4  A    between atoms: C_20  and  C_21
REMARK    5  A    between atoms: C_21  and  O_22
REMARK    6  A    between atoms: O_22  and  C_23
REMARK                            x       y       z     vdW  Elec       q    Type
REMARK                         _______ _______ _______ _____ _____    ______ ____
ROOT
ATOM      1  C   UNL     1       2.867   5.229  17.817  0.00  0.00    +0.000 A 
ATOM      2  S   UNL     1       1.288   4.487  17.731  0.00  0.00    +0.000 S 
ATOM      3  C   UNL     1       1.691   3.722  19.236  0.00  0.00    +0.000 A 
ATOM      4  C   UNL     1       0.823   3.276  20.241  0.00  0.00    +0.000 A 
ATOM      5  C   UNL     1       1.383   2.668  21.363  0.00  0.00    +0.000 A 
ATOM      6  C   UNL     1       2.751   2.429  21.436  0.00  0.00    +0.000 A 
ATOM      7  C   UNL     1       3.592   2.818  20.392  0.00  0.00    +0.000 A 
ATOM      8  F   UNL     1       4.906   2.581  20.510  0.00  0.00    +0.000 F 
ATOM      9  C   UNL     1       3.085   3.550  19.298  0.00  0.00    +0.000 A 
ATOM     10  C   UNL     1       3.689   4.151  18.134  0.00  0.00    +0.000 A 
ENDROOT
BRANCH   1  12
ATOM     11  N   UNL     1       1.975   6.966  19.261  0.00  0.00    +0.000 N 
ATOM     12  C   UNL     1       2.844   6.639  18.222  0.00  0.00    +0.000 C 
ATOM     13  O   UNL     1       3.511   7.485  17.627  0.00  0.00    +0.000 OA
ATOM     14  H   UNL     1       1.660   6.226  19.876  0.00  0.00    +0.000 HD
BRANCH  11  18
ATOM     15  C   UNL     1       0.900  10.939  20.275  0.00  0.00    +0.000 A 
ATOM     16  C   UNL     1       1.131  10.603  18.941  0.00  0.00    +0.000 A 
ATOM     17  C   UNL     1       1.464   9.288  18.599  0.00  0.00    +0.000 A 
ATOM     18  C   UNL     1       1.582   8.291  19.577  0.00  0.00    +0.000 A 
ATOM     19  C   UNL     1       1.286   8.618  20.904  0.00  0.00    +0.000 A 
ATOM     20  C   UNL     1       0.980   9.942  21.256  0.00  0.00    +0.000 A 
BRANCH  15  22
ATOM     21  N   UNL     1       0.537  13.281  19.693  0.00  0.00    +0.000 N 
ATOM     22  C   UNL     1       0.615  12.340  20.685  0.00  0.00    +0.000 C 
ATOM     23  O   UNL     1       0.436  12.644  21.855  0.00  0.00    +0.000 OA
ATOM     24  H   UNL     1       0.280  14.220  19.972  0.00  0.00    +0.000 HD
ATOM     25  H   UNL     1       0.470  13.046  18.714  0.00  0.00    +0.000 HD
ENDBRANCH  15  22
ENDBRANCH  11  18
ENDBRANCH   1  12
BRANCH  10  26
ATOM     26  C   UNL     1       4.950   3.720  17.462  0.00  0.00    +0.000 C 
BRANCH  26  27
ATOM     27  O   UNL     1       5.562   4.740  16.688  0.00  0.00    +0.000 OA
BRANCH  27  28
ATOM     28  C   UNL     1       6.417   5.612  17.280  0.00  0.00    +0.000 A 
ATOM     29  C   UNL     1       6.713   6.904  16.853  0.00  0.00    +0.000 A 
ATOM     30  C   UNL     1       7.631   7.678  17.566  0.00  0.00    +0.000 A 
ATOM     31  C   UNL     1       8.250   7.161  18.704  0.00  0.00    +0.000 A 
ATOM     32  C   UNL     1       7.959   5.870  19.128  0.00  0.00    +0.000 A 
ATOM     33  C   UNL     1       7.043   5.097  18.419  0.00  0.00    +0.000 A 
ENDBRANCH  27  28
ENDBRANCH  26  27
ENDBRANCH  10  26
TORSDOF 6
ENDMDL
MODEL 2
REMARK VINA RESULT:      -8.7      0.228      1.264
REMARK  Name = 
REMARK  6 active torsions:
REMARK  status: ('A' for Active; 'I' for Inactive)
REMARK    1  A    between atoms: C_2  and  C_4
REMARK    2  A    between atoms: C_7  and  N_8
REMARK    3  A    between atoms: C_9  and  C_11
REMARK    4  A    between atoms: C_20  and  C_21
REMARK    5  A    between atoms: C_21  and  O_22
REMARK    6  A    between atoms: O_22  and  C_23
REMARK                            x       y       z     vdW  Elec       q    Type
REMARK                         _______ _______ _______ _____ _____    ______ ____
ROOT
ATOM      1  C   UNL     1       2.820   5.238  17.822  0.00  0.00    +0.000 A 
ATOM      2  S   UNL     1       1.239   4.497  17.775  0.00  0.00    +0.000 S 
ATOM      3  C   UNL     1       1.697   3.696  19.246  0.00  0.00    +0.000 A 
ATOM      4  C   UNL     1       0.866   3.225  20.271  0.00  0.00    +0.000 A 
ATOM      5  C   UNL     1       1.467   2.592  21.358  0.00  0.00    +0.000 A 
ATOM      6  C   UNL     1       2.836   2.352  21.375  0.00  0.00    +0.000 A 
ATOM      7  C   UNL     1       3.638   2.767  20.311  0.00  0.00    +0.000 A 
ATOM      8  F   UNL     1       4.956   2.529  20.375  0.00  0.00    +0.000 F 
ATOM      9  C   UNL     1       3.092   3.524  19.254  0.00  0.00    +0.000 A 
ATOM     10  C   UNL     1       3.654   4.153  18.083  0.00  0.00    +0.000 A 
ENDROOT
BRANCH   1  12
ATOM     11  N   UNL     1       2.034   6.926  19.380  0.00  0.00    +0.000 N 
ATOM     12  C   UNL     1       2.811   6.638  18.260  0.00  0.00    +0.000 C 
ATOM     13  O   UNL     1       3.410   7.508  17.629  0.00  0.00    +0.000 OA
ATOM     14  H   UNL     1       1.787   6.168  20.003  0.00  0.00    +0.000 HD
BRANCH  11  18
ATOM     15  C   UNL     1       0.784  10.831  20.457  0.00  0.00    +0.000 A 
ATOM     16  C   UNL     1       1.008   9.877  21.450  0.00  0.00    +0.000 A 
ATOM     17  C   UNL     1       1.442   8.593  21.101  0.00  0.00    +0.000 A 
ATOM     18  C   UNL     1       1.650   8.236  19.761  0.00  0.00    +0.000 A 
ATOM     19  C   UNL     1       1.486   9.215  18.777  0.00  0.00    +0.000 A 
ATOM     20  C   UNL     1       1.023  10.495  19.119  0.00  0.00    +0.000 A 
BRANCH  15  22
ATOM     21  N   UNL     1      -0.262  12.920  19.751  0.00  0.00    +0.000 N 
ATOM     22  C   UNL     1       0.253  12.181  20.784  0.00  0.00    +0.000 C 
ATOM     23  O   UNL     1       0.251  12.613  21.927  0.00  0.00    +0.000 OA
ATOM     24  H   UNL     1      -0.680  13.810  19.990  0.00  0.00    +0.000 HD
ATOM     25  H   UNL     1      -0.471  12.529  18.844  0.00  0.00    +0.000 HD
ENDBRANCH  15  22
ENDBRANCH  11  18
ENDBRANCH   1  12
BRANCH  10  26
ATOM     26  C   UNL     1       4.889   3.740  17.355  0.00  0.00    +0.000 C 
BRANCH  26  27
ATOM     27  O   UNL     1       5.560   4.813  16.714  0.00  0.00    +0.000 OA
BRANCH  27  28
ATOM     28  C   UNL     1       6.463   5.552  17.409  0.00  0.00    +0.000 A 
ATOM     29  C   UNL     1       7.133   5.169  18.569  0.00  0.00    +0.000 A 
ATOM     30  C   UNL     1       8.027   6.052  19.177  0.00  0.00    +0.000 A 
ATOM     31  C   UNL     1       8.252   7.314  18.627  0.00  0.00    +0.000 A 
ATOM     32  C   UNL     1       7.580   7.698  17.472  0.00  0.00    +0.000 A 
ATOM     33  C   UNL     1       6.690   6.819  16.862  0.00  0.00    +0.000 A 
ENDBRANCH  27  28
ENDBRANCH  26  27
ENDBRANCH  10  26
TORSDOF 6
ENDMDL
MODEL 3
REMARK VINA RESULT:      -8.7      2.084      4.897
REMARK  Name = 
REMARK  6 active torsions:
REMARK  status: ('A' for Active; 'I' for Inactive)
REMARK    1  A    between atoms: C_2  and  C_4
REMARK    2  A    between atoms: C_7  and  N_8
REMARK    3  A    between atoms: C_9  and  C_11
REMARK    4  A    between atoms: C_20  and  C_21
REMARK    5  A    between atoms: C_21  and  O_22
REMARK    6  A    between atoms: O_22  and  C_23
REMARK                            x       y       z     vdW  Elec       q    Type
REMARK                         _______ _______ _______ _____ _____    ______ ____
ROOT
ATOM      1  C   UNL     1       3.914   5.291  18.132  0.00  0.00    +0.000 A 
ATOM      2  S   UNL     1       5.467   4.997  18.876  0.00  0.00    +0.000 S 
ATOM      3  C   UNL     1       6.103   4.947  17.262  0.00  0.00    +0.000 A 
ATOM      4  C   UNL     1       7.404   5.242  16.833  0.00  0.00    +0.000 A 
ATOM      5  C   UNL     1       7.689   5.111  15.475  0.00  0.00    +0.000 A 
ATOM      6  C   UNL     1       6.737   4.613  14.593  0.00  0.00    +0.000 A 
ATOM      7  C   UNL     1       5.467   4.258  15.051  0.00  0.00    +0.000 A 
ATOM      8  F   UNL     1       4.575   3.796  14.163  0.00  0.00    +0.000 F 
ATOM      9  C   UNL     1       5.097   4.496  16.391  0.00  0.00    +0.000 A 
ATOM     10  C   UNL     1       3.871   4.322  17.133  0.00  0.00    +0.000 A 
ENDROOT
BRANCH   1  12
ATOM     11  N   UNL     1       2.540   6.980  19.206  0.00  0.00    +0.000 N 
ATOM     12  C   UNL     1       3.468   6.687  18.210  0.00  0.00    +0.000 C 
ATOM     13  O   UNL     1       3.852   7.526  17.396  0.00  0.00    +0.000 OA
ATOM     14  H   UNL     1       2.461   6.348  19.993  0.00  0.00    +0.000 HD
BRANCH  11  18
ATOM     15  C   UNL     1       0.145  10.478  19.246  0.00  0.00    +0.000 A 
ATOM     16  C   UNL     1       0.435   9.824  20.443  0.00  0.00    +0.000 A 
ATOM     17  C   UNL     1       1.244   8.681  20.438  0.00  0.00    +0.000 A 
ATOM     18  C   UNL     1       1.767   8.168  19.243  0.00  0.00    +0.000 A 
ATOM     19  C   UNL     1       1.527   8.865  18.055  0.00  0.00    +0.000 A 
ATOM     20  C   UNL     1       0.693   9.994  18.052  0.00  0.00    +0.000 A 
BRANCH  15  22
ATOM     21  N   UNL     1      -0.895  12.305  18.007  0.00  0.00    +0.000 N 
ATOM     22  C   UNL     1      -0.768  11.650  19.203  0.00  0.00    +0.000 C 
ATOM     23  O   UNL     1      -1.401  12.009  20.185  0.00  0.00    +0.000 OA
ATOM     24  H   UNL     1      -1.566  13.062  17.968  0.00  0.00    +0.000 HD
ATOM     25  H   UNL     1      -0.561  11.926  17.132  0.00  0.00    +0.000 HD
ENDBRANCH  15  22
ENDBRANCH  11  18
ENDBRANCH   1  12
BRANCH  10  26
ATOM     26  C   UNL     1       2.785   3.340  16.843  0.00  0.00    +0.000 C 
BRANCH  26  27
ATOM     27  O   UNL     1       2.742   2.252  17.752  0.00  0.00    +0.000 OA
BRANCH  27  28
ATOM     28  C   UNL     1       2.438   2.477  19.056  0.00  0.00    +0.000 A 
ATOM     29  C   UNL     1       3.269   2.261  20.152  0.00  0.00    +0.000 A 
ATOM     30  C   UNL     1       2.804   2.529  21.441  0.00  0.00    +0.000 A 
ATOM     31  C   UNL     1       1.511   3.014  21.633  0.00  0.00    +0.000 A 
ATOM     32  C   UNL     1       0.678   3.225  20.540  0.00  0.00    +0.000 A 
ATOM     33  C   UNL     1       1.141   2.960  19.254  0.00  0.00    +0.000 A 
ENDBRANCH  27  28
ENDBRANCH  26  27
ENDBRANCH  10  26
TORSDOF 6
ENDMDL
MODEL 4
REMARK VINA RESULT:      -8.5      2.398      5.137
REMARK  Name = 
REMARK  6 active torsions:
REMARK  status: ('A' for Active; 'I' for Inactive)
REMARK    1  A    between atoms: C_2  and  C_4
REMARK    2  A    between atoms: C_7  and  N_8
REMARK    3  A    between atoms: C_9  and  C_11
REMARK    4  A    between atoms: C_20  and  C_21
REMARK    5  A    between atoms: C_21  and  O_22
REMARK    6  A    between atoms: O_22  and  C_23
REMARK                            x       y       z     vdW  Elec       q    Type
REMARK                         _______ _______ _______ _____ _____    ______ ____
ROOT
ATOM      1  C   UNL     1       4.757   4.880  17.731  0.00  0.00    +0.000 A 
ATOM      2  S   UNL     1       6.475   4.671  17.963  0.00  0.00    +0.000 S 
ATOM      3  C   UNL     1       6.600   4.723  16.233  0.00  0.00    +0.000 A 
ATOM      4  C   UNL     1       7.694   5.125  15.454  0.00  0.00    +0.000 A 
ATOM      5  C   UNL     1       7.564   5.062  14.067  0.00  0.00    +0.000 A 
ATOM      6  C   UNL     1       6.422   4.529  13.482  0.00  0.00    +0.000 A 
ATOM      7  C   UNL     1       5.371   4.069  14.276  0.00  0.00    +0.000 A 
ATOM      8  F   UNL     1       4.282   3.576  13.669  0.00  0.00    +0.000 F 
ATOM      9  C   UNL     1       5.406   4.232  15.676  0.00  0.00    +0.000 A 
ATOM     10  C   UNL     1       4.472   3.945  16.738  0.00  0.00    +0.000 A 
ENDROOT
BRANCH   1  12
ATOM     11  N   UNL     1       3.158   6.331  18.842  0.00  0.00    +0.000 N 
ATOM     12  C   UNL     1       4.275   6.236  18.014  0.00  0.00    +0.000 C 
ATOM     13  O   UNL     1       4.798   7.220  17.493  0.00  0.00    +0.000 OA
ATOM     14  H   UNL     1       2.935   5.547  19.442  0.00  0.00    +0.000 HD
BRANCH  11  18
ATOM     15  C   UNL     1       0.716   9.782  19.165  0.00  0.00    +0.000 A 
ATOM     16  C   UNL     1       1.018   9.037  20.306  0.00  0.00    +0.000 A 
ATOM     17  C   UNL     1       1.842   7.910  20.207  0.00  0.00    +0.000 A 
ATOM     18  C   UNL     1       2.370   7.502  18.975  0.00  0.00    +0.000 A 
ATOM     19  C   UNL     1       2.117   8.289  17.847  0.00  0.00    +0.000 A 
ATOM     20  C   UNL     1       1.268   9.403  17.935  0.00  0.00    +0.000 A 
BRANCH  15  22
ATOM     21  N   UNL     1      -0.472  11.593  18.041  0.00  0.00    +0.000 N 
ATOM     22  C   UNL     1      -0.213  10.941  19.218  0.00  0.00    +0.000 C 
ATOM     23  O   UNL     1      -0.746  11.291  20.260  0.00  0.00    +0.000 OA
ATOM     24  H   UNL     1      -1.154  12.340  18.073  0.00  0.00    +0.000 HD
ATOM     25  H   UNL     1      -0.225  11.217  17.137  0.00  0.00    +0.000 HD
ENDBRANCH  15  22
ENDBRANCH  11  18
ENDBRANCH   1  12
BRANCH  10  26
ATOM     26  C   UNL     1       3.407   2.900  16.730  0.00  0.00    +0.000 C 
BRANCH  26  27
ATOM     27  O   UNL     1       3.394   2.089  17.895  0.00  0.00    +0.000 OA
BRANCH  27  28
ATOM     28  C   UNL     1       2.639   2.457  18.961  0.00  0.00    +0.000 A 
ATOM     29  C   UNL     1       1.325   2.916  18.929  0.00  0.00    +0.000 A 
ATOM     30  C   UNL     1       0.683   3.270  20.118  0.00  0.00    +0.000 A 
ATOM     31  C   UNL     1       1.355   3.164  21.336  0.00  0.00    +0.000 A 
ATOM     32  C   UNL     1       2.668   2.710  21.368  0.00  0.00    +0.000 A 
ATOM     33  C   UNL     1       3.309   2.355  20.184  0.00  0.00    +0.000 A 
ENDBRANCH  27  28
ENDBRANCH  26  27
ENDBRANCH  10  26
TORSDOF 6
ENDMDL
MODEL 5
REMARK VINA RESULT:      -8.5      2.403      5.126
REMARK  Name = 
REMARK  6 active torsions:
REMARK  status: ('A' for Active; 'I' for Inactive)
REMARK    1  A    between atoms: C_2  and  C_4
REMARK    2  A    between atoms: C_7  and  N_8
REMARK    3  A    between atoms: C_9  and  C_11
REMARK    4  A    between atoms: C_20  and  C_21
REMARK    5  A    between atoms: C_21  and  O_22
REMARK    6  A    between atoms: O_22  and  C_23
REMARK                            x       y       z     vdW  Elec       q    Type
REMARK                         _______ _______ _______ _____ _____    ______ ____
ROOT
ATOM      1  C   UNL     1       4.963   4.840  17.729  0.00  0.00    +0.000 A 
ATOM      2  S   UNL     1       6.698   4.702  17.874  0.00  0.00    +0.000 S 
ATOM      3  C   UNL     1       6.732   4.747  16.139  0.00  0.00    +0.000 A 
ATOM      4  C   UNL     1       7.767   5.187  15.303  0.00  0.00    +0.000 A 
ATOM      5  C   UNL     1       7.570   5.110  13.926  0.00  0.00    +0.000 A 
ATOM      6  C   UNL     1       6.422   4.527  13.402  0.00  0.00    +0.000 A 
ATOM      7  C   UNL     1       5.432   4.031  14.251  0.00  0.00    +0.000 A 
ATOM      8  F   UNL     1       4.334   3.490  13.703  0.00  0.00    +0.000 F 
ATOM      9  C   UNL     1       5.532   4.205  15.647  0.00  0.00    +0.000 A 
ATOM     10  C   UNL     1       4.665   3.888  16.757  0.00  0.00    +0.000 A 
ENDROOT
BRANCH   1  12
ATOM     11  N   UNL     1       3.243   6.226  18.739  0.00  0.00    +0.000 N 
ATOM     12  C   UNL     1       4.442   6.178  18.030  0.00  0.00    +0.000 C 
ATOM     13  O   UNL     1       5.008   7.190  17.620  0.00  0.00    +0.000 OA
ATOM     14  H   UNL     1       2.965   5.410  19.270  0.00  0.00    +0.000 HD
BRANCH  11  18
ATOM     15  C   UNL     1       0.907   9.740  19.143  0.00  0.00    +0.000 A 
ATOM     16  C   UNL     1       1.396   9.374  17.889  0.00  0.00    +0.000 A 
ATOM     17  C   UNL     1       2.149   8.203  17.747  0.00  0.00    +0.000 A 
ATOM     18  C   UNL     1       2.434   7.385  18.848  0.00  0.00    +0.000 A 
ATOM     19  C   UNL     1       1.887   7.722  20.090  0.00  0.00    +0.000 A 
ATOM     20  C   UNL     1       1.156   8.910  20.243  0.00  0.00    +0.000 A 
BRANCH  15  22
ATOM     21  N   UNL     1      -0.440  11.569  18.250  0.00  0.00    +0.000 N 
ATOM     22  C   UNL     1       0.166  11.013  19.346  0.00  0.00    +0.000 C 
ATOM     23  O   UNL     1       0.077  11.537  20.446  0.00  0.00    +0.000 OA
ATOM     24  H   UNL     1      -0.996  12.400  18.408  0.00  0.00    +0.000 HD
ATOM     25  H   UNL     1      -0.570  11.072  17.381  0.00  0.00    +0.000 HD
ENDBRANCH  15  22
ENDBRANCH  11  18
ENDBRANCH   1  12
BRANCH  10  26
ATOM     26  C   UNL     1       3.645   2.800  16.808  0.00  0.00    +0.000 C 
BRANCH  26  27
ATOM     27  O   UNL     1       3.699   2.023  17.995  0.00  0.00    +0.000 OA
BRANCH  27  28
ATOM     28  C   UNL     1       2.973   2.400  19.079  0.00  0.00    +0.000 A 
ATOM     29  C   UNL     1       3.420   2.459  20.397  0.00  0.00    +0.000 A 
ATOM     30  C   UNL     1       2.545   2.856  21.409  0.00  0.00    +0.000 A 
ATOM     31  C   UNL     1       1.226   3.194  21.104  0.00  0.00    +0.000 A 
ATOM     32  C   UNL     1       0.779   3.130  19.790  0.00  0.00    +0.000 A 
ATOM     33  C   UNL     1       1.650   2.737  18.778  0.00  0.00    +0.000 A 
ENDBRANCH  27  28
ENDBRANCH  26  27
ENDBRANCH  10  26
TORSDOF 6
ENDMDL
MODEL 6
REMARK VINA RESULT:      -8.5      2.050      4.804
REMARK  Name = 
REMARK  6 active torsions:
REMARK  status: ('A' for Active; 'I' for Inactive)
REMARK    1  A    between atoms: C_2  and  C_4
REMARK    2  A    between atoms: C_7  and  N_8
REMARK    3  A    between atoms: C_9  and  C_11
REMARK    4  A    between atoms: C_20  and  C_21
REMARK    5  A    between atoms: C_21  and  O_22
REMARK    6  A    between atoms: O_22  and  C_23
REMARK                            x       y       z     vdW  Elec       q    Type
REMARK                         _______ _______ _______ _____ _____    ______ ____
ROOT
ATOM      1  C   UNL     1       3.941   5.137  18.195  0.00  0.00    +0.000 A 
ATOM      2  S   UNL     1       5.513   4.818  18.885  0.00  0.00    +0.000 S 
ATOM      3  C   UNL     1       6.112   4.866  17.257  0.00  0.00    +0.000 A 
ATOM      4  C   UNL     1       7.400   5.198  16.816  0.00  0.00    +0.000 A 
ATOM      5  C   UNL     1       7.653   5.147  15.446  0.00  0.00    +0.000 A 
ATOM      6  C   UNL     1       6.686   4.689  14.560  0.00  0.00    +0.000 A 
ATOM      7  C   UNL     1       5.431   4.296  15.026  0.00  0.00    +0.000 A 
ATOM      8  F   UNL     1       4.523   3.874  14.134  0.00  0.00    +0.000 F 
ATOM      9  C   UNL     1       5.090   4.453  16.385  0.00  0.00    +0.000 A 
ATOM     10  C   UNL     1       3.883   4.225  17.144  0.00  0.00    +0.000 A 
ENDROOT
BRANCH   1  12
ATOM     11  N   UNL     1       2.672   6.770  19.466  0.00  0.00    +0.000 N 
ATOM     12  C   UNL     1       3.484   6.521  18.362  0.00  0.00    +0.000 C 
ATOM     13  O   UNL     1       3.757   7.387  17.532  0.00  0.00    +0.000 OA
ATOM     14  H   UNL     1       2.695   6.117  20.239  0.00  0.00    +0.000 HD
BRANCH  11  18
ATOM     15  C   UNL     1       0.413  10.315  20.017  0.00  0.00    +0.000 A 
ATOM     16  C   UNL     1       0.899   9.994  18.750  0.00  0.00    +0.000 A 
ATOM     17  C   UNL     1       1.626   8.813  18.559  0.00  0.00    +0.000 A 
ATOM     18  C   UNL     1       1.889   7.941  19.624  0.00  0.00    +0.000 A 
ATOM     19  C   UNL     1       1.344   8.236  20.877  0.00  0.00    +0.000 A 
ATOM     20  C   UNL     1       0.639   9.433  21.080  0.00  0.00    +0.000 A 
BRANCH  15  22
ATOM     21  N   UNL     1       0.296  12.486  21.124  0.00  0.00    +0.000 N 
ATOM     22  C   UNL     1      -0.300  11.594  20.273  0.00  0.00    +0.000 C 
ATOM     23  O   UNL     1      -1.365  11.857  19.734  0.00  0.00    +0.000 OA
ATOM     24  H   UNL     1      -0.162  13.381  21.244  0.00  0.00    +0.000 HD
ATOM     25  H   UNL     1       1.258  12.406  21.423  0.00  0.00    +0.000 HD
ENDBRANCH  15  22
ENDBRANCH  11  18
ENDBRANCH   1  12
BRANCH  10  26
ATOM     26  C   UNL     1       2.801   3.249  16.824  0.00  0.00    +0.000 C 
BRANCH  26  27
ATOM     27  O   UNL     1       2.703   2.180  17.752  0.00  0.00    +0.000 OA
BRANCH  27  28
ATOM     28  C   UNL     1       2.407   2.442  19.051  0.00  0.00    +0.000 A 
ATOM     29  C   UNL     1       3.215   2.183  20.155  0.00  0.00    +0.000 A 
ATOM     30  C   UNL     1       2.762   2.500  21.437  0.00  0.00    +0.000 A 
ATOM     31  C   UNL     1       1.504   3.076  21.614  0.00  0.00    +0.000 A 
ATOM     32  C   UNL     1       0.695   3.331  20.513  0.00  0.00    +0.000 A 
ATOM     33  C   UNL     1       1.146   3.017  19.234  0.00  0.00    +0.000 A 
ENDBRANCH  27  28
ENDBRANCH  26  27
ENDBRANCH  10  26
TORSDOF 6
ENDMDL
MODEL 7
REMARK VINA RESULT:      -8.5      2.083      4.758
REMARK  Name = 
REMARK  6 active torsions:
REMARK  status: ('A' for Active; 'I' for Inactive)
REMARK    1  A    between atoms: C_2  and  C_4
REMARK    2  A    between atoms: C_7  and  N_8
REMARK    3  A    between atoms: C_9  and  C_11
REMARK    4  A    between atoms: C_20  and  C_21
REMARK    5  A    between atoms: C_21  and  O_22
REMARK    6  A    between atoms: O_22  and  C_23
REMARK                            x       y       z     vdW  Elec       q    Type
REMARK                         _______ _______ _______ _____ _____    ______ ____
ROOT
ATOM      1  C   UNL     1       4.029   5.104  18.099  0.00  0.00    +0.000 A 
ATOM      2  S   UNL     1       5.612   4.769  18.756  0.00  0.00    +0.000 S 
ATOM      3  C   UNL     1       6.178   4.815  17.116  0.00  0.00    +0.000 A 
ATOM      4  C   UNL     1       7.460   5.137  16.650  0.00  0.00    +0.000 A 
ATOM      5  C   UNL     1       7.685   5.086  15.275  0.00  0.00    +0.000 A 
ATOM      6  C   UNL     1       6.696   4.639  14.407  0.00  0.00    +0.000 A 
ATOM      7  C   UNL     1       5.447   4.257  14.898  0.00  0.00    +0.000 A 
ATOM      8  F   UNL     1       4.517   3.846  14.024  0.00  0.00    +0.000 F 
ATOM      9  C   UNL     1       5.135   4.414  16.264  0.00  0.00    +0.000 A 
ATOM     10  C   UNL     1       3.942   4.195  17.047  0.00  0.00    +0.000 A 
ENDROOT
BRANCH   1  12
ATOM     11  N   UNL     1       2.700   6.724  19.325  0.00  0.00    +0.000 N 
ATOM     12  C   UNL     1       3.589   6.492  18.278  0.00  0.00    +0.000 C 
ATOM     13  O   UNL     1       3.942   7.379  17.501  0.00  0.00    +0.000 OA
ATOM     14  H   UNL     1       2.651   6.045  20.075  0.00  0.00    +0.000 HD
BRANCH  11  18
ATOM     15  C   UNL     1       0.484  10.305  19.814  0.00  0.00    +0.000 A 
ATOM     16  C   UNL     1       0.948   9.945  18.549  0.00  0.00    +0.000 A 
ATOM     17  C   UNL     1       1.660   8.752  18.379  0.00  0.00    +0.000 A 
ATOM     18  C   UNL     1       1.931   7.907  19.463  0.00  0.00    +0.000 A 
ATOM     19  C   UNL     1       1.409   8.241  20.717  0.00  0.00    +0.000 A 
ATOM     20  C   UNL     1       0.718   9.450  20.898  0.00  0.00    +0.000 A 
BRANCH  15  22
ATOM     21  N   UNL     1      -1.549  11.653  19.753  0.00  0.00    +0.000 N 
ATOM     22  C   UNL     1      -0.212  11.598  20.047  0.00  0.00    +0.000 C 
ATOM     23  O   UNL     1       0.371  12.570  20.502  0.00  0.00    +0.000 OA
ATOM     24  H   UNL     1      -2.031  12.516  19.974  0.00  0.00    +0.000 HD
ATOM     25  H   UNL     1      -2.110  10.832  19.578  0.00  0.00    +0.000 HD
ENDBRANCH  15  22
ENDBRANCH  11  18
ENDBRANCH   1  12
BRANCH  10  26
ATOM     26  C   UNL     1       2.844   3.231  16.747  0.00  0.00    +0.000 C 
BRANCH  26  27
ATOM     27  O   UNL     1       2.680   2.226  17.736  0.00  0.00    +0.000 OA
BRANCH  27  28
ATOM     28  C   UNL     1       2.269   2.571  18.983  0.00  0.00    +0.000 A 
ATOM     29  C   UNL     1       1.097   3.247  19.314  0.00  0.00    +0.000 A 
ATOM     30  C   UNL     1       0.819   3.543  20.649  0.00  0.00    +0.000 A 
ATOM     31  C   UNL     1       1.711   3.163  21.652  0.00  0.00    +0.000 A 
ATOM     32  C   UNL     1       2.883   2.493  21.323  0.00  0.00    +0.000 A 
ATOM     33  C   UNL     1       3.161   2.195  19.991  0.00  0.00    +0.000 A 
ENDBRANCH  27  28
ENDBRANCH  26  27
ENDBRANCH  10  26
TORSDOF 6
ENDMDL
MODEL 8
REMARK VINA RESULT:      -8.4      2.162      4.974
REMARK  Name = 
REMARK  6 active torsions:
REMARK  status: ('A' for Active; 'I' for Inactive)
REMARK    1  A    between atoms: C_2  and  C_4
REMARK    2  A    between atoms: C_7  and  N_8
REMARK    3  A    between atoms: C_9  and  C_11
REMARK    4  A    between atoms: C_20  and  C_21
REMARK    5  A    between atoms: C_21  and  O_22
REMARK    6  A    between atoms: O_22  and  C_23
REMARK                            x       y       z     vdW  Elec       q    Type
REMARK                         _______ _______ _______ _____ _____    ______ ____
ROOT
ATOM      1  C   UNL     1       3.875   4.616  18.280  0.00  0.00    +0.000 A 
ATOM      2  S   UNL     1       5.332   5.147  19.083  0.00  0.00    +0.000 S 
ATOM      3  C   UNL     1       6.040   5.226  17.500  0.00  0.00    +0.000 A 
ATOM      4  C   UNL     1       7.094   6.039  17.062  0.00  0.00    +0.000 A 
ATOM      5  C   UNL     1       7.507   5.912  15.736  0.00  0.00    +0.000 A 
ATOM      6  C   UNL     1       6.953   4.943  14.908  0.00  0.00    +0.000 A 
ATOM      7  C   UNL     1       5.952   4.096  15.384  0.00  0.00    +0.000 A 
ATOM      8  F   UNL     1       5.436   3.186  14.545  0.00  0.00    +0.000 F 
ATOM      9  C   UNL     1       5.416   4.275  16.676  0.00  0.00    +0.000 A 
ATOM     10  C   UNL     1       4.351   3.637  17.411  0.00  0.00    +0.000 A 
ENDROOT
BRANCH   1  12
ATOM     11  N   UNL     1       3.184   6.914  18.649  0.00  0.00    +0.000 N 
ATOM     12  C   UNL     1       2.841   5.651  18.172  0.00  0.00    +0.000 C 
ATOM     13  O   UNL     1       1.719   5.389  17.741  0.00  0.00    +0.000 OA
ATOM     14  H   UNL     1       4.165   7.145  18.740  0.00  0.00    +0.000 HD
BRANCH  11  18
ATOM     15  C   UNL     1       0.294   9.930  19.377  0.00  0.00    +0.000 A 
ATOM     16  C   UNL     1       0.717   9.109  20.423  0.00  0.00    +0.000 A 
ATOM     17  C   UNL     1       1.687   8.126  20.192  0.00  0.00    +0.000 A 
ATOM     18  C   UNL     1       2.243   7.940  18.919  0.00  0.00    +0.000 A 
ATOM     19  C   UNL     1       1.864   8.808  17.891  0.00  0.00    +0.000 A 
ATOM     20  C   UNL     1       0.870   9.775  18.110  0.00  0.00    +0.000 A 
BRANCH  15  22
ATOM     21  N   UNL     1      -0.953  11.446  20.826  0.00  0.00    +0.000 N 
ATOM     22  C   UNL     1      -0.785  10.934  19.567  0.00  0.00    +0.000 C 
ATOM     23  O   UNL     1      -1.484  11.310  18.638  0.00  0.00    +0.000 OA
ATOM     24  H   UNL     1      -1.646  12.176  20.935  0.00  0.00    +0.000 HD
ATOM     25  H   UNL     1      -0.276  11.326  21.565  0.00  0.00    +0.000 HD
ENDBRANCH  15  22
ENDBRANCH  11  18
ENDBRANCH   1  12
BRANCH  10  26
ATOM     26  C   UNL     1       3.853   2.242  17.228  0.00  0.00    +0.000 C 
BRANCH  26  27
ATOM     27  O   UNL     1       3.717   1.520  18.442  0.00  0.00    +0.000 OA
BRANCH  27  28
ATOM     28  C   UNL     1       2.937   2.017  19.436  0.00  0.00    +0.000 A 
ATOM     29  C   UNL     1       3.342   2.330  20.732  0.00  0.00    +0.000 A 
ATOM     30  C   UNL     1       2.412   2.823  21.650  0.00  0.00    +0.000 A 
ATOM     31  C   UNL     1       1.082   3.005  21.272  0.00  0.00    +0.000 A 
ATOM     32  C   UNL     1       0.677   2.688  19.981  0.00  0.00    +0.000 A 
ATOM     33  C   UNL     1       1.602   2.198  19.064  0.00  0.00    +0.000 A 
ENDBRANCH  27  28
ENDBRANCH  26  27
ENDBRANCH  10  26
TORSDOF 6
ENDMDL
MODEL 9
REMARK VINA RESULT:      -8.4      2.112      4.920
REMARK  Name = 
REMARK  6 active torsions:
REMARK  status: ('A' for Active; 'I' for Inactive)
REMARK    1  A    between atoms: C_2  and  C_4
REMARK    2  A    between atoms: C_7  and  N_8
REMARK    3  A    between atoms: C_9  and  C_11
REMARK    4  A    between atoms: C_20  and  C_21
REMARK    5  A    between atoms: C_21  and  O_22
REMARK    6  A    between atoms: O_22  and  C_23
REMARK                            x       y       z     vdW  Elec       q    Type
REMARK                         _______ _______ _______ _____ _____    ______ ____
ROOT
ATOM      1  C   UNL     1       3.895   4.633  18.274  0.00  0.00    +0.000 A 
ATOM      2  S   UNL     1       5.350   5.172  19.076  0.00  0.00    +0.000 S 
ATOM      3  C   UNL     1       6.058   5.248  17.494  0.00  0.00    +0.000 A 
ATOM      4  C   UNL     1       7.109   6.063  17.053  0.00  0.00    +0.000 A 
ATOM      5  C   UNL     1       7.523   5.933  15.728  0.00  0.00    +0.000 A 
ATOM      6  C   UNL     1       6.973   4.959  14.902  0.00  0.00    +0.000 A 
ATOM      7  C   UNL     1       5.975   4.109  15.381  0.00  0.00    +0.000 A 
ATOM      8  F   UNL     1       5.462   3.194  14.546  0.00  0.00    +0.000 F 
ATOM      9  C   UNL     1       5.438   4.291  16.672  0.00  0.00    +0.000 A 
ATOM     10  C   UNL     1       4.374   3.652  17.409  0.00  0.00    +0.000 A 
ENDROOT
BRANCH   1  12
ATOM     11  N   UNL     1       3.190   6.925  18.648  0.00  0.00    +0.000 N 
ATOM     12  C   UNL     1       2.857   5.663  18.162  0.00  0.00    +0.000 C 
ATOM     13  O   UNL     1       1.740   5.398  17.720  0.00  0.00    +0.000 OA
ATOM     14  H   UNL     1       4.169   7.160  18.749  0.00  0.00    +0.000 HD
BRANCH  11  18
ATOM     15  C   UNL     1       0.280   9.924  19.367  0.00  0.00    +0.000 A 
ATOM     16  C   UNL     1       0.711   9.112  20.416  0.00  0.00    +0.000 A 
ATOM     17  C   UNL     1       1.688   8.135  20.188  0.00  0.00    +0.000 A 
ATOM     18  C   UNL     1       2.242   7.946  18.915  0.00  0.00    +0.000 A 
ATOM     19  C   UNL     1       1.853   8.805  17.883  0.00  0.00    +0.000 A 
ATOM     20  C   UNL     1       0.853   9.766  18.099  0.00  0.00    +0.000 A 
BRANCH  15  22
ATOM     21  N   UNL     1      -1.866  10.866  18.686  0.00  0.00    +0.000 N 
ATOM     22  C   UNL     1      -0.807  10.921  19.553  0.00  0.00    +0.000 C 
ATOM     23  O   UNL     1      -0.776  11.746  20.454  0.00  0.00    +0.000 OA
ATOM     24  H   UNL     1      -2.632  11.505  18.858  0.00  0.00    +0.000 HD
ATOM     25  H   UNL     1      -2.034  10.084  18.070  0.00  0.00    +0.000 HD
ENDBRANCH  15  22
ENDBRANCH  11  18
ENDBRANCH   1  12
BRANCH  10  26
ATOM     26  C   UNL     1       3.882   2.254  17.231  0.00  0.00    +0.000 C 
BRANCH  26  27
ATOM     27  O   UNL     1       3.671   1.563  18.453  0.00  0.00    +0.000 OA
BRANCH  27  28
ATOM     28  C   UNL     1       2.770   2.042  19.349  0.00  0.00    +0.000 A 
ATOM     29  C   UNL     1       1.423   2.305  19.113  0.00  0.00    +0.000 A 
ATOM     30  C   UNL     1       0.624   2.811  20.140  0.00  0.00    +0.000 A 
ATOM     31  C   UNL     1       1.171   3.053  21.400  0.00  0.00    +0.000 A 
ATOM     32  C   UNL     1       2.517   2.796  21.635  0.00  0.00    +0.000 A 
ATOM     33  C   UNL     1       3.315   2.290  20.613  0.00  0.00    +0.000 A 
ENDBRANCH  27  28
ENDBRANCH  26  27
ENDBRANCH  10  26
TORSDOF 6
ENDMDL
