MODEL 1
REMARK VINA RESULT:      -8.5      0.000      0.000
REMARK  Name = 
REMARK  6 active torsions:
REMARK  status: ('A' for Active; 'I' for Inactive)
REMARK    1  A    between atoms: S_2  and  N_4
REMARK    2  A    between atoms: S_2  and  C_19
REMARK    3  A    between atoms: N_4  and  C_5
REMARK    4  A    between atoms: C_7  and  C_8
REMARK    5  A    between atoms: C_8  and  C_9
REMARK    6  A    between atoms: C_17  and  O_18
REMARK                            x       y       z     vdW  Elec       q    Type
REMARK                         _______ _______ _______ _____ _____    ______ ____
ROOT
ATOM      1  N   UNL     1       2.278   3.703  18.518  0.00  0.00    +0.000 N 
ATOM      2  H   UNL     1       1.581   3.084  18.936  0.00  0.00    +0.000 HD
ENDROOT
BRANCH   1   3
ATOM      3  C   UNL     1       2.145   5.037  19.025  0.00  0.00    +0.000 A 
ATOM      4  C   UNL     1       2.307   6.136  18.178  0.00  0.00    +0.000 A 
ATOM      5  C   UNL     1       2.201   7.443  18.686  0.00  0.00    +0.000 A 
ATOM      6  C   UNL     1       1.937   7.618  20.055  0.00  0.00    +0.000 A 
ATOM      7  C   UNL     1       1.797   6.517  20.907  0.00  0.00    +0.000 A 
ATOM      8  C   UNL     1       1.898   5.233  20.386  0.00  0.00    +0.000 A 
BRANCH   8   9
ATOM      9  O   UNL     1       1.744   4.132  21.185  0.00  0.00    +0.000 OA
ATOM     10  H   UNL     1       2.296   4.250  21.979  0.00  0.00    +0.000 HD
ENDBRANCH   8   9
BRANCH   5  11
ATOM     11  C   UNL     1       2.397   8.644  17.787  0.00  0.00    +0.000 C 
BRANCH  11  12
ATOM     12  C   UNL     1       1.495   9.823  18.074  0.00  0.00    +0.000 A 
ATOM     13  C   UNL     1       0.098   9.690  18.024  0.00  0.00    +0.000 A 
ATOM     14  C   UNL     1      -0.732  10.773  18.328  0.00  0.00    +0.000 A 
ATOM     15  C   UNL     1      -0.178  12.001  18.682  0.00  0.00    +0.000 A 
ATOM     16  C   UNL     1       1.206  12.149  18.730  0.00  0.00    +0.000 A 
ATOM     17  C   UNL     1       2.039  11.068  18.427  0.00  0.00    +0.000 A 
ENDBRANCH  11  12
ENDBRANCH   5  11
ENDBRANCH   1   3
BRANCH   1  19
ATOM     18  O   UNL     1       4.023   2.845  20.124  0.00  0.00    +0.000 OA
ATOM     19  S   UNL     1       3.798   2.972  18.698  0.00  0.00    +0.000 S 
ATOM     20  O   UNL     1       3.913   1.833  17.813  0.00  0.00    +0.000 OA
BRANCH  19  21
ATOM     21  C   UNL     1       5.040   4.074  18.203  0.00  0.00    +0.000 A 
ATOM     22  C   UNL     1       5.741   4.931  19.039  0.00  0.00    +0.000 A 
ATOM     23  N   UNL     1       6.658   5.603  18.275  0.00  0.00    +0.000 N 
ATOM     24  C   UNL     1       6.552   5.209  16.970  0.00  0.00    +0.000 A 
ATOM     25  N   UNL     1       7.329   5.681  15.979  0.00  0.00    +0.000 NA
ATOM     26  C   UNL     1       7.055   5.119  14.780  0.00  0.00    +0.000 A 
ATOM     27  C   UNL     1       6.067   4.174  14.538  0.00  0.00    +0.000 A 
ATOM     28  C   UNL     1       5.283   3.729  15.603  0.00  0.00    +0.000 A 
ATOM     29  C   UNL     1       5.539   4.255  16.881  0.00  0.00    +0.000 A 
ATOM     30  H   UNL     1       7.337   6.281  18.600  0.00  0.00    +0.000 HD
ENDBRANCH  19  21
ENDBRANCH   1  19
TORSDOF 6
ENDMDL
MODEL 2
REMARK VINA RESULT:      -8.3      1.159      1.639
REMARK  Name = 
REMARK  6 active torsions:
REMARK  status: ('A' for Active; 'I' for Inactive)
REMARK    1  A    between atoms: S_2  and  N_4
REMARK    2  A    between atoms: S_2  and  C_19
REMARK    3  A    between atoms: N_4  and  C_5
REMARK    4  A    between atoms: C_7  and  C_8
REMARK    5  A    between atoms: C_8  and  C_9
REMARK    6  A    between atoms: C_17  and  O_18
REMARK                            x       y       z     vdW  Elec       q    Type
REMARK                         _______ _______ _______ _____ _____    ______ ____
ROOT
ATOM      1  N   UNL     1       3.326   4.746  18.446  0.00  0.00    +0.000 N 
ATOM      2  H   UNL     1       2.811   3.901  18.702  0.00  0.00    +0.000 HD
ENDROOT
BRANCH   1   3
ATOM      3  C   UNL     1       2.688   5.914  18.980  0.00  0.00    +0.000 A 
ATOM      4  C   UNL     1       2.602   7.083  18.220  0.00  0.00    +0.000 A 
ATOM      5  C   UNL     1       1.998   8.233  18.758  0.00  0.00    +0.000 A 
ATOM      6  C   UNL     1       1.493   8.183  20.068  0.00  0.00    +0.000 A 
ATOM      7  C   UNL     1       1.599   7.019  20.836  0.00  0.00    +0.000 A 
ATOM      8  C   UNL     1       2.194   5.889  20.286  0.00  0.00    +0.000 A 
BRANCH   8   9
ATOM      9  O   UNL     1       2.295   4.726  21.000  0.00  0.00    +0.000 OA
ATOM     10  H   UNL     1       1.498   4.192  20.831  0.00  0.00    +0.000 HD
ENDBRANCH   8   9
BRANCH   5  11
ATOM     11  C   UNL     1       1.918   9.515  17.957  0.00  0.00    +0.000 C 
BRANCH  11  12
ATOM     12  C   UNL     1       0.730  10.399  18.266  0.00  0.00    +0.000 A 
ATOM     13  C   UNL     1       0.895  11.613  18.950  0.00  0.00    +0.000 A 
ATOM     14  C   UNL     1      -0.201  12.445  19.200  0.00  0.00    +0.000 A 
ATOM     15  C   UNL     1      -1.473  12.073  18.771  0.00  0.00    +0.000 A 
ATOM     16  C   UNL     1      -1.652  10.868  18.094  0.00  0.00    +0.000 A 
ATOM     17  C   UNL     1      -0.558  10.034  17.844  0.00  0.00    +0.000 A 
ENDBRANCH  11  12
ENDBRANCH   5  11
ENDBRANCH   1   3
BRANCH   1  19
ATOM     18  O   UNL     1       5.205   5.370  20.009  0.00  0.00    +0.000 OA
ATOM     19  S   UNL     1       4.952   4.511  18.869  0.00  0.00    +0.000 S 
ATOM     20  O   UNL     1       5.260   3.098  18.908  0.00  0.00    +0.000 OA
BRANCH  19  21
ATOM     21  C   UNL     1       5.979   5.177  17.642  0.00  0.00    +0.000 A 
ATOM     22  C   UNL     1       6.883   6.214  17.819  0.00  0.00    +0.000 A 
ATOM     23  N   UNL     1       7.525   6.417  16.626  0.00  0.00    +0.000 N 
ATOM     24  C   UNL     1       7.044   5.547  15.687  0.00  0.00    +0.000 A 
ATOM     25  N   UNL     1       7.488   5.493  14.418  0.00  0.00    +0.000 NA
ATOM     26  C   UNL     1       6.880   4.532  13.687  0.00  0.00    +0.000 A 
ATOM     27  C   UNL     1       5.877   3.685  14.141  0.00  0.00    +0.000 A 
ATOM     28  C   UNL     1       5.448   3.794  15.463  0.00  0.00    +0.000 A 
ATOM     29  C   UNL     1       6.063   4.757  16.283  0.00  0.00    +0.000 A 
ATOM     30  H   UNL     1       8.260   7.088  16.441  0.00  0.00    +0.000 HD
ENDBRANCH  19  21
ENDBRANCH   1  19
TORSDOF 6
ENDMDL
MODEL 3
REMARK VINA RESULT:      -8.2      0.810      1.706
REMARK  Name = 
REMARK  6 active torsions:
REMARK  status: ('A' for Active; 'I' for Inactive)
REMARK    1  A    between atoms: S_2  and  N_4
REMARK    2  A    between atoms: S_2  and  C_19
REMARK    3  A    between atoms: N_4  and  C_5
REMARK    4  A    between atoms: C_7  and  C_8
REMARK    5  A    between atoms: C_8  and  C_9
REMARK    6  A    between atoms: C_17  and  O_18
REMARK                            x       y       z     vdW  Elec       q    Type
REMARK                         _______ _______ _______ _____ _____    ______ ____
ROOT
ATOM      1  N   UNL     1       2.266   3.669  18.395  0.00  0.00    +0.000 N 
ATOM      2  H   UNL     1       1.667   3.016  18.903  0.00  0.00    +0.000 HD
ENDROOT
BRANCH   1   3
ATOM      3  C   UNL     1       2.159   4.990  18.941  0.00  0.00    +0.000 A 
ATOM      4  C   UNL     1       2.294   6.110  18.117  0.00  0.00    +0.000 A 
ATOM      5  C   UNL     1       2.213   7.404  18.661  0.00  0.00    +0.000 A 
ATOM      6  C   UNL     1       2.002   7.545  20.044  0.00  0.00    +0.000 A 
ATOM      7  C   UNL     1       1.890   6.423  20.872  0.00  0.00    +0.000 A 
ATOM      8  C   UNL     1       1.966   5.152  20.315  0.00  0.00    +0.000 A 
BRANCH   8   9
ATOM      9  O   UNL     1       1.837   4.032  21.091  0.00  0.00    +0.000 OA
ATOM     10  H   UNL     1       1.742   4.311  22.019  0.00  0.00    +0.000 HD
ENDBRANCH   8   9
BRANCH   5  11
ATOM     11  C   UNL     1       2.380   8.627  17.786  0.00  0.00    +0.000 C 
BRANCH  11  12
ATOM     12  C   UNL     1       1.426   9.765  18.074  0.00  0.00    +0.000 A 
ATOM     13  C   UNL     1       0.038   9.587  17.965  0.00  0.00    +0.000 A 
ATOM     14  C   UNL     1      -0.840  10.631  18.269  0.00  0.00    +0.000 A 
ATOM     15  C   UNL     1      -0.344  11.865  18.682  0.00  0.00    +0.000 A 
ATOM     16  C   UNL     1       1.032  12.057  18.790  0.00  0.00    +0.000 A 
ATOM     17  C   UNL     1       1.913  11.016  18.486  0.00  0.00    +0.000 A 
ENDBRANCH  11  12
ENDBRANCH   5  11
ENDBRANCH   1   3
BRANCH   1  19
ATOM     18  O   UNL     1       4.388   3.148  19.655  0.00  0.00    +0.000 OA
ATOM     19  S   UNL     1       3.823   3.001  18.328  0.00  0.00    +0.000 S 
ATOM     20  O   UNL     1       3.789   1.717  17.662  0.00  0.00    +0.000 OA
BRANCH  19  21
ATOM     21  C   UNL     1       4.849   4.003  17.353  0.00  0.00    +0.000 A 
ATOM     22  C   UNL     1       4.806   4.099  15.970  0.00  0.00    +0.000 A 
ATOM     23  N   UNL     1       5.744   5.021  15.586  0.00  0.00    +0.000 N 
ATOM     24  C   UNL     1       6.395   5.505  16.687  0.00  0.00    +0.000 A 
ATOM     25  N   UNL     1       7.364   6.437  16.635  0.00  0.00    +0.000 NA
ATOM     26  C   UNL     1       7.836   6.776  17.856  0.00  0.00    +0.000 A 
ATOM     27  C   UNL     1       7.420   6.230  19.063  0.00  0.00    +0.000 A 
ATOM     28  C   UNL     1       6.419   5.258  19.055  0.00  0.00    +0.000 A 
ATOM     29  C   UNL     1       5.868   4.883  17.817  0.00  0.00    +0.000 A 
ATOM     30  H   UNL     1       5.938   5.331  14.642  0.00  0.00    +0.000 HD
ENDBRANCH  19  21
ENDBRANCH   1  19
TORSDOF 6
ENDMDL
MODEL 4
REMARK VINA RESULT:      -8.1      1.878      3.196
REMARK  Name = 
REMARK  6 active torsions:
REMARK  status: ('A' for Active; 'I' for Inactive)
REMARK    1  A    between atoms: S_2  and  N_4
REMARK    2  A    between atoms: S_2  and  C_19
REMARK    3  A    between atoms: N_4  and  C_5
REMARK    4  A    between atoms: C_7  and  C_8
REMARK    5  A    between atoms: C_8  and  C_9
REMARK    6  A    between atoms: C_17  and  O_18
REMARK                            x       y       z     vdW  Elec       q    Type
REMARK                         _______ _______ _______ _____ _____    ______ ____
ROOT
ATOM      1  N   UNL     1       4.542   3.210  18.450  0.00  0.00    +0.000 N 
ATOM      2  H   UNL     1       5.356   3.595  18.931  0.00  0.00    +0.000 HD
ENDROOT
BRANCH   1   3
ATOM      3  C   UNL     1       3.332   3.560  19.135  0.00  0.00    +0.000 A 
ATOM      4  C   UNL     1       3.158   4.845  19.653  0.00  0.00    +0.000 A 
ATOM      5  C   UNL     1       1.979   5.176  20.345  0.00  0.00    +0.000 A 
ATOM      6  C   UNL     1       0.991   4.191  20.509  0.00  0.00    +0.000 A 
ATOM      7  C   UNL     1       1.175   2.897  20.009  0.00  0.00    +0.000 A 
ATOM      8  C   UNL     1       2.344   2.590  19.322  0.00  0.00    +0.000 A 
BRANCH   8   9
ATOM      9  O   UNL     1       2.548   1.342  18.799  0.00  0.00    +0.000 OA
ATOM     10  H   UNL     1       2.622   0.709  19.535  0.00  0.00    +0.000 HD
ENDBRANCH   8   9
BRANCH   5  11
ATOM     11  C   UNL     1       1.785   6.557  20.933  0.00  0.00    +0.000 C 
BRANCH  11  12
ATOM     12  C   UNL     1       1.766   7.691  19.932  0.00  0.00    +0.000 A 
ATOM     13  C   UNL     1       2.387   7.557  18.681  0.00  0.00    +0.000 A 
ATOM     14  C   UNL     1       2.334   8.593  17.744  0.00  0.00    +0.000 A 
ATOM     15  C   UNL     1       1.664   9.776  18.048  0.00  0.00    +0.000 A 
ATOM     16  C   UNL     1       1.047   9.925  19.289  0.00  0.00    +0.000 A 
ATOM     17  C   UNL     1       1.099   8.890  20.227  0.00  0.00    +0.000 A 
ENDBRANCH  11  12
ENDBRANCH   5  11
ENDBRANCH   1   3
BRANCH   1  19
ATOM     18  O   UNL     1       5.667   2.815  16.228  0.00  0.00    +0.000 OA
ATOM     19  S   UNL     1       4.644   3.655  16.817  0.00  0.00    +0.000 S 
ATOM     20  O   UNL     1       3.320   3.747  16.240  0.00  0.00    +0.000 OA
BRANCH  19  21
ATOM     21  C   UNL     1       5.320   5.246  16.684  0.00  0.00    +0.000 A 
ATOM     22  C   UNL     1       4.904   6.231  15.800  0.00  0.00    +0.000 A 
ATOM     23  N   UNL     1       5.658   7.350  16.035  0.00  0.00    +0.000 N 
ATOM     24  C   UNL     1       6.555   7.101  17.036  0.00  0.00    +0.000 A 
ATOM     25  N   UNL     1       7.427   8.013  17.504  0.00  0.00    +0.000 NA
ATOM     26  C   UNL     1       8.191   7.542  18.515  0.00  0.00    +0.000 A 
ATOM     27  C   UNL     1       8.141   6.254  19.033  0.00  0.00    +0.000 A 
ATOM     28  C   UNL     1       7.224   5.347  18.501  0.00  0.00    +0.000 A 
ATOM     29  C   UNL     1       6.381   5.787  17.465  0.00  0.00    +0.000 A 
ATOM     30  H   UNL     1       5.576   8.244  15.568  0.00  0.00    +0.000 HD
ENDBRANCH  19  21
ENDBRANCH   1  19
TORSDOF 6
ENDMDL
MODEL 5
REMARK VINA RESULT:      -8.0      4.369      6.627
REMARK  Name = 
REMARK  6 active torsions:
REMARK  status: ('A' for Active; 'I' for Inactive)
REMARK    1  A    between atoms: S_2  and  N_4
REMARK    2  A    between atoms: S_2  and  C_19
REMARK    3  A    between atoms: N_4  and  C_5
REMARK    4  A    between atoms: C_7  and  C_8
REMARK    5  A    between atoms: C_8  and  C_9
REMARK    6  A    between atoms: C_17  and  O_18
REMARK                            x       y       z     vdW  Elec       q    Type
REMARK                         _______ _______ _______ _____ _____    ______ ____
ROOT
ATOM      1  N   UNL     1       7.163   5.375  15.818  0.00  0.00    +0.000 N 
ATOM      2  H   UNL     1       7.685   5.634  14.979  0.00  0.00    +0.000 HD
ENDROOT
BRANCH   1   3
ATOM      3  C   UNL     1       7.526   6.210  16.925  0.00  0.00    +0.000 A 
ATOM      4  C   UNL     1       7.603   7.597  16.770  0.00  0.00    +0.000 A 
ATOM      5  C   UNL     1       7.984   8.409  17.852  0.00  0.00    +0.000 A 
ATOM      6  C   UNL     1       8.289   7.801  19.082  0.00  0.00    +0.000 A 
ATOM      7  C   UNL     1       8.233   6.411  19.230  0.00  0.00    +0.000 A 
ATOM      8  C   UNL     1       7.848   5.624  18.151  0.00  0.00    +0.000 A 
BRANCH   8   9
ATOM      9  O   UNL     1       7.760   4.263  18.266  0.00  0.00    +0.000 OA
ATOM     10  H   UNL     1       8.628   3.922  18.545  0.00  0.00    +0.000 HD
ENDBRANCH   8   9
BRANCH   5  11
ATOM     11  C   UNL     1       8.095   9.911  17.695  0.00  0.00    +0.000 C 
BRANCH  11  12
ATOM     12  C   UNL     1       9.210  10.564  18.479  0.00  0.00    +0.000 A 
ATOM     13  C   UNL     1       9.125  10.701  19.874  0.00  0.00    +0.000 A 
ATOM     14  C   UNL     1      10.175  11.271  20.599  0.00  0.00    +0.000 A 
ATOM     15  C   UNL     1      11.321  11.713  19.941  0.00  0.00    +0.000 A 
ATOM     16  C   UNL     1      11.417  11.587  18.556  0.00  0.00    +0.000 A 
ATOM     17  C   UNL     1      10.368  11.018  17.829  0.00  0.00    +0.000 A 
ENDBRANCH  11  12
ENDBRANCH   5  11
ENDBRANCH   1   3
BRANCH   1  19
ATOM     18  O   UNL     1       5.112   6.704  15.193  0.00  0.00    +0.000 OA
ATOM     19  S   UNL     1       5.517   5.329  15.411  0.00  0.00    +0.000 S 
ATOM     20  O   UNL     1       5.276   4.306  14.416  0.00  0.00    +0.000 OA
BRANCH  19  21
ATOM     21  C   UNL     1       4.584   4.861  16.795  0.00  0.00    +0.000 A 
ATOM     22  C   UNL     1       4.469   3.572  17.294  0.00  0.00    +0.000 A 
ATOM     23  N   UNL     1       3.680   3.625  18.413  0.00  0.00    +0.000 N 
ATOM     24  C   UNL     1       3.276   4.913  18.633  0.00  0.00    +0.000 A 
ATOM     25  N   UNL     1       2.502   5.289  19.667  0.00  0.00    +0.000 NA
ATOM     26  C   UNL     1       2.260   6.619  19.689  0.00  0.00    +0.000 A 
ATOM     27  C   UNL     1       2.715   7.538  18.753  0.00  0.00    +0.000 A 
ATOM     28  C   UNL     1       3.505   7.090  17.694  0.00  0.00    +0.000 A 
ATOM     29  C   UNL     1       3.815   5.719  17.632  0.00  0.00    +0.000 A 
ATOM     30  H   UNL     1       3.431   2.851  19.015  0.00  0.00    +0.000 HD
ENDBRANCH  19  21
ENDBRANCH   1  19
TORSDOF 6
ENDMDL
MODEL 6
REMARK VINA RESULT:      -8.0      4.475      6.579
REMARK  Name = 
REMARK  6 active torsions:
REMARK  status: ('A' for Active; 'I' for Inactive)
REMARK    1  A    between atoms: S_2  and  N_4
REMARK    2  A    between atoms: S_2  and  C_19
REMARK    3  A    between atoms: N_4  and  C_5
REMARK    4  A    between atoms: C_7  and  C_8
REMARK    5  A    between atoms: C_8  and  C_9
REMARK    6  A    between atoms: C_17  and  O_18
REMARK                            x       y       z     vdW  Elec       q    Type
REMARK                         _______ _______ _______ _____ _____    ______ ____
ROOT
ATOM      1  N   UNL     1       7.017   5.474  15.912  0.00  0.00    +0.000 N 
ATOM      2  H   UNL     1       7.544   5.683  15.062  0.00  0.00    +0.000 HD
ENDROOT
BRANCH   1   3
ATOM      3  C   UNL     1       7.457   6.295  17.001  0.00  0.00    +0.000 A 
ATOM      4  C   UNL     1       7.543   7.681  16.853  0.00  0.00    +0.000 A 
ATOM      5  C   UNL     1       7.999   8.480  17.917  0.00  0.00    +0.000 A 
ATOM      6  C   UNL     1       8.370   7.856  19.121  0.00  0.00    +0.000 A 
ATOM      7  C   UNL     1       8.305   6.466  19.261  0.00  0.00    +0.000 A 
ATOM      8  C   UNL     1       7.845   5.693  18.201  0.00  0.00    +0.000 A 
BRANCH   8   9
ATOM      9  O   UNL     1       7.746   4.333  18.309  0.00  0.00    +0.000 OA
ATOM     10  H   UNL     1       7.098   4.019  17.654  0.00  0.00    +0.000 HD
ENDBRANCH   8   9
BRANCH   5  11
ATOM     11  C   UNL     1       8.120   9.981  17.766  0.00  0.00    +0.000 C 
BRANCH  11  12
ATOM     12  C   UNL     1       9.272  10.617  18.512  0.00  0.00    +0.000 A 
ATOM     13  C   UNL     1       9.213  10.806  19.902  0.00  0.00    +0.000 A 
ATOM     14  C   UNL     1      10.295  11.359  20.592  0.00  0.00    +0.000 A 
ATOM     15  C   UNL     1      11.446  11.733  19.903  0.00  0.00    +0.000 A 
ATOM     16  C   UNL     1      11.517  11.555  18.523  0.00  0.00    +0.000 A 
ATOM     17  C   UNL     1      10.436  11.003  17.830  0.00  0.00    +0.000 A 
ENDBRANCH  11  12
ENDBRANCH   5  11
ENDBRANCH   1   3
BRANCH   1  19
ATOM     18  O   UNL     1       5.120   6.883  15.028  0.00  0.00    +0.000 OA
ATOM     19  S   UNL     1       5.366   5.545  15.529  0.00  0.00    +0.000 S 
ATOM     20  O   UNL     1       4.977   4.374  14.772  0.00  0.00    +0.000 OA
BRANCH  19  21
ATOM     21  C   UNL     1       4.424   5.492  16.983  0.00  0.00    +0.000 A 
ATOM     22  C   UNL     1       3.953   6.594  17.682  0.00  0.00    +0.000 A 
ATOM     23  N   UNL     1       3.223   6.134  18.746  0.00  0.00    +0.000 N 
ATOM     24  C   UNL     1       3.228   4.766  18.753  0.00  0.00    +0.000 A 
ATOM     25  N   UNL     1       2.584   4.020  19.669  0.00  0.00    +0.000 NA
ATOM     26  C   UNL     1       2.711   2.691  19.451  0.00  0.00    +0.000 A 
ATOM     27  C   UNL     1       3.441   2.108  18.424  0.00  0.00    +0.000 A 
ATOM     28  C   UNL     1       4.098   2.932  17.510  0.00  0.00    +0.000 A 
ATOM     29  C   UNL     1       3.980   4.324  17.667  0.00  0.00    +0.000 A 
ATOM     30  H   UNL     1       2.729   6.694  19.429  0.00  0.00    +0.000 HD
ENDBRANCH  19  21
ENDBRANCH   1  19
TORSDOF 6
ENDMDL
MODEL 7
REMARK VINA RESULT:      -7.8      5.519      9.757
REMARK  Name = 
REMARK  6 active torsions:
REMARK  status: ('A' for Active; 'I' for Inactive)
REMARK    1  A    between atoms: S_2  and  N_4
REMARK    2  A    between atoms: S_2  and  C_19
REMARK    3  A    between atoms: N_4  and  C_5
REMARK    4  A    between atoms: C_7  and  C_8
REMARK    5  A    between atoms: C_8  and  C_9
REMARK    6  A    between atoms: C_17  and  O_18
REMARK                            x       y       z     vdW  Elec       q    Type
REMARK                         _______ _______ _______ _____ _____    ______ ____
ROOT
ATOM      1  N   UNL     1      -0.435   9.971  20.724  0.00  0.00    +0.000 N 
ATOM      2  H   UNL     1      -1.259  10.307  20.222  0.00  0.00    +0.000 HD
ENDROOT
BRANCH   1   3
ATOM      3  C   UNL     1       0.528   9.421  19.815  0.00  0.00    +0.000 A 
ATOM      4  C   UNL     1       1.231   8.260  20.145  0.00  0.00    +0.000 A 
ATOM      5  C   UNL     1       2.192   7.739  19.260  0.00  0.00    +0.000 A 
ATOM      6  C   UNL     1       2.433   8.411  18.050  0.00  0.00    +0.000 A 
ATOM      7  C   UNL     1       1.744   9.586  17.729  0.00  0.00    +0.000 A 
ATOM      8  C   UNL     1       0.793  10.082  18.613  0.00  0.00    +0.000 A 
BRANCH   8   9
ATOM      9  O   UNL     1       0.084  11.216  18.323  0.00  0.00    +0.000 OA
ATOM     10  H   UNL     1      -0.656  11.285  18.952  0.00  0.00    +0.000 HD
ENDBRANCH   8   9
BRANCH   5  11
ATOM     11  C   UNL     1       2.979   6.495  19.613  0.00  0.00    +0.000 C 
BRANCH  11  12
ATOM     12  C   UNL     1       2.207   5.197  19.537  0.00  0.00    +0.000 A 
ATOM     13  C   UNL     1       1.972   4.570  18.303  0.00  0.00    +0.000 A 
ATOM     14  C   UNL     1       1.292   3.351  18.242  0.00  0.00    +0.000 A 
ATOM     15  C   UNL     1       0.836   2.745  19.410  0.00  0.00    +0.000 A 
ATOM     16  C   UNL     1       1.058   3.358  20.642  0.00  0.00    +0.000 A 
ATOM     17  C   UNL     1       1.738   4.578  20.706  0.00  0.00    +0.000 A 
ENDBRANCH  11  12
ENDBRANCH   5  11
ENDBRANCH   1   3
BRANCH   1  19
ATOM     18  O   UNL     1      -0.047  10.746  23.093  0.00  0.00    +0.000 OA
ATOM     19  S   UNL     1       0.105  11.223  21.732  0.00  0.00    +0.000 S 
ATOM     20  O   UNL     1       1.368  11.742  21.253  0.00  0.00    +0.000 OA
BRANCH  19  21
ATOM     21  C   UNL     1      -1.003  12.554  21.658  0.00  0.00    +0.000 A 
ATOM     22  C   UNL     1      -0.907  13.639  20.799  0.00  0.00    +0.000 A 
ATOM     23  N   UNL     1      -1.990  14.447  21.023  0.00  0.00    +0.000 N 
ATOM     24  C   UNL     1      -2.768  13.914  22.014  0.00  0.00    +0.000 A 
ATOM     25  N   UNL     1      -3.912  14.472  22.450  0.00  0.00    +0.000 NA
ATOM     26  C   UNL     1      -4.519  13.744  23.415  0.00  0.00    +0.000 A 
ATOM     27  C   UNL     1      -4.039  12.558  23.955  0.00  0.00    +0.000 A 
ATOM     28  C   UNL     1      -2.841  12.032  23.472  0.00  0.00    +0.000 A 
ATOM     29  C   UNL     1      -2.177  12.728  22.446  0.00  0.00    +0.000 A 
ATOM     30  H   UNL     1      -2.217  15.304  20.535  0.00  0.00    +0.000 HD
ENDBRANCH  19  21
ENDBRANCH   1  19
TORSDOF 6
ENDMDL
MODEL 8
REMARK VINA RESULT:      -7.8      2.394      6.838
REMARK  Name = 
REMARK  6 active torsions:
REMARK  status: ('A' for Active; 'I' for Inactive)
REMARK    1  A    between atoms: S_2  and  N_4
REMARK    2  A    between atoms: S_2  and  C_19
REMARK    3  A    between atoms: N_4  and  C_5
REMARK    4  A    between atoms: C_7  and  C_8
REMARK    5  A    between atoms: C_8  and  C_9
REMARK    6  A    between atoms: C_17  and  O_18
REMARK                            x       y       z     vdW  Elec       q    Type
REMARK                         _______ _______ _______ _____ _____    ______ ____
ROOT
ATOM      1  N   UNL     1       4.232   2.502  17.885  0.00  0.00    +0.000 N 
ATOM      2  H   UNL     1       4.315   1.702  17.256  0.00  0.00    +0.000 HD
ENDROOT
BRANCH   1   3
ATOM      3  C   UNL     1       4.963   3.627  17.382  0.00  0.00    +0.000 A 
ATOM      4  C   UNL     1       4.901   3.963  16.027  0.00  0.00    +0.000 A 
ATOM      5  C   UNL     1       5.640   5.053  15.534  0.00  0.00    +0.000 A 
ATOM      6  C   UNL     1       6.441   5.788  16.425  0.00  0.00    +0.000 A 
ATOM      7  C   UNL     1       6.520   5.437  17.778  0.00  0.00    +0.000 A 
ATOM      8  C   UNL     1       5.777   4.360  18.249  0.00  0.00    +0.000 A 
BRANCH   8   9
ATOM      9  O   UNL     1       5.812   4.002  19.569  0.00  0.00    +0.000 OA
ATOM     10  H   UNL     1       5.854   4.814  20.106  0.00  0.00    +0.000 HD
ENDBRANCH   8   9
BRANCH   5  11
ATOM     11  C   UNL     1       5.602   5.416  14.065  0.00  0.00    +0.000 C 
BRANCH  11  12
ATOM     12  C   UNL     1       5.790   4.261  13.107  0.00  0.00    +0.000 A 
ATOM     13  C   UNL     1       4.684   3.608  12.542  0.00  0.00    +0.000 A 
ATOM     14  C   UNL     1       4.863   2.566  11.627  0.00  0.00    +0.000 A 
ATOM     15  C   UNL     1       6.147   2.163  11.269  0.00  0.00    +0.000 A 
ATOM     16  C   UNL     1       7.254   2.800  11.827  0.00  0.00    +0.000 A 
ATOM     17  C   UNL     1       7.078   3.841  12.741  0.00  0.00    +0.000 A 
ENDBRANCH  11  12
ENDBRANCH   5  11
ENDBRANCH   1   3
BRANCH   1  19
ATOM     18  O   UNL     1       2.004   3.241  16.963  0.00  0.00    +0.000 OA
ATOM     19  S   UNL     1       2.583   2.748  18.197  0.00  0.00    +0.000 S 
ATOM     20  O   UNL     1       2.027   1.602  18.884  0.00  0.00    +0.000 OA
BRANCH  19  21
ATOM     21  C   UNL     1       2.384   4.084  19.284  0.00  0.00    +0.000 A 
ATOM     22  C   UNL     1       2.297   3.996  20.665  0.00  0.00    +0.000 A 
ATOM     23  N   UNL     1       2.187   5.269  21.159  0.00  0.00    +0.000 N 
ATOM     24  C   UNL     1       2.186   6.167  20.127  0.00  0.00    +0.000 A 
ATOM     25  N   UNL     1       2.104   7.499  20.294  0.00  0.00    +0.000 NA
ATOM     26  C   UNL     1       2.152   8.181  19.127  0.00  0.00    +0.000 A 
ATOM     27  C   UNL     1       2.245   7.613  17.864  0.00  0.00    +0.000 A 
ATOM     28  C   UNL     1       2.315   6.225  17.750  0.00  0.00    +0.000 A 
ATOM     29  C   UNL     1       2.299   5.461  18.931  0.00  0.00    +0.000 A 
ATOM     30  H   UNL     1       2.130   5.538  22.133  0.00  0.00    +0.000 HD
ENDBRANCH  19  21
ENDBRANCH   1  19
TORSDOF 6
ENDMDL
MODEL 9
REMARK VINA RESULT:      -7.8      5.752      9.945
REMARK  Name = 
REMARK  6 active torsions:
REMARK  status: ('A' for Active; 'I' for Inactive)
REMARK    1  A    between atoms: S_2  and  N_4
REMARK    2  A    between atoms: S_2  and  C_19
REMARK    3  A    between atoms: N_4  and  C_5
REMARK    4  A    between atoms: C_7  and  C_8
REMARK    5  A    between atoms: C_8  and  C_9
REMARK    6  A    between atoms: C_17  and  O_18
REMARK                            x       y       z     vdW  Elec       q    Type
REMARK                         _______ _______ _______ _____ _____    ______ ____
ROOT
ATOM      1  N   UNL     1      -0.633  10.479  20.624  0.00  0.00    +0.000 N 
ATOM      2  H   UNL     1      -1.235  11.049  20.027  0.00  0.00    +0.000 HD
ENDROOT
BRANCH   1   3
ATOM      3  C   UNL     1       0.312   9.739  19.841  0.00  0.00    +0.000 A 
ATOM      4  C   UNL     1       0.931   8.602  20.367  0.00  0.00    +0.000 A 
ATOM      5  C   UNL     1       1.876   7.894  19.603  0.00  0.00    +0.000 A 
ATOM      6  C   UNL     1       2.187   8.355  18.313  0.00  0.00    +0.000 A 
ATOM      7  C   UNL     1       1.583   9.507  17.796  0.00  0.00    +0.000 A 
ATOM      8  C   UNL     1       0.646  10.190  18.562  0.00  0.00    +0.000 A 
BRANCH   8   9
ATOM      9  O   UNL     1       0.019  11.307  18.080  0.00  0.00    +0.000 OA
ATOM     10  H   UNL     1       0.473  12.092  18.436  0.00  0.00    +0.000 HD
ENDBRANCH   8   9
BRANCH   5  11
ATOM     11  C   UNL     1       2.572   6.674  20.167  0.00  0.00    +0.000 C 
BRANCH  11  12
ATOM     12  C   UNL     1       2.033   5.343  19.692  0.00  0.00    +0.000 A 
ATOM     13  C   UNL     1       1.352   4.487  20.571  0.00  0.00    +0.000 A 
ATOM     14  C   UNL     1       0.822   3.275  20.119  0.00  0.00    +0.000 A 
ATOM     15  C   UNL     1       0.969   2.903  18.785  0.00  0.00    +0.000 A 
ATOM     16  C   UNL     1       1.648   3.741  17.902  0.00  0.00    +0.000 A 
ATOM     17  C   UNL     1       2.179   4.952  18.352  0.00  0.00    +0.000 A 
ENDBRANCH  11  12
ENDBRANCH   5  11
ENDBRANCH   1   3
BRANCH   1  19
ATOM     18  O   UNL     1      -0.161  10.784  23.084  0.00  0.00    +0.000 OA
ATOM     19  S   UNL     1       0.006  11.489  21.828  0.00  0.00    +0.000 S 
ATOM     20  O   UNL     1       1.296  12.001  21.418  0.00  0.00    +0.000 OA
BRANCH  19  21
ATOM     21  C   UNL     1      -1.007  12.882  22.024  0.00  0.00    +0.000 A 
ATOM     22  C   UNL     1      -0.783  14.130  21.461  0.00  0.00    +0.000 A 
ATOM     23  N   UNL     1      -1.825  14.943  21.819  0.00  0.00    +0.000 N 
ATOM     24  C   UNL     1      -2.702  14.252  22.609  0.00  0.00    +0.000 A 
ATOM     25  N   UNL     1      -3.835  14.777  23.108  0.00  0.00    +0.000 NA
ATOM     26  C   UNL     1      -4.552  13.890  23.835  0.00  0.00    +0.000 A 
ATOM     27  C   UNL     1      -4.188  12.575  24.093  0.00  0.00    +0.000 A 
ATOM     28  C   UNL     1      -2.995  12.087  23.559  0.00  0.00    +0.000 A 
ATOM     29  C   UNL     1      -2.218  12.954  22.769  0.00  0.00    +0.000 A 
ATOM     30  H   UNL     1      -1.963  15.907  21.544  0.00  0.00    +0.000 HD
ENDBRANCH  19  21
ENDBRANCH   1  19
TORSDOF 6
ENDMDL
