MODEL 1
REMARK VINA RESULT:      -9.3      0.000      0.000
REMARK  Name = 
REMARK  4 active torsions:
REMARK  status: ('A' for Active; 'I' for Inactive)
REMARK    1  A    between atoms: C_1  and  C_2
REMARK    2  A    between atoms: C_7  and  C_8
REMARK    3  A    between atoms: C_8  and  N_9
REMARK    4  A    between atoms: C_13  and  C_14
REMARK                            x       y       z     vdW  Elec       q    Type
REMARK                         _______ _______ _______ _____ _____    ______ ____
ROOT
ATOM      1  N   UNL     1       2.718   4.606  18.969  0.00  0.00    +0.000 NA
ATOM      2  C   UNL     1       1.430   3.912  18.939  0.00  0.00    +0.000 C 
ATOM      3  C   UNL     1       1.717   2.440  19.191  0.00  0.00    +0.000 C 
ATOM      4  C   UNL     1       3.139   2.258  18.702  0.00  0.00    +0.000 C 
ATOM      5  C   UNL     1       3.781   3.600  19.046  0.00  0.00    +0.000 C 
ENDROOT
BRANCH   5   6
ATOM      6  C   UNL     1       4.930   3.993  18.153  0.00  0.00    +0.000 A 
ATOM      7  C   UNL     1       5.934   4.892  18.555  0.00  0.00    +0.000 A 
ATOM      8  C   UNL     1       6.907   5.321  17.648  0.00  0.00    +0.000 A 
ATOM      9  C   UNL     1       6.866   4.855  16.338  0.00  0.00    +0.000 A 
ATOM     10  C   UNL     1       5.964   3.853  15.989  0.00  0.00    +0.000 A 
ATOM     11  C   UNL     1       5.009   3.411  16.886  0.00  0.00    +0.000 A 
ATOM     12  O   UNL     1       5.922   3.330  14.726  0.00  0.00    +0.000 OA
ATOM     13  C   UNL     1       6.011   4.441  13.842  0.00  0.00    +0.000 C 
ATOM     14  C   UNL     1       7.309   5.217  14.059  0.00  0.00    +0.000 C 
ATOM     15  O   UNL     1       7.686   5.454  15.425  0.00  0.00    +0.000 OA
ENDBRANCH   5   6
BRANCH   1  16
ATOM     16  C   UNL     1       2.862   5.595  20.045  0.00  0.00    +0.000 C 
BRANCH  16  23
ATOM     17  C   UNL     1      -0.632  12.648  20.456  0.00  0.00    +0.000 C 
ATOM     18  C   UNL     1      -0.065  11.265  20.535  0.00  0.00    +0.000 A 
ATOM     19  C   UNL     1      -0.247  10.491  21.740  0.00  0.00    +0.000 A 
ATOM     20  C   UNL     1       0.254   9.254  21.841  0.00  0.00    +0.000 A 
ATOM     21  C   UNL     1       1.012   8.657  20.708  0.00  0.00    +0.000 A 
ATOM     22  N   UNL     1       1.499   7.460  20.840  0.00  0.00    +0.000 NA
ATOM     23  C   UNL     1       2.218   6.944  19.788  0.00  0.00    +0.000 A 
ATOM     24  C   UNL     1       2.392   7.601  18.633  0.00  0.00    +0.000 A 
ATOM     25  C   UNL     1       1.822   8.934  18.466  0.00  0.00    +0.000 A 
ATOM     26  O   UNL     1       1.970   9.521  17.396  0.00  0.00    +0.000 OA
ATOM     27  N   UNL     1       1.149   9.441  19.572  0.00  0.00    +0.000 N 
ATOM     28  C   UNL     1       0.614  10.722  19.512  0.00  0.00    +0.000 A 
ENDBRANCH  16  23
ENDBRANCH   1  16
TORSDOF 3
ENDMDL
MODEL 2
REMARK VINA RESULT:      -8.8      2.545      4.737
REMARK  Name = 
REMARK  4 active torsions:
REMARK  status: ('A' for Active; 'I' for Inactive)
REMARK    1  A    between atoms: C_1  and  C_2
REMARK    2  A    between atoms: C_7  and  C_8
REMARK    3  A    between atoms: C_8  and  N_9
REMARK    4  A    between atoms: C_13  and  C_14
REMARK                            x       y       z     vdW  Elec       q    Type
REMARK                         _______ _______ _______ _____ _____    ______ ____
ROOT
ATOM      1  N   UNL     1       5.172   5.647  17.104  0.00  0.00    +0.000 NA
ATOM      2  C   UNL     1       6.608   5.708  16.828  0.00  0.00    +0.000 C 
ATOM      3  C   UNL     1       6.912   4.600  15.831  0.00  0.00    +0.000 C 
ATOM      4  C   UNL     1       5.826   3.575  16.085  0.00  0.00    +0.000 C 
ATOM      5  C   UNL     1       4.630   4.446  16.462  0.00  0.00    +0.000 C 
ENDROOT
BRANCH   5   6
ATOM      6  C   UNL     1       3.631   3.780  17.373  0.00  0.00    +0.000 A 
ATOM      7  C   UNL     1       2.280   3.603  17.023  0.00  0.00    +0.000 A 
ATOM      8  C   UNL     1       1.367   3.095  17.950  0.00  0.00    +0.000 A 
ATOM      9  C   UNL     1       1.807   2.774  19.229  0.00  0.00    +0.000 A 
ATOM     10  C   UNL     1       3.169   2.809  19.521  0.00  0.00    +0.000 A 
ATOM     11  C   UNL     1       4.081   3.295  18.603  0.00  0.00    +0.000 A 
ATOM     12  O   UNL     1       3.650   2.455  20.752  0.00  0.00    +0.000 OA
ATOM     13  C   UNL     1       2.781   3.062  21.700  0.00  0.00    +0.000 C 
ATOM     14  C   UNL     1       1.344   2.574  21.525  0.00  0.00    +0.000 C 
ATOM     15  O   UNL     1       0.861   2.492  20.174  0.00  0.00    +0.000 OA
ENDBRANCH   5   6
BRANCH   1  16
ATOM     16  C   UNL     1       4.415   6.838  16.696  0.00  0.00    +0.000 C 
BRANCH  16  23
ATOM     17  C   UNL     1      -0.789  11.011  20.895  0.00  0.00    +0.000 C 
ATOM     18  C   UNL     1       0.238  10.380  20.006  0.00  0.00    +0.000 A 
ATOM     19  C   UNL     1       0.724  11.106  18.856  0.00  0.00    +0.000 A 
ATOM     20  C   UNL     1       1.637  10.564  18.042  0.00  0.00    +0.000 A 
ATOM     21  C   UNL     1       2.164   9.199  18.308  0.00  0.00    +0.000 A 
ATOM     22  N   UNL     1       3.039   8.693  17.492  0.00  0.00    +0.000 NA
ATOM     23  C   UNL     1       3.488   7.419  17.747  0.00  0.00    +0.000 A 
ATOM     24  C   UNL     1       3.099   6.710  18.815  0.00  0.00    +0.000 A 
ATOM     25  C   UNL     1       2.140   7.283  19.754  0.00  0.00    +0.000 A 
ATOM     26  O   UNL     1       1.803   6.632  20.742  0.00  0.00    +0.000 OA
ATOM     27  N   UNL     1       1.669   8.550  19.430  0.00  0.00    +0.000 N 
ATOM     28  C   UNL     1       0.719   9.151  20.248  0.00  0.00    +0.000 A 
ENDBRANCH  16  23
ENDBRANCH   1  16
TORSDOF 3
ENDMDL
MODEL 3
REMARK VINA RESULT:      -8.6      2.015      7.496
REMARK  Name = 
REMARK  4 active torsions:
REMARK  status: ('A' for Active; 'I' for Inactive)
REMARK    1  A    between atoms: C_1  and  C_2
REMARK    2  A    between atoms: C_7  and  C_8
REMARK    3  A    between atoms: C_8  and  N_9
REMARK    4  A    between atoms: C_13  and  C_14
REMARK                            x       y       z     vdW  Elec       q    Type
REMARK                         _______ _______ _______ _____ _____    ______ ____
ROOT
ATOM      1  N   UNL     1       3.479   4.017  19.298  0.00  0.00    +0.000 NA
ATOM      2  C   UNL     1       3.025   2.670  18.945  0.00  0.00    +0.000 C 
ATOM      3  C   UNL     1       2.342   2.778  17.590  0.00  0.00    +0.000 C 
ATOM      4  C   UNL     1       1.856   4.211  17.540  0.00  0.00    +0.000 C 
ATOM      5  C   UNL     1       2.945   4.957  18.308  0.00  0.00    +0.000 C 
ENDROOT
BRANCH   5   6
ATOM      6  C   UNL     1       2.480   6.217  18.992  0.00  0.00    +0.000 A 
ATOM      7  C   UNL     1       2.072   6.249  20.337  0.00  0.00    +0.000 A 
ATOM      8  C   UNL     1       1.531   7.413  20.888  0.00  0.00    +0.000 A 
ATOM      9  C   UNL     1       1.391   8.541  20.086  0.00  0.00    +0.000 A 
ATOM     10  C   UNL     1       1.934   8.549  18.803  0.00  0.00    +0.000 A 
ATOM     11  C   UNL     1       2.486   7.405  18.257  0.00  0.00    +0.000 A 
ATOM     12  O   UNL     1       1.863   9.653  17.999  0.00  0.00    +0.000 OA
ATOM     13  C   UNL     1       0.534  10.145  18.130  0.00  0.00    +0.000 C 
ATOM     14  C   UNL     1       0.223  10.516  19.578  0.00  0.00    +0.000 C 
ATOM     15  O   UNL     1       0.663   9.585  20.581  0.00  0.00    +0.000 OA
ENDBRANCH   5   6
BRANCH   1  16
ATOM     16  C   UNL     1       4.936   4.164  19.418  0.00  0.00    +0.000 C 
BRANCH  16  23
ATOM     17  C   UNL     1       7.555   5.209  12.058  0.00  0.00    +0.000 C 
ATOM     18  C   UNL     1       7.007   4.836  13.401  0.00  0.00    +0.000 A 
ATOM     19  C   UNL     1       6.205   3.643  13.534  0.00  0.00    +0.000 A 
ATOM     20  C   UNL     1       5.697   3.290  14.721  0.00  0.00    +0.000 A 
ATOM     21  C   UNL     1       5.952   4.126  15.924  0.00  0.00    +0.000 A 
ATOM     22  N   UNL     1       5.434   3.764  17.060  0.00  0.00    +0.000 NA
ATOM     23  C   UNL     1       5.662   4.571  18.150  0.00  0.00    +0.000 A 
ATOM     24  C   UNL     1       6.426   5.670  18.096  0.00  0.00    +0.000 A 
ATOM     25  C   UNL     1       7.036   6.065  16.830  0.00  0.00    +0.000 A 
ATOM     26  O   UNL     1       7.751   7.066  16.794  0.00  0.00    +0.000 OA
ATOM     27  N   UNL     1       6.736   5.255  15.741  0.00  0.00    +0.000 N 
ATOM     28  C   UNL     1       7.241   5.585  14.489  0.00  0.00    +0.000 A 
ENDBRANCH  16  23
ENDBRANCH   1  16
TORSDOF 3
ENDMDL
MODEL 4
REMARK VINA RESULT:      -8.3      1.185      1.817
REMARK  Name = 
REMARK  4 active torsions:
REMARK  status: ('A' for Active; 'I' for Inactive)
REMARK    1  A    between atoms: C_1  and  C_2
REMARK    2  A    between atoms: C_7  and  C_8
REMARK    3  A    between atoms: C_8  and  N_9
REMARK    4  A    between atoms: C_13  and  C_14
REMARK                            x       y       z     vdW  Elec       q    Type
REMARK                         _______ _______ _______ _____ _____    ______ ____
ROOT
ATOM      1  N   UNL     1       1.939   4.745  20.173  0.00  0.00    +0.000 NA
ATOM      2  C   UNL     1       0.914   3.944  20.845  0.00  0.00    +0.000 C 
ATOM      3  C   UNL     1       1.565   2.622  21.219  0.00  0.00    +0.000 C 
ATOM      4  C   UNL     1       2.673   2.460  20.199  0.00  0.00    +0.000 C 
ATOM      5  C   UNL     1       3.119   3.902  19.964  0.00  0.00    +0.000 C 
ENDROOT
BRANCH   5   6
ATOM      6  C   UNL     1       3.706   4.163  18.601  0.00  0.00    +0.000 A 
ATOM      7  C   UNL     1       3.085   3.744  17.410  0.00  0.00    +0.000 A 
ATOM      8  C   UNL     1       3.730   3.898  16.180  0.00  0.00    +0.000 A 
ATOM      9  C   UNL     1       5.000   4.462  16.147  0.00  0.00    +0.000 A 
ATOM     10  C   UNL     1       5.544   5.010  17.307  0.00  0.00    +0.000 A 
ATOM     11  C   UNL     1       4.904   4.876  18.525  0.00  0.00    +0.000 A 
ATOM     12  O   UNL     1       6.769   5.618  17.309  0.00  0.00    +0.000 OA
ATOM     13  C   UNL     1       7.623   4.778  16.543  0.00  0.00    +0.000 C 
ATOM     14  C   UNL     1       7.105   4.620  15.114  0.00  0.00    +0.000 C 
ATOM     15  O   UNL     1       5.693   4.398  14.972  0.00  0.00    +0.000 OA
ENDBRANCH   5   6
BRANCH   1  16
ATOM     16  C   UNL     1       2.305   5.986  20.868  0.00  0.00    +0.000 C 
BRANCH  16  23
ATOM     17  C   UNL     1      -0.362  13.170  19.021  0.00  0.00    +0.000 C 
ATOM     18  C   UNL     1       0.026  11.812  19.519  0.00  0.00    +0.000 A 
ATOM     19  C   UNL     1      -0.387  11.395  20.839  0.00  0.00    +0.000 A 
ATOM     20  C   UNL     1      -0.050  10.189  21.312  0.00  0.00    +0.000 A 
ATOM     21  C   UNL     1       0.761   9.259  20.482  0.00  0.00    +0.000 A 
ATOM     22  N   UNL     1       1.085   8.100  20.974  0.00  0.00    +0.000 NA
ATOM     23  C   UNL     1       1.859   7.271  20.197  0.00  0.00    +0.000 A 
ATOM     24  C   UNL     1       2.244   7.589  18.953  0.00  0.00    +0.000 A 
ATOM     25  C   UNL     1       1.858   8.876  18.382  0.00  0.00    +0.000 A 
ATOM     26  O   UNL     1       2.200   9.151  17.233  0.00  0.00    +0.000 OA
ATOM     27  N   UNL     1       1.123   9.706  19.220  0.00  0.00    +0.000 N 
ATOM     28  C   UNL     1       0.752  10.968  18.771  0.00  0.00    +0.000 A 
ENDBRANCH  16  23
ENDBRANCH   1  16
TORSDOF 3
ENDMDL
MODEL 5
REMARK VINA RESULT:      -8.3      1.375      1.973
REMARK  Name = 
REMARK  4 active torsions:
REMARK  status: ('A' for Active; 'I' for Inactive)
REMARK    1  A    between atoms: C_1  and  C_2
REMARK    2  A    between atoms: C_7  and  C_8
REMARK    3  A    between atoms: C_8  and  N_9
REMARK    4  A    between atoms: C_13  and  C_14
REMARK                            x       y       z     vdW  Elec       q    Type
REMARK                         _______ _______ _______ _____ _____    ______ ____
ROOT
ATOM      1  N   UNL     1       2.201   4.289  19.185  0.00  0.00    +0.000 NA
ATOM      2  C   UNL     1       0.886   3.705  18.916  0.00  0.00    +0.000 C 
ATOM      3  C   UNL     1       1.077   2.198  18.858  0.00  0.00    +0.000 C 
ATOM      4  C   UNL     1       2.523   2.030  18.440  0.00  0.00    +0.000 C 
ATOM      5  C   UNL     1       3.202   3.221  19.113  0.00  0.00    +0.000 C 
ENDROOT
BRANCH   5   6
ATOM      6  C   UNL     1       4.439   3.718  18.409  0.00  0.00    +0.000 A 
ATOM      7  C   UNL     1       5.351   4.606  19.008  0.00  0.00    +0.000 A 
ATOM      8  C   UNL     1       6.413   5.136  18.271  0.00  0.00    +0.000 A 
ATOM      9  C   UNL     1       6.554   4.784  16.934  0.00  0.00    +0.000 A 
ATOM     10  C   UNL     1       5.739   3.792  16.391  0.00  0.00    +0.000 A 
ATOM     11  C   UNL     1       4.696   3.250  17.120  0.00  0.00    +0.000 A 
ATOM     12  O   UNL     1       5.875   3.379  15.094  0.00  0.00    +0.000 OA
ATOM     13  C   UNL     1       6.033   4.564  14.323  0.00  0.00    +0.000 C 
ATOM     14  C   UNL     1       7.264   5.352  14.767  0.00  0.00    +0.000 C 
ATOM     15  O   UNL     1       7.459   5.480  16.185  0.00  0.00    +0.000 OA
ENDBRANCH   5   6
BRANCH   1  16
ATOM     16  C   UNL     1       2.306   5.011  20.460  0.00  0.00    +0.000 C 
BRANCH  16  23
ATOM     17  C   UNL     1       0.594  12.472  18.581  0.00  0.00    +0.000 C 
ATOM     18  C   UNL     1       1.051  11.063  18.802  0.00  0.00    +0.000 A 
ATOM     19  C   UNL     1       1.913  10.435  17.828  0.00  0.00    +0.000 A 
ATOM     20  C   UNL     1       2.331   9.175  17.996  0.00  0.00    +0.000 A 
ATOM     21  C   UNL     1       1.910   8.399  19.193  0.00  0.00    +0.000 A 
ATOM     22  N   UNL     1       2.320   7.173  19.323  0.00  0.00    +0.000 NA
ATOM     23  C   UNL     1       1.893   6.470  20.424  0.00  0.00    +0.000 A 
ATOM     24  C   UNL     1       1.122   7.009  21.378  0.00  0.00    +0.000 A 
ATOM     25  C   UNL     1       0.682   8.396  21.255  0.00  0.00    +0.000 A 
ATOM     26  O   UNL     1      -0.010   8.888  22.145  0.00  0.00    +0.000 OA
ATOM     27  N   UNL     1       1.089   9.053  20.101  0.00  0.00    +0.000 N 
ATOM     28  C   UNL     1       0.678  10.363  19.884  0.00  0.00    +0.000 A 
ENDBRANCH  16  23
ENDBRANCH   1  16
TORSDOF 3
ENDMDL
MODEL 6
REMARK VINA RESULT:      -8.2      1.564      1.881
REMARK  Name = 
REMARK  4 active torsions:
REMARK  status: ('A' for Active; 'I' for Inactive)
REMARK    1  A    between atoms: C_1  and  C_2
REMARK    2  A    between atoms: C_7  and  C_8
REMARK    3  A    between atoms: C_8  and  N_9
REMARK    4  A    between atoms: C_13  and  C_14
REMARK                            x       y       z     vdW  Elec       q    Type
REMARK                         _______ _______ _______ _____ _____    ______ ____
ROOT
ATOM      1  N   UNL     1       1.996   5.650  20.017  0.00  0.00    +0.000 NA
ATOM      2  C   UNL     1       0.880   4.769  20.366  0.00  0.00    +0.000 C 
ATOM      3  C   UNL     1       1.468   3.386  20.597  0.00  0.00    +0.000 C 
ATOM      4  C   UNL     1       2.725   3.379  19.753  0.00  0.00    +0.000 C 
ATOM      5  C   UNL     1       3.197   4.827  19.851  0.00  0.00    +0.000 C 
ENDROOT
BRANCH   5   6
ATOM      6  C   UNL     1       3.994   5.309  18.666  0.00  0.00    +0.000 A 
ATOM      7  C   UNL     1       3.691   6.496  17.975  0.00  0.00    +0.000 A 
ATOM      8  C   UNL     1       4.380   6.834  16.807  0.00  0.00    +0.000 A 
ATOM      9  C   UNL     1       5.365   5.977  16.329  0.00  0.00    +0.000 A 
ATOM     10  C   UNL     1       5.762   4.884  17.096  0.00  0.00    +0.000 A 
ATOM     11  C   UNL     1       5.096   4.553  18.261  0.00  0.00    +0.000 A 
ATOM     12  O   UNL     1       6.761   4.043  16.687  0.00  0.00    +0.000 OA
ATOM     13  C   UNL     1       6.521   3.798  15.306  0.00  0.00    +0.000 C 
ATOM     14  C   UNL     1       6.550   5.095  14.501  0.00  0.00    +0.000 C 
ATOM     15  O   UNL     1       5.863   6.217  15.080  0.00  0.00    +0.000 OA
ENDBRANCH   5   6
BRANCH   1  16
ATOM     16  C   UNL     1       2.243   6.740  20.970  0.00  0.00    +0.000 C 
BRANCH  16  23
ATOM     17  C   UNL     1      -2.156  13.231  21.777  0.00  0.00    +0.000 C 
ATOM     18  C   UNL     1      -1.391  11.944  21.792  0.00  0.00    +0.000 A 
ATOM     19  C   UNL     1      -1.312  11.178  23.014  0.00  0.00    +0.000 A 
ATOM     20  C   UNL     1      -0.629  10.028  23.057  0.00  0.00    +0.000 A 
ATOM     21  C   UNL     1       0.064   9.521  21.842  0.00  0.00    +0.000 A 
ATOM     22  N   UNL     1       0.731   8.408  21.919  0.00  0.00    +0.000 NA
ATOM     23  C   UNL     1       1.385   7.978  20.788  0.00  0.00    +0.000 A 
ATOM     24  C   UNL     1       1.322   8.628  19.618  0.00  0.00    +0.000 A 
ATOM     25  C   UNL     1       0.549   9.862  19.517  0.00  0.00    +0.000 A 
ATOM     26  O   UNL     1       0.481  10.441  18.434  0.00  0.00    +0.000 OA
ATOM     27  N   UNL     1      -0.051  10.292  20.694  0.00  0.00    +0.000 N 
ATOM     28  C   UNL     1      -0.769  11.482  20.696  0.00  0.00    +0.000 A 
ENDBRANCH  16  23
ENDBRANCH   1  16
TORSDOF 3
ENDMDL
MODEL 7
REMARK VINA RESULT:      -8.2      0.971      1.066
REMARK  Name = 
REMARK  4 active torsions:
REMARK  status: ('A' for Active; 'I' for Inactive)
REMARK    1  A    between atoms: C_1  and  C_2
REMARK    2  A    between atoms: C_7  and  C_8
REMARK    3  A    between atoms: C_8  and  N_9
REMARK    4  A    between atoms: C_13  and  C_14
REMARK                            x       y       z     vdW  Elec       q    Type
REMARK                         _______ _______ _______ _____ _____    ______ ____
ROOT
ATOM      1  N   UNL     1       2.642   5.448  19.302  0.00  0.00    +0.000 NA
ATOM      2  C   UNL     1       1.265   4.964  19.413  0.00  0.00    +0.000 C 
ATOM      3  C   UNL     1       1.340   3.545  19.954  0.00  0.00    +0.000 C 
ATOM      4  C   UNL     1       2.703   3.058  19.510  0.00  0.00    +0.000 C 
ATOM      5  C   UNL     1       3.547   4.328  19.578  0.00  0.00    +0.000 C 
ENDROOT
BRANCH   5   6
ATOM      6  C   UNL     1       4.713   4.359  18.624  0.00  0.00    +0.000 A 
ATOM      7  C   UNL     1       5.982   4.844  18.987  0.00  0.00    +0.000 A 
ATOM      8  C   UNL     1       6.995   4.969  18.032  0.00  0.00    +0.000 A 
ATOM      9  C   UNL     1       6.731   4.616  16.714  0.00  0.00    +0.000 A 
ATOM     10  C   UNL     1       5.524   3.998  16.392  0.00  0.00    +0.000 A 
ATOM     11  C   UNL     1       4.524   3.856  17.335  0.00  0.00    +0.000 A 
ATOM     12  O   UNL     1       5.243   3.590  15.117  0.00  0.00    +0.000 OA
ATOM     13  C   UNL     1       5.658   4.653  14.268  0.00  0.00    +0.000 C 
ATOM     14  C   UNL     1       7.151   4.933  14.423  0.00  0.00    +0.000 C 
ATOM     15  O   UNL     1       7.657   4.954  15.768  0.00  0.00    +0.000 OA
ENDBRANCH   5   6
BRANCH   1  16
ATOM     16  C   UNL     1       2.963   6.597  20.159  0.00  0.00    +0.000 C 
BRANCH  16  23
ATOM     17  C   UNL     1      -2.021  12.482  21.787  0.00  0.00    +0.000 C 
ATOM     18  C   UNL     1      -1.119  11.294  21.649  0.00  0.00    +0.000 A 
ATOM     19  C   UNL     1      -0.827  10.485  22.809  0.00  0.00    +0.000 A 
ATOM     20  C   UNL     1      -0.020   9.422  22.714  0.00  0.00    +0.000 A 
ATOM     21  C   UNL     1       0.593   9.059  21.409  0.00  0.00    +0.000 A 
ATOM     22  N   UNL     1       1.384   8.029  21.352  0.00  0.00    +0.000 NA
ATOM     23  C   UNL     1       1.959   7.733  20.138  0.00  0.00    +0.000 A 
ATOM     24  C   UNL     1       1.700   8.426  19.021  0.00  0.00    +0.000 A 
ATOM     25  C   UNL     1       0.788   9.565  19.071  0.00  0.00    +0.000 A 
ATOM     26  O   UNL     1       0.542  10.184  18.037  0.00  0.00    +0.000 OA
ATOM     27  N   UNL     1       0.272   9.865  20.326  0.00  0.00    +0.000 N 
ATOM     28  C   UNL     1      -0.570  10.961  20.471  0.00  0.00    +0.000 A 
ENDBRANCH  16  23
ENDBRANCH   1  16
TORSDOF 3
ENDMDL
MODEL 8
REMARK VINA RESULT:      -8.2      2.489      4.618
REMARK  Name = 
REMARK  4 active torsions:
REMARK  status: ('A' for Active; 'I' for Inactive)
REMARK    1  A    between atoms: C_1  and  C_2
REMARK    2  A    between atoms: C_7  and  C_8
REMARK    3  A    between atoms: C_8  and  N_9
REMARK    4  A    between atoms: C_13  and  C_14
REMARK                            x       y       z     vdW  Elec       q    Type
REMARK                         _______ _______ _______ _____ _____    ______ ____
ROOT
ATOM      1  N   UNL     1       4.899   6.391  17.471  0.00  0.00    +0.000 NA
ATOM      2  C   UNL     1       6.284   6.864  17.456  0.00  0.00    +0.000 C 
ATOM      3  C   UNL     1       7.086   5.853  16.652  0.00  0.00    +0.000 C 
ATOM      4  C   UNL     1       6.307   4.564  16.808  0.00  0.00    +0.000 C 
ATOM      5  C   UNL     1       4.863   5.055  16.869  0.00  0.00    +0.000 C 
ENDROOT
BRANCH   5   6
ATOM      6  C   UNL     1       3.929   4.163  17.646  0.00  0.00    +0.000 A 
ATOM      7  C   UNL     1       2.835   3.507  17.055  0.00  0.00    +0.000 A 
ATOM      8  C   UNL     1       1.925   2.793  17.841  0.00  0.00    +0.000 A 
ATOM      9  C   UNL     1       2.109   2.748  19.218  0.00  0.00    +0.000 A 
ATOM     10  C   UNL     1       3.272   3.272  19.778  0.00  0.00    +0.000 A 
ATOM     11  C   UNL     1       4.185   3.965  19.004  0.00  0.00    +0.000 A 
ATOM     12  O   UNL     1       3.517   3.205  21.122  0.00  0.00    +0.000 OA
ATOM     13  C   UNL     1       2.293   3.553  21.758  0.00  0.00    +0.000 C 
ATOM     14  C   UNL     1       1.175   2.589  21.368  0.00  0.00    +0.000 C 
ATOM     15  O   UNL     1       1.095   2.237  19.978  0.00  0.00    +0.000 OA
ENDBRANCH   5   6
BRANCH   1  16
ATOM     16  C   UNL     1       3.936   7.282  16.811  0.00  0.00    +0.000 C 
BRANCH  16  23
ATOM     17  C   UNL     1      -0.622   9.758  22.746  0.00  0.00    +0.000 C 
ATOM     18  C   UNL     1       0.225   9.114  21.693  0.00  0.00    +0.000 A 
ATOM     19  C   UNL     1       0.682   7.757  21.880  0.00  0.00    +0.000 A 
ATOM     20  C   UNL     1       1.445   7.159  20.957  0.00  0.00    +0.000 A 
ATOM     21  C   UNL     1       1.838   7.888  19.722  0.00  0.00    +0.000 A 
ATOM     22  N   UNL     1       2.591   7.286  18.851  0.00  0.00    +0.000 NA
ATOM     23  C   UNL     1       2.961   7.993  17.731  0.00  0.00    +0.000 A 
ATOM     24  C   UNL     1       2.542   9.242  17.486  0.00  0.00    +0.000 A 
ATOM     25  C   UNL     1       1.670   9.913  18.445  0.00  0.00    +0.000 A 
ATOM     26  O   UNL     1       1.275  11.052  18.203  0.00  0.00    +0.000 OA
ATOM     27  N   UNL     1       1.364   9.185  19.589  0.00  0.00    +0.000 N 
ATOM     28  C   UNL     1       0.575   9.767  20.574  0.00  0.00    +0.000 A 
ENDBRANCH  16  23
ENDBRANCH   1  16
TORSDOF 3
ENDMDL
MODEL 9
REMARK VINA RESULT:      -8.1      2.660      6.629
REMARK  Name = 
REMARK  4 active torsions:
REMARK  status: ('A' for Active; 'I' for Inactive)
REMARK    1  A    between atoms: C_1  and  C_2
REMARK    2  A    between atoms: C_7  and  C_8
REMARK    3  A    between atoms: C_8  and  N_9
REMARK    4  A    between atoms: C_13  and  C_14
REMARK                            x       y       z     vdW  Elec       q    Type
REMARK                         _______ _______ _______ _____ _____    ______ ____
ROOT
ATOM      1  N   UNL     1       3.853   3.711  18.126  0.00  0.00    +0.000 NA
ATOM      2  C   UNL     1       3.714   2.258  18.237  0.00  0.00    +0.000 C 
ATOM      3  C   UNL     1       2.282   1.922  17.846  0.00  0.00    +0.000 C 
ATOM      4  C   UNL     1       1.512   3.185  18.170  0.00  0.00    +0.000 C 
ATOM      5  C   UNL     1       2.529   4.281  17.864  0.00  0.00    +0.000 C 
ENDROOT
BRANCH   5   6
ATOM      6  C   UNL     1       2.345   5.548  18.659  0.00  0.00    +0.000 A 
ATOM      7  C   UNL     1       2.069   5.549  20.038  0.00  0.00    +0.000 A 
ATOM      8  C   UNL     1       1.782   6.744  20.704  0.00  0.00    +0.000 A 
ATOM      9  C   UNL     1       1.764   7.933  19.985  0.00  0.00    +0.000 A 
ATOM     10  C   UNL     1       2.185   7.945  18.657  0.00  0.00    +0.000 A 
ATOM     11  C   UNL     1       2.486   6.769  17.996  0.00  0.00    +0.000 A 
ATOM     12  O   UNL     1       2.229   9.101  17.927  0.00  0.00    +0.000 OA
ATOM     13  C   UNL     1       1.020   9.791  18.216  0.00  0.00    +0.000 C 
ATOM     14  C   UNL     1       0.905  10.103  19.707  0.00  0.00    +0.000 C 
ATOM     15  O   UNL     1       1.268   9.044  20.607  0.00  0.00    +0.000 OA
ENDBRANCH   5   6
BRANCH   1  16
ATOM     16  C   UNL     1       4.821   4.162  17.117  0.00  0.00    +0.000 C 
BRANCH  16  23
ATOM     17  C   UNL     1       9.603  10.102  19.108  0.00  0.00    +0.000 C 
ATOM     18  C   UNL     1       8.643   9.081  18.582  0.00  0.00    +0.000 A 
ATOM     19  C   UNL     1       7.702   9.455  17.553  0.00  0.00    +0.000 A 
ATOM     20  C   UNL     1       6.828   8.564  17.069  0.00  0.00    +0.000 A 
ATOM     21  C   UNL     1       6.812   7.171  17.589  0.00  0.00    +0.000 A 
ATOM     22  N   UNL     1       5.943   6.332  17.110  0.00  0.00    +0.000 NA
ATOM     23  C   UNL     1       5.932   5.059  17.628  0.00  0.00    +0.000 A 
ATOM     24  C   UNL     1       6.802   4.644  18.560  0.00  0.00    +0.000 A 
ATOM     25  C   UNL     1       7.802   5.572  19.080  0.00  0.00    +0.000 A 
ATOM     26  O   UNL     1       8.608   5.177  19.921  0.00  0.00    +0.000 OA
ATOM     27  N   UNL     1       7.743   6.863  18.571  0.00  0.00    +0.000 N 
ATOM     28  C   UNL     1       8.631   7.822  19.045  0.00  0.00    +0.000 A 
ENDBRANCH  16  23
ENDBRANCH   1  16
TORSDOF 3
ENDMDL
