MODEL 1
REMARK VINA RESULT:      -9.2      0.000      0.000
REMARK  Name = 
REMARK  6 active torsions:
REMARK  status: ('A' for Active; 'I' for Inactive)
REMARK    1  A    between atoms: C_2  and  C_3
REMARK    2  A    between atoms: C_3  and  O_4
REMARK    3  A    between atoms: O_4  and  C_5
REMARK    4  A    between atoms: N_16  and  C_17
REMARK    5  A    between atoms: C_21  and  S_22
REMARK    6  A    between atoms: S_22  and  N_25
REMARK                            x       y       z     vdW  Elec       q    Type
REMARK                         _______ _______ _______ _____ _____    ______ ____
ROOT
ATOM      1  O   UNL     1       8.376   7.071  18.754  0.00  0.00    +0.000 OA
ATOM      2  C   UNL     1       7.837   7.854  17.975  0.00  0.00    +0.000 C 
ATOM      3  N   UNL     1       6.889   7.525  17.018  0.00  0.00    +0.000 N 
ATOM      4  H   UNL     1       6.586   8.271  16.402  0.00  0.00    +0.000 HD
ENDROOT
BRANCH   3   5
ATOM      5  C   UNL     1       6.338   6.248  16.762  0.00  0.00    +0.000 A 
ATOM      6  C   UNL     1       6.892   5.314  15.880  0.00  0.00    +0.000 A 
ATOM      7  C   UNL     1       6.258   4.087  15.635  0.00  0.00    +0.000 A 
ATOM      8  C   UNL     1       5.044   3.791  16.246  0.00  0.00    +0.000 A 
ATOM      9  C   UNL     1       4.487   4.724  17.117  0.00  0.00    +0.000 A 
ATOM     10  C   UNL     1       5.145   5.927  17.414  0.00  0.00    +0.000 A 
BRANCH   9  11
ATOM     11  S   UNL     1       2.847   4.457  17.738  0.00  0.00    +0.000 S 
ATOM     12  O   UNL     1       2.240   5.750  17.971  0.00  0.00    +0.000 OA
ATOM     13  O   UNL     1       2.206   3.470  16.895  0.00  0.00    +0.000 OA
BRANCH  11  14
ATOM     14  N   UNL     1       3.143   3.722  19.255  0.00  0.00    +0.000 NA
ATOM     15  C   UNL     1       2.450   2.438  19.534  0.00  0.00    +0.000 C 
ATOM     16  C   UNL     1       1.236   2.824  20.349  0.00  0.00    +0.000 C 
ATOM     17  C   UNL     1       1.748   3.952  21.222  0.00  0.00    +0.000 C 
ATOM     18  C   UNL     1       2.864   4.618  20.418  0.00  0.00    +0.000 C 
ENDBRANCH  11  14
ENDBRANCH   9  11
ENDBRANCH   3   5
BRANCH   2  19
ATOM     19  C   UNL     1       8.123   9.361  18.069  0.00  0.00    +0.000 C 
BRANCH  19  20
ATOM     20  O   UNL     1       9.446   9.710  18.457  0.00  0.00    +0.000 OA
BRANCH  20  21
ATOM     21  C   UNL     1       9.550  10.814  19.297  0.00  0.00    +0.000 A 
ATOM     22  C   UNL     1       9.180  10.751  20.651  0.00  0.00    +0.000 A 
ATOM     23  C   UNL     1       9.254  11.874  21.459  0.00  0.00    +0.000 A 
ATOM     24  C   UNL     1       9.730  13.068  20.935  0.00  0.00    +0.000 A 
ATOM     25 CL   UNL     1       9.755  14.425  22.012  0.00  0.00    +0.000 Cl
ATOM     26  C   UNL     1      10.166  13.151  19.592  0.00  0.00    +0.000 A 
ATOM     27  C   UNL     1      10.697  14.338  19.039  0.00  0.00    +0.000 A 
ATOM     28  C   UNL     1      11.127  14.376  17.723  0.00  0.00    +0.000 A 
ATOM     29  C   UNL     1      11.004  13.222  16.982  0.00  0.00    +0.000 A 
ATOM     30  N   UNL     1      10.486  12.068  17.462  0.00  0.00    +0.000 NA
ATOM     31  C   UNL     1      10.079  12.007  18.754  0.00  0.00    +0.000 A 
ENDBRANCH  20  21
ENDBRANCH  19  20
ENDBRANCH   2  19
TORSDOF 6
ENDMDL
MODEL 2
REMARK VINA RESULT:      -9.2      1.671      2.547
REMARK  Name = 
REMARK  6 active torsions:
REMARK  status: ('A' for Active; 'I' for Inactive)
REMARK    1  A    between atoms: C_2  and  C_3
REMARK    2  A    between atoms: C_3  and  O_4
REMARK    3  A    between atoms: O_4  and  C_5
REMARK    4  A    between atoms: N_16  and  C_17
REMARK    5  A    between atoms: C_21  and  S_22
REMARK    6  A    between atoms: S_22  and  N_25
REMARK                            x       y       z     vdW  Elec       q    Type
REMARK                         _______ _______ _______ _____ _____    ______ ____
ROOT
ATOM      1  O   UNL     1       8.446   7.152  18.817  0.00  0.00    +0.000 OA
ATOM      2  C   UNL     1       7.981   7.921  17.978  0.00  0.00    +0.000 C 
ATOM      3  N   UNL     1       7.041   7.596  17.012  0.00  0.00    +0.000 N 
ATOM      4  H   UNL     1       6.804   8.322  16.345  0.00  0.00    +0.000 HD
ENDROOT
BRANCH   3   5
ATOM      5  C   UNL     1       6.418   6.343  16.811  0.00  0.00    +0.000 A 
ATOM      6  C   UNL     1       6.308   5.708  15.570  0.00  0.00    +0.000 A 
ATOM      7  C   UNL     1       5.626   4.489  15.439  0.00  0.00    +0.000 A 
ATOM      8  C   UNL     1       5.018   3.904  16.545  0.00  0.00    +0.000 A 
ATOM      9  C   UNL     1       5.120   4.539  17.780  0.00  0.00    +0.000 A 
ATOM     10  C   UNL     1       5.851   5.726  17.930  0.00  0.00    +0.000 A 
BRANCH   9  11
ATOM     11  S   UNL     1       4.179   3.922  19.150  0.00  0.00    +0.000 S 
ATOM     12  O   UNL     1       4.904   2.810  19.728  0.00  0.00    +0.000 OA
ATOM     13  O   UNL     1       3.772   5.051  19.959  0.00  0.00    +0.000 OA
BRANCH  11  14
ATOM     14  N   UNL     1       2.776   3.306  18.386  0.00  0.00    +0.000 NA
ATOM     15  C   UNL     1       1.527   4.100  18.518  0.00  0.00    +0.000 C 
ATOM     16  C   UNL     1       0.772   3.446  19.652  0.00  0.00    +0.000 C 
ATOM     17  C   UNL     1       1.063   1.971  19.458  0.00  0.00    +0.000 C 
ATOM     18  C   UNL     1       2.437   1.909  18.793  0.00  0.00    +0.000 C 
ENDBRANCH  11  14
ENDBRANCH   9  11
ENDBRANCH   3   5
BRANCH   2  19
ATOM     19  C   UNL     1       8.358   9.411  17.996  0.00  0.00    +0.000 C 
BRANCH  19  20
ATOM     20  O   UNL     1       9.149   9.828  19.103  0.00  0.00    +0.000 OA
BRANCH  20  21
ATOM     21  C   UNL     1       9.767  11.065  18.962  0.00  0.00    +0.000 A 
ATOM     22  C   UNL     1      10.421  11.434  17.774  0.00  0.00    +0.000 A 
ATOM     23  C   UNL     1      11.065  12.657  17.669  0.00  0.00    +0.000 A 
ATOM     24  C   UNL     1      11.036  13.543  18.738  0.00  0.00    +0.000 A 
ATOM     25 CL   UNL     1      11.896  15.032  18.525  0.00  0.00    +0.000 Cl
ATOM     26  C   UNL     1      10.337  13.227  19.927  0.00  0.00    +0.000 A 
ATOM     27  C   UNL     1      10.251  14.123  21.015  0.00  0.00    +0.000 A 
ATOM     28  C   UNL     1       9.544  13.784  22.158  0.00  0.00    +0.000 A 
ATOM     29  C   UNL     1       8.947  12.544  22.189  0.00  0.00    +0.000 A 
ATOM     30  N   UNL     1       9.018  11.646  21.179  0.00  0.00    +0.000 NA
ATOM     31  C   UNL     1       9.688  11.969  20.045  0.00  0.00    +0.000 A 
ENDBRANCH  20  21
ENDBRANCH  19  20
ENDBRANCH   2  19
TORSDOF 6
ENDMDL
MODEL 3
REMARK VINA RESULT:      -9.0      1.199      2.134
REMARK  Name = 
REMARK  6 active torsions:
REMARK  status: ('A' for Active; 'I' for Inactive)
REMARK    1  A    between atoms: C_2  and  C_3
REMARK    2  A    between atoms: C_3  and  O_4
REMARK    3  A    between atoms: O_4  and  C_5
REMARK    4  A    between atoms: N_16  and  C_17
REMARK    5  A    between atoms: C_21  and  S_22
REMARK    6  A    between atoms: S_22  and  N_25
REMARK                            x       y       z     vdW  Elec       q    Type
REMARK                         _______ _______ _______ _____ _____    ______ ____
ROOT
ATOM      1  O   UNL     1       8.421   7.063  18.555  0.00  0.00    +0.000 OA
ATOM      2  C   UNL     1       7.891   7.910  17.839  0.00  0.00    +0.000 C 
ATOM      3  N   UNL     1       6.818   7.697  16.987  0.00  0.00    +0.000 N 
ATOM      4  H   UNL     1       6.534   8.479  16.408  0.00  0.00    +0.000 HD
ENDROOT
BRANCH   3   5
ATOM      5  C   UNL     1       6.110   6.490  16.787  0.00  0.00    +0.000 A 
ATOM      6  C   UNL     1       6.429   5.542  15.810  0.00  0.00    +0.000 A 
ATOM      7  C   UNL     1       5.645   4.391  15.635  0.00  0.00    +0.000 A 
ATOM      8  C   UNL     1       4.512   4.190  16.416  0.00  0.00    +0.000 A 
ATOM      9  C   UNL     1       4.188   5.138  17.384  0.00  0.00    +0.000 A 
ATOM     10  C   UNL     1       5.000   6.259  17.605  0.00  0.00    +0.000 A 
BRANCH   9  11
ATOM     11  S   UNL     1       2.640   5.006  18.239  0.00  0.00    +0.000 S 
ATOM     12  O   UNL     1       2.251   6.332  18.669  0.00  0.00    +0.000 OA
ATOM     13  O   UNL     1       1.754   4.189  17.437  0.00  0.00    +0.000 OA
BRANCH  11  14
ATOM     14  N   UNL     1       3.063   4.095  19.626  0.00  0.00    +0.000 NA
ATOM     15  C   UNL     1       2.983   2.616  19.517  0.00  0.00    +0.000 C 
ATOM     16  C   UNL     1       1.643   2.256  20.117  0.00  0.00    +0.000 C 
ATOM     17  C   UNL     1       1.505   3.233  21.268  0.00  0.00    +0.000 C 
ATOM     18  C   UNL     1       2.291   4.474  20.848  0.00  0.00    +0.000 C 
ENDBRANCH  11  14
ENDBRANCH   9  11
ENDBRANCH   3   5
BRANCH   2  19
ATOM     19  C   UNL     1       8.345   9.377  17.906  0.00  0.00    +0.000 C 
BRANCH  19  20
ATOM     20  O   UNL     1       9.492   9.626  18.711  0.00  0.00    +0.000 OA
BRANCH  20  21
ATOM     21  C   UNL     1       9.912  10.951  18.757  0.00  0.00    +0.000 A 
ATOM     22  C   UNL     1      10.557  11.560  17.667  0.00  0.00    +0.000 A 
ATOM     23  C   UNL     1      11.003  12.870  17.750  0.00  0.00    +0.000 A 
ATOM     24  C   UNL     1      10.781  13.600  18.910  0.00  0.00    +0.000 A 
ATOM     25 CL   UNL     1      11.403  15.217  18.930  0.00  0.00    +0.000 Cl
ATOM     26  C   UNL     1      10.082  13.036  20.002  0.00  0.00    +0.000 A 
ATOM     27  C   UNL     1       9.801  13.764  21.179  0.00  0.00    +0.000 A 
ATOM     28  C   UNL     1       9.101  13.182  22.224  0.00  0.00    +0.000 A 
ATOM     29  C   UNL     1       8.708  11.871  22.069  0.00  0.00    +0.000 A 
ATOM     30  N   UNL     1       8.970  11.128  20.970  0.00  0.00    +0.000 NA
ATOM     31  C   UNL     1       9.636  11.689  19.930  0.00  0.00    +0.000 A 
ENDBRANCH  20  21
ENDBRANCH  19  20
ENDBRANCH   2  19
TORSDOF 6
ENDMDL
MODEL 4
REMARK VINA RESULT:      -8.8      1.403      2.268
REMARK  Name = 
REMARK  6 active torsions:
REMARK  status: ('A' for Active; 'I' for Inactive)
REMARK    1  A    between atoms: C_2  and  C_3
REMARK    2  A    between atoms: C_3  and  O_4
REMARK    3  A    between atoms: O_4  and  C_5
REMARK    4  A    between atoms: N_16  and  C_17
REMARK    5  A    between atoms: C_21  and  S_22
REMARK    6  A    between atoms: S_22  and  N_25
REMARK                            x       y       z     vdW  Elec       q    Type
REMARK                         _______ _______ _______ _____ _____    ______ ____
ROOT
ATOM      1  O   UNL     1       8.296   6.888  18.788  0.00  0.00    +0.000 OA
ATOM      2  C   UNL     1       7.875   7.673  17.942  0.00  0.00    +0.000 C 
ATOM      3  N   UNL     1       7.066   7.349  16.863  0.00  0.00    +0.000 N 
ATOM      4  H   UNL     1       6.856   8.096  16.211  0.00  0.00    +0.000 HD
ENDROOT
BRANCH   3   5
ATOM      5  C   UNL     1       6.551   6.074  16.533  0.00  0.00    +0.000 A 
ATOM      6  C   UNL     1       6.971   5.315  15.436  0.00  0.00    +0.000 A 
ATOM      7  C   UNL     1       6.373   4.081  15.139  0.00  0.00    +0.000 A 
ATOM      8  C   UNL     1       5.324   3.605  15.919  0.00  0.00    +0.000 A 
ATOM      9  C   UNL     1       4.899   4.365  17.006  0.00  0.00    +0.000 A 
ATOM     10  C   UNL     1       5.531   5.569  17.345  0.00  0.00    +0.000 A 
BRANCH   9  11
ATOM     11  S   UNL     1       3.433   3.880  17.879  0.00  0.00    +0.000 S 
ATOM     12  O   UNL     1       2.294   4.460  17.200  0.00  0.00    +0.000 OA
ATOM     13  O   UNL     1       3.510   2.456  18.127  0.00  0.00    +0.000 OA
BRANCH  11  14
ATOM     14  N   UNL     1       3.621   4.674  19.384  0.00  0.00    +0.000 NA
ATOM     15  C   UNL     1       3.245   3.915  20.604  0.00  0.00    +0.000 C 
ATOM     16  C   UNL     1       1.843   4.378  20.930  0.00  0.00    +0.000 C 
ATOM     17  C   UNL     1       1.875   5.852  20.578  0.00  0.00    +0.000 C 
ATOM     18  C   UNL     1       2.909   5.985  19.462  0.00  0.00    +0.000 C 
ENDBRANCH  11  14
ENDBRANCH   9  11
ENDBRANCH   3   5
BRANCH   2  19
ATOM     19  C   UNL     1       8.151   9.179  18.076  0.00  0.00    +0.000 C 
BRANCH  19  20
ATOM     20  O   UNL     1       9.003   9.552  19.153  0.00  0.00    +0.000 OA
BRANCH  20  21
ATOM     21  C   UNL     1       9.642  10.779  19.011  0.00  0.00    +0.000 A 
ATOM     22  C   UNL     1      10.316  11.130  17.830  0.00  0.00    +0.000 A 
ATOM     23  C   UNL     1      10.979  12.343  17.726  0.00  0.00    +0.000 A 
ATOM     24  C   UNL     1      10.950  13.235  18.789  0.00  0.00    +0.000 A 
ATOM     25 CL   UNL     1      11.835  14.710  18.577  0.00  0.00    +0.000 Cl
ATOM     26  C   UNL     1      10.232  12.938  19.970  0.00  0.00    +0.000 A 
ATOM     27  C   UNL     1      10.146  13.841  21.052  0.00  0.00    +0.000 A 
ATOM     28  C   UNL     1       9.420  13.520  22.188  0.00  0.00    +0.000 A 
ATOM     29  C   UNL     1       8.804  12.289  22.219  0.00  0.00    +0.000 A 
ATOM     30  N   UNL     1       8.873  11.384  21.216  0.00  0.00    +0.000 NA
ATOM     31  C   UNL     1       9.562  11.690  20.088  0.00  0.00    +0.000 A 
ENDBRANCH  20  21
ENDBRANCH  19  20
ENDBRANCH   2  19
TORSDOF 6
ENDMDL
MODEL 5
REMARK VINA RESULT:      -8.8      1.101      1.410
REMARK  Name = 
REMARK  6 active torsions:
REMARK  status: ('A' for Active; 'I' for Inactive)
REMARK    1  A    between atoms: C_2  and  C_3
REMARK    2  A    between atoms: C_3  and  O_4
REMARK    3  A    between atoms: O_4  and  C_5
REMARK    4  A    between atoms: N_16  and  C_17
REMARK    5  A    between atoms: C_21  and  S_22
REMARK    6  A    between atoms: S_22  and  N_25
REMARK                            x       y       z     vdW  Elec       q    Type
REMARK                         _______ _______ _______ _____ _____    ______ ____
ROOT
ATOM      1  O   UNL     1       8.286   6.956  18.751  0.00  0.00    +0.000 OA
ATOM      2  C   UNL     1       7.824   7.761  17.946  0.00  0.00    +0.000 C 
ATOM      3  N   UNL     1       6.971   7.461  16.895  0.00  0.00    +0.000 N 
ATOM      4  H   UNL     1       6.728   8.224  16.273  0.00  0.00    +0.000 HD
ENDROOT
BRANCH   3   5
ATOM      5  C   UNL     1       6.446   6.193  16.554  0.00  0.00    +0.000 A 
ATOM      6  C   UNL     1       6.434   5.669  15.258  0.00  0.00    +0.000 A 
ATOM      7  C   UNL     1       5.845   4.424  14.986  0.00  0.00    +0.000 A 
ATOM      8  C   UNL     1       5.233   3.702  16.005  0.00  0.00    +0.000 A 
ATOM      9  C   UNL     1       5.237   4.228  17.295  0.00  0.00    +0.000 A 
ATOM     10  C   UNL     1       5.875   5.441  17.585  0.00  0.00    +0.000 A 
BRANCH   9  11
ATOM     11  S   UNL     1       4.282   3.427  18.558  0.00  0.00    +0.000 S 
ATOM     12  O   UNL     1       3.743   2.203  18.003  0.00  0.00    +0.000 OA
ATOM     13  O   UNL     1       5.069   3.415  19.773  0.00  0.00    +0.000 OA
BRANCH  11  14
ATOM     14  N   UNL     1       2.990   4.524  18.794  0.00  0.00    +0.000 NA
ATOM     15  C   UNL     1       2.991   5.314  20.052  0.00  0.00    +0.000 C 
ATOM     16  C   UNL     1       2.063   4.563  20.980  0.00  0.00    +0.000 C 
ATOM     17  C   UNL     1       0.972   4.067  20.052  0.00  0.00    +0.000 C 
ATOM     18  C   UNL     1       1.641   3.890  18.690  0.00  0.00    +0.000 C 
ENDBRANCH  11  14
ENDBRANCH   9  11
ENDBRANCH   3   5
BRANCH   2  19
ATOM     19  C   UNL     1       8.101   9.264  18.107  0.00  0.00    +0.000 C 
BRANCH  19  20
ATOM     20  O   UNL     1       9.431   9.605  18.482  0.00  0.00    +0.000 OA
BRANCH  20  21
ATOM     21  C   UNL     1       9.551  10.720  19.305  0.00  0.00    +0.000 A 
ATOM     22  C   UNL     1       9.117  10.703  20.641  0.00  0.00    +0.000 A 
ATOM     23  C   UNL     1       9.210  11.839  21.431  0.00  0.00    +0.000 A 
ATOM     24  C   UNL     1       9.768  12.997  20.906  0.00  0.00    +0.000 A 
ATOM     25 CL   UNL     1       9.812  14.373  21.958  0.00  0.00    +0.000 Cl
ATOM     26  C   UNL     1      10.268  13.030  19.584  0.00  0.00    +0.000 A 
ATOM     27  C   UNL     1      10.881  14.177  19.034  0.00  0.00    +0.000 A 
ATOM     28  C   UNL     1      11.372  14.168  17.738  0.00  0.00    +0.000 A 
ATOM     29  C   UNL     1      11.226  13.005  17.015  0.00  0.00    +0.000 A 
ATOM     30  N   UNL     1      10.630  11.888  17.491  0.00  0.00    +0.000 NA
ATOM     31  C   UNL     1      10.162  11.874  18.765  0.00  0.00    +0.000 A 
ENDBRANCH  20  21
ENDBRANCH  19  20
ENDBRANCH   2  19
TORSDOF 6
ENDMDL
MODEL 6
REMARK VINA RESULT:      -8.4      1.576      1.871
REMARK  Name = 
REMARK  6 active torsions:
REMARK  status: ('A' for Active; 'I' for Inactive)
REMARK    1  A    between atoms: C_2  and  C_3
REMARK    2  A    between atoms: C_3  and  O_4
REMARK    3  A    between atoms: O_4  and  C_5
REMARK    4  A    between atoms: N_16  and  C_17
REMARK    5  A    between atoms: C_21  and  S_22
REMARK    6  A    between atoms: S_22  and  N_25
REMARK                            x       y       z     vdW  Elec       q    Type
REMARK                         _______ _______ _______ _____ _____    ______ ____
ROOT
ATOM      1  O   UNL     1       7.534   9.012  17.152  0.00  0.00    +0.000 OA
ATOM      2  C   UNL     1       8.153   8.533  18.100  0.00  0.00    +0.000 C 
ATOM      3  N   UNL     1       8.080   7.220  18.538  0.00  0.00    +0.000 N 
ATOM      4  H   UNL     1       8.599   6.990  19.377  0.00  0.00    +0.000 HD
ENDROOT
BRANCH   3   5
ATOM      5  C   UNL     1       7.311   6.173  17.980  0.00  0.00    +0.000 A 
ATOM      6  C   UNL     1       7.344   5.803  16.632  0.00  0.00    +0.000 A 
ATOM      7  C   UNL     1       6.509   4.788  16.139  0.00  0.00    +0.000 A 
ATOM      8  C   UNL     1       5.607   4.151  16.985  0.00  0.00    +0.000 A 
ATOM      9  C   UNL     1       5.567   4.525  18.326  0.00  0.00    +0.000 A 
ATOM     10  C   UNL     1       6.440   5.495  18.838  0.00  0.00    +0.000 A 
BRANCH   9  11
ATOM     11  S   UNL     1       4.285   3.876  19.366  0.00  0.00    +0.000 S 
ATOM     12  O   UNL     1       4.797   2.693  20.024  0.00  0.00    +0.000 OA
ATOM     13  O   UNL     1       3.728   4.975  20.128  0.00  0.00    +0.000 OA
BRANCH  11  14
ATOM     14  N   UNL     1       3.101   3.388  18.230  0.00  0.00    +0.000 NA
ATOM     15  C   UNL     1       1.854   4.190  18.162  0.00  0.00    +0.000 C 
ATOM     16  C   UNL     1       0.857   3.428  19.005  0.00  0.00    +0.000 C 
ATOM     17  C   UNL     1       1.191   1.979  18.711  0.00  0.00    +0.000 C 
ATOM     18  C   UNL     1       2.682   1.961  18.379  0.00  0.00    +0.000 C 
ENDBRANCH  11  14
ENDBRANCH   9  11
ENDBRANCH   3   5
BRANCH   2  19
ATOM     19  C   UNL     1       9.185   9.381  18.860  0.00  0.00    +0.000 C 
BRANCH  19  20
ATOM     20  O   UNL     1       9.440  10.670  18.312  0.00  0.00    +0.000 OA
BRANCH  20  21
ATOM     21  C   UNL     1       9.673  11.677  19.242  0.00  0.00    +0.000 A 
ATOM     22  C   UNL     1       9.321  11.531  20.595  0.00  0.00    +0.000 A 
ATOM     23  C   UNL     1       9.526  12.564  21.496  0.00  0.00    +0.000 A 
ATOM     24  C   UNL     1      10.117  13.745  21.066  0.00  0.00    +0.000 A 
ATOM     25 CL   UNL     1      10.302  14.989  22.257  0.00  0.00    +0.000 Cl
ATOM     26  C   UNL     1      10.537  13.902  19.725  0.00  0.00    +0.000 A 
ATOM     27  C   UNL     1      11.180  15.072  19.265  0.00  0.00    +0.000 A 
ATOM     28  C   UNL     1      11.591  15.184  17.946  0.00  0.00    +0.000 A 
ATOM     29  C   UNL     1      11.335  14.120  17.111  0.00  0.00    +0.000 A 
ATOM     30  N   UNL     1      10.706  12.987  17.501  0.00  0.00    +0.000 NA
ATOM     31  C   UNL     1      10.316  12.853  18.793  0.00  0.00    +0.000 A 
ENDBRANCH  20  21
ENDBRANCH  19  20
ENDBRANCH   2  19
TORSDOF 6
ENDMDL
MODEL 7
REMARK VINA RESULT:      -8.3      6.015      8.369
REMARK  Name = 
REMARK  6 active torsions:
REMARK  status: ('A' for Active; 'I' for Inactive)
REMARK    1  A    between atoms: C_2  and  C_3
REMARK    2  A    between atoms: C_3  and  O_4
REMARK    3  A    between atoms: O_4  and  C_5
REMARK    4  A    between atoms: N_16  and  C_17
REMARK    5  A    between atoms: C_21  and  S_22
REMARK    6  A    between atoms: S_22  and  N_25
REMARK                            x       y       z     vdW  Elec       q    Type
REMARK                         _______ _______ _______ _____ _____    ______ ____
ROOT
ATOM      1  O   UNL     1       2.137   7.565  19.315  0.00  0.00    +0.000 OA
ATOM      2  C   UNL     1       2.389   8.291  18.356  0.00  0.00    +0.000 C 
ATOM      3  N   UNL     1       3.281   8.004  17.333  0.00  0.00    +0.000 N 
ATOM      4  H   UNL     1       3.434   8.733  16.645  0.00  0.00    +0.000 HD
ENDROOT
BRANCH   3   5
ATOM      5  C   UNL     1       4.052   6.830  17.173  0.00  0.00    +0.000 A 
ATOM      6  C   UNL     1       5.040   6.663  16.198  0.00  0.00    +0.000 A 
ATOM      7  C   UNL     1       5.727   5.447  16.065  0.00  0.00    +0.000 A 
ATOM      8  C   UNL     1       5.412   4.371  16.887  0.00  0.00    +0.000 A 
ATOM      9  C   UNL     1       4.422   4.533  17.854  0.00  0.00    +0.000 A 
ATOM     10  C   UNL     1       3.774   5.764  18.033  0.00  0.00    +0.000 A 
BRANCH   9  11
ATOM     11  S   UNL     1       3.863   3.118  18.765  0.00  0.00    +0.000 S 
ATOM     12  O   UNL     1       3.483   2.095  17.814  0.00  0.00    +0.000 OA
ATOM     13  O   UNL     1       4.828   2.848  19.810  0.00  0.00    +0.000 OA
BRANCH  11  14
ATOM     14  N   UNL     1       2.441   3.703  19.519  0.00  0.00    +0.000 NA
ATOM     15  C   UNL     1       2.599   4.392  20.825  0.00  0.00    +0.000 C 
ATOM     16  C   UNL     1       2.294   3.333  21.859  0.00  0.00    +0.000 C 
ATOM     17  C   UNL     1       1.172   2.538  21.221  0.00  0.00    +0.000 C 
ATOM     18  C   UNL     1       1.393   2.656  19.714  0.00  0.00    +0.000 C 
ENDBRANCH  11  14
ENDBRANCH   9  11
ENDBRANCH   3   5
BRANCH   2  19
ATOM     19  C   UNL     1       1.622   9.607  18.156  0.00  0.00    +0.000 C 
BRANCH  19  20
ATOM     20  O   UNL     1       0.273   9.470  17.727  0.00  0.00    +0.000 OA
BRANCH  20  21
ATOM     21  C   UNL     1      -0.635  10.335  18.328  0.00  0.00    +0.000 A 
ATOM     22  C   UNL     1      -0.344  10.991  19.536  0.00  0.00    +0.000 A 
ATOM     23  C   UNL     1      -1.280  11.818  20.138  0.00  0.00    +0.000 A 
ATOM     24  C   UNL     1      -2.507  12.028  19.524  0.00  0.00    +0.000 A 
ATOM     25 CL   UNL     1      -3.622  13.050  20.367  0.00  0.00    +0.000 Cl
ATOM     26  C   UNL     1      -2.809  11.431  18.278  0.00  0.00    +0.000 A 
ATOM     27  C   UNL     1      -4.030  11.659  17.605  0.00  0.00    +0.000 A 
ATOM     28  C   UNL     1      -4.285  11.067  16.378  0.00  0.00    +0.000 A 
ATOM     29  C   UNL     1      -3.310  10.246  15.857  0.00  0.00    +0.000 A 
ATOM     30  N   UNL     1      -2.134   9.983  16.472  0.00  0.00    +0.000 NA
ATOM     31  C   UNL     1      -1.860  10.570  17.664  0.00  0.00    +0.000 A 
ENDBRANCH  20  21
ENDBRANCH  19  20
ENDBRANCH   2  19
TORSDOF 6
ENDMDL
MODEL 8
REMARK VINA RESULT:      -8.2      5.339      8.228
REMARK  Name = 
REMARK  6 active torsions:
REMARK  status: ('A' for Active; 'I' for Inactive)
REMARK    1  A    between atoms: C_2  and  C_3
REMARK    2  A    between atoms: C_3  and  O_4
REMARK    3  A    between atoms: O_4  and  C_5
REMARK    4  A    between atoms: N_16  and  C_17
REMARK    5  A    between atoms: C_21  and  S_22
REMARK    6  A    between atoms: S_22  and  N_25
REMARK                            x       y       z     vdW  Elec       q    Type
REMARK                         _______ _______ _______ _____ _____    ______ ____
ROOT
ATOM      1  O   UNL     1       1.597   3.978  19.429  0.00  0.00    +0.000 OA
ATOM      2  C   UNL     1       2.701   4.281  19.878  0.00  0.00    +0.000 C 
ATOM      3  N   UNL     1       3.240   5.558  19.915  0.00  0.00    +0.000 N 
ATOM      4  H   UNL     1       4.192   5.640  20.254  0.00  0.00    +0.000 HD
ENDROOT
BRANCH   3   5
ATOM      5  C   UNL     1       2.635   6.756  19.473  0.00  0.00    +0.000 A 
ATOM      6  C   UNL     1       2.811   7.305  18.199  0.00  0.00    +0.000 A 
ATOM      7  C   UNL     1       2.221   8.529  17.850  0.00  0.00    +0.000 A 
ATOM      8  C   UNL     1       1.470   9.236  18.783  0.00  0.00    +0.000 A 
ATOM      9  C   UNL     1       1.301   8.695  20.055  0.00  0.00    +0.000 A 
ATOM     10  C   UNL     1       1.837   7.444  20.392  0.00  0.00    +0.000 A 
BRANCH   9  11
ATOM     11  S   UNL     1       0.530   9.675  21.316  0.00  0.00    +0.000 S 
ATOM     12  O   UNL     1      -0.730   9.052  21.661  0.00  0.00    +0.000 OA
ATOM     13  O   UNL     1       1.524   9.965  22.328  0.00  0.00    +0.000 OA
BRANCH  11  14
ATOM     14  N   UNL     1       0.196  11.138  20.492  0.00  0.00    +0.000 NA
ATOM     15  C   UNL     1       0.360  12.401  21.257  0.00  0.00    +0.000 C 
ATOM     16  C   UNL     1      -1.034  12.752  21.725  0.00  0.00    +0.000 C 
ATOM     17  C   UNL     1      -1.907  12.338  20.556  0.00  0.00    +0.000 C 
ATOM     18  C   UNL     1      -1.167  11.184  19.882  0.00  0.00    +0.000 C 
ENDBRANCH  11  14
ENDBRANCH   9  11
ENDBRANCH   3   5
BRANCH   2  19
ATOM     19  C   UNL     1       3.580   3.219  20.557  0.00  0.00    +0.000 C 
BRANCH  19  20
ATOM     20  O   UNL     1       4.748   2.841  19.838  0.00  0.00    +0.000 OA
BRANCH  20  21
ATOM     21  C   UNL     1       4.932   3.485  18.620  0.00  0.00    +0.000 A 
ATOM     22  C   UNL     1       4.167   3.159  17.487  0.00  0.00    +0.000 A 
ATOM     23  C   UNL     1       4.396   3.787  16.272  0.00  0.00    +0.000 A 
ATOM     24  C   UNL     1       5.369   4.772  16.180  0.00  0.00    +0.000 A 
ATOM     25 CL   UNL     1       5.604   5.476  14.614  0.00  0.00    +0.000 Cl
ATOM     26  C   UNL     1       6.116   5.166  17.315  0.00  0.00    +0.000 A 
ATOM     27  C   UNL     1       7.082   6.196  17.266  0.00  0.00    +0.000 A 
ATOM     28  C   UNL     1       7.784   6.564  18.402  0.00  0.00    +0.000 A 
ATOM     29  C   UNL     1       7.510   5.880  19.565  0.00  0.00    +0.000 A 
ATOM     30  N   UNL     1       6.608   4.876  19.657  0.00  0.00    +0.000 NA
ATOM     31  C   UNL     1       5.897   4.517  18.559  0.00  0.00    +0.000 A 
ENDBRANCH  20  21
ENDBRANCH  19  20
ENDBRANCH   2  19
TORSDOF 6
ENDMDL
MODEL 9
REMARK VINA RESULT:      -8.1      6.509      9.226
REMARK  Name = 
REMARK  6 active torsions:
REMARK  status: ('A' for Active; 'I' for Inactive)
REMARK    1  A    between atoms: C_2  and  C_3
REMARK    2  A    between atoms: C_3  and  O_4
REMARK    3  A    between atoms: O_4  and  C_5
REMARK    4  A    between atoms: N_16  and  C_17
REMARK    5  A    between atoms: C_21  and  S_22
REMARK    6  A    between atoms: S_22  and  N_25
REMARK                            x       y       z     vdW  Elec       q    Type
REMARK                         _______ _______ _______ _____ _____    ______ ____
ROOT
ATOM      1  O   UNL     1       2.421   8.523  17.293  0.00  0.00    +0.000 OA
ATOM      2  C   UNL     1       1.907   8.943  18.328  0.00  0.00    +0.000 C 
ATOM      3  N   UNL     1       1.753   8.230  19.507  0.00  0.00    +0.000 N 
ATOM      4  H   UNL     1       1.248   8.690  20.255  0.00  0.00    +0.000 HD
ENDROOT
BRANCH   3   5
ATOM      5  C   UNL     1       2.169   6.904  19.765  0.00  0.00    +0.000 A 
ATOM      6  C   UNL     1       1.491   6.015  20.606  0.00  0.00    +0.000 A 
ATOM      7  C   UNL     1       1.995   4.730  20.858  0.00  0.00    +0.000 A 
ATOM      8  C   UNL     1       3.202   4.328  20.295  0.00  0.00    +0.000 A 
ATOM      9  C   UNL     1       3.882   5.215  19.464  0.00  0.00    +0.000 A 
ATOM     10  C   UNL     1       3.355   6.478  19.160  0.00  0.00    +0.000 A 
BRANCH   9  11
ATOM     11  S   UNL     1       5.516   4.802  18.911  0.00  0.00    +0.000 S 
ATOM     12  O   UNL     1       6.461   5.578  19.685  0.00  0.00    +0.000 OA
ATOM     13  O   UNL     1       5.613   3.359  18.841  0.00  0.00    +0.000 OA
BRANCH  11  14
ATOM     14  N   UNL     1       5.522   5.395  17.305  0.00  0.00    +0.000 NA
ATOM     15  C   UNL     1       4.836   4.573  16.275  0.00  0.00    +0.000 C 
ATOM     16  C   UNL     1       5.940   3.779  15.616  0.00  0.00    +0.000 C 
ATOM     17  C   UNL     1       7.097   4.757  15.579  0.00  0.00    +0.000 C 
ATOM     18  C   UNL     1       6.891   5.681  16.779  0.00  0.00    +0.000 C 
ENDBRANCH  11  14
ENDBRANCH   9  11
ENDBRANCH   3   5
BRANCH   2  19
ATOM     19  C   UNL     1       1.453  10.408  18.429  0.00  0.00    +0.000 C 
BRANCH  19  20
ATOM     20  O   UNL     1       0.419  10.664  19.373  0.00  0.00    +0.000 OA
BRANCH  20  21
ATOM     21  C   UNL     1      -0.854  10.817  18.835  0.00  0.00    +0.000 A 
ATOM     22  C   UNL     1      -1.232  10.188  17.637  0.00  0.00    +0.000 A 
ATOM     23  C   UNL     1      -2.494  10.387  17.099  0.00  0.00    +0.000 A 
ATOM     24  C   UNL     1      -3.408  11.190  17.769  0.00  0.00    +0.000 A 
ATOM     25 CL   UNL     1      -4.947  11.404  17.003  0.00  0.00    +0.000 Cl
ATOM     26  C   UNL     1      -3.080  11.789  19.007  0.00  0.00    +0.000 A 
ATOM     27  C   UNL     1      -4.000  12.575  19.735  0.00  0.00    +0.000 A 
ATOM     28  C   UNL     1      -3.647  13.135  20.953  0.00  0.00    +0.000 A 
ATOM     29  C   UNL     1      -2.369  12.903  21.409  0.00  0.00    +0.000 A 
ATOM     30  N   UNL     1      -1.448  12.174  20.739  0.00  0.00    +0.000 NA
ATOM     31  C   UNL     1      -1.783  11.602  19.556  0.00  0.00    +0.000 A 
ENDBRANCH  20  21
ENDBRANCH  19  20
ENDBRANCH   2  19
TORSDOF 6
ENDMDL
