MODEL 1
REMARK VINA RESULT:      -8.8      0.000      0.000
REMARK  Name = 
REMARK  5 active torsions:
REMARK  status: ('A' for Active; 'I' for Inactive)
REMARK    1  A    between atoms: C_2  and  C_7
REMARK    2  A    between atoms: N_3  and  C_4
REMARK    3  A    between atoms: C_10  and  C_11
REMARK    4  A    between atoms: N_18  and  C_19
REMARK    5  A    between atoms: C_19  and  C_20
REMARK                            x       y       z     vdW  Elec       q    Type
REMARK                         _______ _______ _______ _____ _____    ______ ____
ROOT
ATOM      1  C   UNL     1       2.795   5.604  19.319  0.00  0.00    +0.000 C 
ATOM      2  O   UNL     1       2.138   4.723  19.859  0.00  0.00    +0.000 OA
ATOM      3  N   UNL     1       4.044   5.440  18.782  0.00  0.00    +0.000 N 
ATOM      4  C   UNL     1       4.876   4.238  18.687  0.00  0.00    +0.000 C 
ATOM      5  C   UNL     1       5.807   5.168  17.914  0.00  0.00    +0.000 C 
ATOM      6  C   UNL     1       6.943   5.786  18.689  0.00  0.00    +0.000 C 
ATOM      7  C   UNL     1       7.790   4.692  17.994  0.00  0.00    +0.000 C 
ATOM      8  N   UNL     1       6.706   4.530  16.957  0.00  0.00    +0.000 NA
ATOM      9  C   UNL     1       4.611   5.995  17.533  0.00  0.00    +0.000 C 
ENDROOT
BRANCH   1  13
ATOM     10  C   UNL     1       1.191   9.561  19.126  0.00  0.00    +0.000 A 
ATOM     11  C   UNL     1       1.720   8.961  17.978  0.00  0.00    +0.000 A 
ATOM     12  C   UNL     1       2.278   7.689  18.053  0.00  0.00    +0.000 A 
ATOM     13  C   UNL     1       2.281   6.998  19.272  0.00  0.00    +0.000 A 
ATOM     14  C   UNL     1       1.788   7.602  20.430  0.00  0.00    +0.000 A 
ATOM     15  C   UNL     1       1.234   8.887  20.356  0.00  0.00    +0.000 A 
BRANCH  10  17
ATOM     16  O   UNL     1       1.277  11.890  18.845  0.00  0.00    +0.000 OA
ATOM     17  C   UNL     1       0.564  10.898  18.967  0.00  0.00    +0.000 C 
ATOM     18  N   UNL     1      -0.814  10.935  19.021  0.00  0.00    +0.000 N 
ATOM     19  H   UNL     1      -1.322  10.101  19.282  0.00  0.00    +0.000 HD
BRANCH  18  20
ATOM     20  C   UNL     1      -1.520  12.177  18.997  0.00  0.00    +0.000 C 
ATOM     21  C   UNL     1      -1.784  12.939  20.265  0.00  0.00    +0.000 C 
ATOM     22  C   UNL     1      -2.917  12.270  19.544  0.00  0.00    +0.000 C 
ENDBRANCH  18  20
ENDBRANCH  10  17
ENDBRANCH   1  13
BRANCH   8  23
ATOM     23  C   UNL     1       7.066   5.387  15.805  0.00  0.00    +0.000 C 
BRANCH  23  24
ATOM     24  C   UNL     1       6.815   4.772  14.445  0.00  0.00    +0.000 A 
ATOM     25  C   UNL     1       5.671   3.981  14.248  0.00  0.00    +0.000 A 
ATOM     26  C   UNL     1       5.408   3.401  13.006  0.00  0.00    +0.000 A 
ATOM     27  C   UNL     1       6.276   3.620  11.940  0.00  0.00    +0.000 A 
ATOM     28  C   UNL     1       7.390   4.440  12.107  0.00  0.00    +0.000 A 
ATOM     29  C   UNL     1       7.653   5.023  13.349  0.00  0.00    +0.000 A 
ENDBRANCH  23  24
ENDBRANCH   8  23
TORSDOF 5
ENDMDL
MODEL 2
REMARK VINA RESULT:      -8.6      1.211      1.415
REMARK  Name = 
REMARK  5 active torsions:
REMARK  status: ('A' for Active; 'I' for Inactive)
REMARK    1  A    between atoms: C_2  and  C_7
REMARK    2  A    between atoms: N_3  and  C_4
REMARK    3  A    between atoms: C_10  and  C_11
REMARK    4  A    between atoms: N_18  and  C_19
REMARK    5  A    between atoms: C_19  and  C_20
REMARK                            x       y       z     vdW  Elec       q    Type
REMARK                         _______ _______ _______ _____ _____    ______ ____
ROOT
ATOM      1  C   UNL     1       2.777   5.590  19.386  0.00  0.00    +0.000 C 
ATOM      2  O   UNL     1       2.123   4.703  19.920  0.00  0.00    +0.000 OA
ATOM      3  N   UNL     1       4.020   5.430  18.834  0.00  0.00    +0.000 N 
ATOM      4  C   UNL     1       4.848   4.227  18.714  0.00  0.00    +0.000 C 
ATOM      5  C   UNL     1       5.773   5.166  17.945  0.00  0.00    +0.000 C 
ATOM      6  C   UNL     1       6.918   5.770  18.717  0.00  0.00    +0.000 C 
ATOM      7  C   UNL     1       7.756   4.683  17.999  0.00  0.00    +0.000 C 
ATOM      8  N   UNL     1       6.661   4.539  16.971  0.00  0.00    +0.000 NA
ATOM      9  C   UNL     1       4.576   6.000  17.588  0.00  0.00    +0.000 C 
ENDROOT
BRANCH   1  13
ATOM     10  C   UNL     1       1.182   9.554  19.259  0.00  0.00    +0.000 A 
ATOM     11  C   UNL     1       1.731   8.980  18.107  0.00  0.00    +0.000 A 
ATOM     12  C   UNL     1       2.285   7.705  18.162  0.00  0.00    +0.000 A 
ATOM     13  C   UNL     1       2.265   6.985  19.363  0.00  0.00    +0.000 A 
ATOM     14  C   UNL     1       1.753   7.562  20.527  0.00  0.00    +0.000 A 
ATOM     15  C   UNL     1       1.202   8.849  20.473  0.00  0.00    +0.000 A 
BRANCH  10  17
ATOM     16  O   UNL     1      -0.429  11.033  18.408  0.00  0.00    +0.000 OA
ATOM     17  C   UNL     1       0.561  10.895  19.122  0.00  0.00    +0.000 C 
ATOM     18  N   UNL     1       1.190  11.929  19.785  0.00  0.00    +0.000 N 
ATOM     19  H   UNL     1       2.087  11.763  20.221  0.00  0.00    +0.000 HD
BRANCH  18  20
ATOM     20  C   UNL     1       0.750  13.279  19.631  0.00  0.00    +0.000 C 
ATOM     21  C   UNL     1       1.450  14.216  18.688  0.00  0.00    +0.000 C 
ATOM     22  C   UNL     1       1.574  14.415  20.170  0.00  0.00    +0.000 C 
ENDBRANCH  18  20
ENDBRANCH  10  17
ENDBRANCH   1  13
BRANCH   8  23
ATOM     23  C   UNL     1       7.012   5.410  15.827  0.00  0.00    +0.000 C 
BRANCH  23  24
ATOM     24  C   UNL     1       6.798   4.794  14.461  0.00  0.00    +0.000 A 
ATOM     25  C   UNL     1       5.663   3.997  14.236  0.00  0.00    +0.000 A 
ATOM     26  C   UNL     1       5.434   3.416  12.989  0.00  0.00    +0.000 A 
ATOM     27  C   UNL     1       6.327   3.640  11.944  0.00  0.00    +0.000 A 
ATOM     28  C   UNL     1       7.432   4.466  12.139  0.00  0.00    +0.000 A 
ATOM     29  C   UNL     1       7.661   5.050  13.387  0.00  0.00    +0.000 A 
ENDBRANCH  23  24
ENDBRANCH   8  23
TORSDOF 5
ENDMDL
MODEL 3
REMARK VINA RESULT:      -8.5      1.318      1.876
REMARK  Name = 
REMARK  5 active torsions:
REMARK  status: ('A' for Active; 'I' for Inactive)
REMARK    1  A    between atoms: C_2  and  C_7
REMARK    2  A    between atoms: N_3  and  C_4
REMARK    3  A    between atoms: C_10  and  C_11
REMARK    4  A    between atoms: N_18  and  C_19
REMARK    5  A    between atoms: C_19  and  C_20
REMARK                            x       y       z     vdW  Elec       q    Type
REMARK                         _______ _______ _______ _____ _____    ______ ____
ROOT
ATOM      1  C   UNL     1       2.762   5.530  19.212  0.00  0.00    +0.000 C 
ATOM      2  O   UNL     1       2.101   4.642  19.734  0.00  0.00    +0.000 OA
ATOM      3  N   UNL     1       4.024   5.379  18.703  0.00  0.00    +0.000 N 
ATOM      4  C   UNL     1       4.868   4.184  18.621  0.00  0.00    +0.000 C 
ATOM      5  C   UNL     1       5.808   5.125  17.873  0.00  0.00    +0.000 C 
ATOM      6  C   UNL     1       6.922   5.749  18.676  0.00  0.00    +0.000 C 
ATOM      7  C   UNL     1       7.793   4.664  17.996  0.00  0.00    +0.000 C 
ATOM      8  N   UNL     1       6.733   4.499  16.934  0.00  0.00    +0.000 NA
ATOM      9  C   UNL     1       4.615   5.944  17.470  0.00  0.00    +0.000 C 
ENDROOT
BRANCH   1  13
ATOM     10  C   UNL     1       1.380   9.574  19.122  0.00  0.00    +0.000 A 
ATOM     11  C   UNL     1       1.344   8.846  20.316  0.00  0.00    +0.000 A 
ATOM     12  C   UNL     1       1.757   7.518  20.333  0.00  0.00    +0.000 A 
ATOM     13  C   UNL     1       2.238   6.920  19.160  0.00  0.00    +0.000 A 
ATOM     14  C   UNL     1       2.243   7.626  17.956  0.00  0.00    +0.000 A 
ATOM     15  C   UNL     1       1.819   8.962  17.938  0.00  0.00    +0.000 A 
BRANCH  10  17
ATOM     16  O   UNL     1      -0.105  11.302  19.686  0.00  0.00    +0.000 OA
ATOM     17  C   UNL     1       0.974  11.001  19.183  0.00  0.00    +0.000 C 
ATOM     18  N   UNL     1       1.842  11.906  18.607  0.00  0.00    +0.000 N 
ATOM     19  H   UNL     1       2.631  11.565  18.075  0.00  0.00    +0.000 HD
BRANCH  18  20
ATOM     20  C   UNL     1       1.503  13.290  18.503  0.00  0.00    +0.000 C 
ATOM     21  C   UNL     1       2.548  14.319  18.178  0.00  0.00    +0.000 C 
ATOM     22  C   UNL     1       1.953  14.266  19.554  0.00  0.00    +0.000 C 
ENDBRANCH  18  20
ENDBRANCH  10  17
ENDBRANCH   1  13
BRANCH   8  23
ATOM     23  C   UNL     1       7.112   5.363  15.794  0.00  0.00    +0.000 C 
BRANCH  23  24
ATOM     24  C   UNL     1       6.861   4.768  14.426  0.00  0.00    +0.000 A 
ATOM     25  C   UNL     1       5.743   3.940  14.231  0.00  0.00    +0.000 A 
ATOM     26  C   UNL     1       5.480   3.377  12.981  0.00  0.00    +0.000 A 
ATOM     27  C   UNL     1       6.321   3.650  11.906  0.00  0.00    +0.000 A 
ATOM     28  C   UNL     1       7.408   4.507  12.072  0.00  0.00    +0.000 A 
ATOM     29  C   UNL     1       7.670   5.073  13.322  0.00  0.00    +0.000 A 
ENDBRANCH  23  24
ENDBRANCH   8  23
TORSDOF 5
ENDMDL
MODEL 4
REMARK VINA RESULT:      -8.5      0.974      1.695
REMARK  Name = 
REMARK  5 active torsions:
REMARK  status: ('A' for Active; 'I' for Inactive)
REMARK    1  A    between atoms: C_2  and  C_7
REMARK    2  A    between atoms: N_3  and  C_4
REMARK    3  A    between atoms: C_10  and  C_11
REMARK    4  A    between atoms: N_18  and  C_19
REMARK    5  A    between atoms: C_19  and  C_20
REMARK                            x       y       z     vdW  Elec       q    Type
REMARK                         _______ _______ _______ _____ _____    ______ ____
ROOT
ATOM      1  C   UNL     1       2.903   5.195  19.686  0.00  0.00    +0.000 C 
ATOM      2  O   UNL     1       2.351   4.244  20.225  0.00  0.00    +0.000 OA
ATOM      3  N   UNL     1       4.122   5.150  19.063  0.00  0.00    +0.000 N 
ATOM      4  C   UNL     1       5.032   4.021  18.859  0.00  0.00    +0.000 C 
ATOM      5  C   UNL     1       5.838   5.051  18.073  0.00  0.00    +0.000 C 
ATOM      6  C   UNL     1       6.974   5.722  18.802  0.00  0.00    +0.000 C 
ATOM      7  C   UNL     1       7.851   4.726  18.004  0.00  0.00    +0.000 C 
ATOM      8  N   UNL     1       6.715   4.525  17.031  0.00  0.00    +0.000 NA
ATOM      9  C   UNL     1       4.561   5.799  17.808  0.00  0.00    +0.000 C 
ENDROOT
BRANCH   1  13
ATOM     10  C   UNL     1       1.240   9.126  19.913  0.00  0.00    +0.000 A 
ATOM     11  C   UNL     1       1.136   8.254  21.003  0.00  0.00    +0.000 A 
ATOM     12  C   UNL     1       1.643   6.962  20.911  0.00  0.00    +0.000 A 
ATOM     13  C   UNL     1       2.285   6.545  19.738  0.00  0.00    +0.000 A 
ATOM     14  C   UNL     1       2.361   7.394  18.632  0.00  0.00    +0.000 A 
ATOM     15  C   UNL     1       1.844   8.693  18.722  0.00  0.00    +0.000 A 
BRANCH  10  17
ATOM     16  O   UNL     1       0.936  11.349  19.226  0.00  0.00    +0.000 OA
ATOM     17  C   UNL     1       0.726  10.506  20.094  0.00  0.00    +0.000 C 
ATOM     18  N   UNL     1       0.074  10.763  21.284  0.00  0.00    +0.000 N 
ATOM     19  H   UNL     1       0.081  10.062  22.012  0.00  0.00    +0.000 HD
BRANCH  18  20
ATOM     20  C   UNL     1      -0.360  12.082  21.617  0.00  0.00    +0.000 C 
ATOM     21  C   UNL     1      -1.150  12.342  22.869  0.00  0.00    +0.000 C 
ATOM     22  C   UNL     1      -1.814  12.451  21.528  0.00  0.00    +0.000 C 
ENDBRANCH  18  20
ENDBRANCH  10  17
ENDBRANCH   1  13
BRANCH   8  23
ATOM     23  C   UNL     1       6.933   5.455  15.901  0.00  0.00    +0.000 C 
BRANCH  23  24
ATOM     24  C   UNL     1       6.740   4.851  14.526  0.00  0.00    +0.000 A 
ATOM     25  C   UNL     1       7.655   5.159  13.506  0.00  0.00    +0.000 A 
ATOM     26  C   UNL     1       7.509   4.617  12.228  0.00  0.00    +0.000 A 
ATOM     27  C   UNL     1       6.458   3.745  11.959  0.00  0.00    +0.000 A 
ATOM     28  C   UNL     1       5.569   3.393  12.974  0.00  0.00    +0.000 A 
ATOM     29  C   UNL     1       5.716   3.934  14.254  0.00  0.00    +0.000 A 
ENDBRANCH  23  24
ENDBRANCH   8  23
TORSDOF 5
ENDMDL
MODEL 5
REMARK VINA RESULT:      -8.3      1.281      2.000
REMARK  Name = 
REMARK  5 active torsions:
REMARK  status: ('A' for Active; 'I' for Inactive)
REMARK    1  A    between atoms: C_2  and  C_7
REMARK    2  A    between atoms: N_3  and  C_4
REMARK    3  A    between atoms: C_10  and  C_11
REMARK    4  A    between atoms: N_18  and  C_19
REMARK    5  A    between atoms: C_19  and  C_20
REMARK                            x       y       z     vdW  Elec       q    Type
REMARK                         _______ _______ _______ _____ _____    ______ ____
ROOT
ATOM      1  C   UNL     1       2.783   5.516  19.406  0.00  0.00    +0.000 C 
ATOM      2  O   UNL     1       2.167   4.614  19.959  0.00  0.00    +0.000 OA
ATOM      3  N   UNL     1       4.033   5.398  18.860  0.00  0.00    +0.000 N 
ATOM      4  C   UNL     1       4.913   4.230  18.769  0.00  0.00    +0.000 C 
ATOM      5  C   UNL     1       5.799   5.190  17.981  0.00  0.00    +0.000 C 
ATOM      6  C   UNL     1       6.915   5.861  18.742  0.00  0.00    +0.000 C 
ATOM      7  C   UNL     1       7.801   4.795  18.050  0.00  0.00    +0.000 C 
ATOM      8  N   UNL     1       6.716   4.581  17.022  0.00  0.00    +0.000 NA
ATOM      9  C   UNL     1       4.568   5.964  17.603  0.00  0.00    +0.000 C 
ENDROOT
BRANCH   1  13
ATOM     10  C   UNL     1       1.264   9.510  19.312  0.00  0.00    +0.000 A 
ATOM     11  C   UNL     1       1.230   8.773  20.501  0.00  0.00    +0.000 A 
ATOM     12  C   UNL     1       1.689   7.460  20.518  0.00  0.00    +0.000 A 
ATOM     13  C   UNL     1       2.212   6.887  19.352  0.00  0.00    +0.000 A 
ATOM     14  C   UNL     1       2.215   7.600  18.151  0.00  0.00    +0.000 A 
ATOM     15  C   UNL     1       1.746   8.920  18.133  0.00  0.00    +0.000 A 
BRANCH  10  17
ATOM     16  O   UNL     1       0.003  11.334  18.542  0.00  0.00    +0.000 OA
ATOM     17  C   UNL     1       0.808  10.921  19.373  0.00  0.00    +0.000 C 
ATOM     18  N   UNL     1       1.378  11.704  20.356  0.00  0.00    +0.000 N 
ATOM     19  H   UNL     1       2.147  11.334  20.898  0.00  0.00    +0.000 HD
BRANCH  18  20
ATOM     20  C   UNL     1       1.104  13.103  20.437  0.00  0.00    +0.000 C 
ATOM     21  C   UNL     1       1.861  14.088  19.591  0.00  0.00    +0.000 C 
ATOM     22  C   UNL     1       2.094  14.039  21.073  0.00  0.00    +0.000 C 
ENDBRANCH  18  20
ENDBRANCH  10  17
ENDBRANCH   1  13
BRANCH   8  23
ATOM     23  C   UNL     1       7.032   5.441  15.861  0.00  0.00    +0.000 C 
BRANCH  23  24
ATOM     24  C   UNL     1       6.766   4.817  14.508  0.00  0.00    +0.000 A 
ATOM     25  C   UNL     1       7.654   5.068  13.448  0.00  0.00    +0.000 A 
ATOM     26  C   UNL     1       7.440   4.507  12.189  0.00  0.00    +0.000 A 
ATOM     27  C   UNL     1       6.346   3.671  11.977  0.00  0.00    +0.000 A 
ATOM     28  C   UNL     1       5.483   3.376  13.031  0.00  0.00    +0.000 A 
ATOM     29  C   UNL     1       5.697   3.936  14.293  0.00  0.00    +0.000 A 
ENDBRANCH  23  24
ENDBRANCH   8  23
TORSDOF 5
ENDMDL
MODEL 6
REMARK VINA RESULT:      -8.3      1.063      1.540
REMARK  Name = 
REMARK  5 active torsions:
REMARK  status: ('A' for Active; 'I' for Inactive)
REMARK    1  A    between atoms: C_2  and  C_7
REMARK    2  A    between atoms: N_3  and  C_4
REMARK    3  A    between atoms: C_10  and  C_11
REMARK    4  A    between atoms: N_18  and  C_19
REMARK    5  A    between atoms: C_19  and  C_20
REMARK                            x       y       z     vdW  Elec       q    Type
REMARK                         _______ _______ _______ _____ _____    ______ ____
ROOT
ATOM      1  C   UNL     1       2.899   5.044  19.777  0.00  0.00    +0.000 C 
ATOM      2  O   UNL     1       2.366   4.072  20.297  0.00  0.00    +0.000 OA
ATOM      3  N   UNL     1       4.103   5.029  19.125  0.00  0.00    +0.000 N 
ATOM      4  C   UNL     1       5.017   3.914  18.864  0.00  0.00    +0.000 C 
ATOM      5  C   UNL     1       5.797   4.976  18.093  0.00  0.00    +0.000 C 
ATOM      6  C   UNL     1       6.945   5.632  18.817  0.00  0.00    +0.000 C 
ATOM      7  C   UNL     1       7.811   4.668  17.968  0.00  0.00    +0.000 C 
ATOM      8  N   UNL     1       6.653   4.490  17.016  0.00  0.00    +0.000 NA
ATOM      9  C   UNL     1       4.509   5.721  17.882  0.00  0.00    +0.000 C 
ENDROOT
BRANCH   1  13
ATOM     10  C   UNL     1       1.207   8.949  20.179  0.00  0.00    +0.000 A 
ATOM     11  C   UNL     1       1.041   8.003  21.196  0.00  0.00    +0.000 A 
ATOM     12  C   UNL     1       1.558   6.721  21.044  0.00  0.00    +0.000 A 
ATOM     13  C   UNL     1       2.272   6.388  19.886  0.00  0.00    +0.000 A 
ATOM     14  C   UNL     1       2.412   7.312  18.849  0.00  0.00    +0.000 A 
ATOM     15  C   UNL     1       1.884   8.601  18.999  0.00  0.00    +0.000 A 
BRANCH  10  17
ATOM     16  O   UNL     1      -0.009  10.525  21.421  0.00  0.00    +0.000 OA
ATOM     17  C   UNL     1       0.676  10.313  20.425  0.00  0.00    +0.000 C 
ATOM     18  N   UNL     1       0.958  11.260  19.461  0.00  0.00    +0.000 N 
ATOM     19  H   UNL     1       1.392  10.970  18.595  0.00  0.00    +0.000 HD
BRANCH  18  20
ATOM     20  C   UNL     1       0.402  12.574  19.533  0.00  0.00    +0.000 C 
ATOM     21  C   UNL     1      -1.007  12.842  19.085  0.00  0.00    +0.000 C 
ATOM     22  C   UNL     1       0.147  13.363  18.280  0.00  0.00    +0.000 C 
ENDBRANCH  18  20
ENDBRANCH  10  17
ENDBRANCH   1  13
BRANCH   8  23
ATOM     23  C   UNL     1       6.838   5.457  15.911  0.00  0.00    +0.000 C 
BRANCH  23  24
ATOM     24  C   UNL     1       6.751   4.866  14.520  0.00  0.00    +0.000 A 
ATOM     25  C   UNL     1       5.658   4.047  14.188  0.00  0.00    +0.000 A 
ATOM     26  C   UNL     1       5.545   3.488  12.915  0.00  0.00    +0.000 A 
ATOM     27  C   UNL     1       6.512   3.757  11.950  0.00  0.00    +0.000 A 
ATOM     28  C   UNL     1       7.577   4.605  12.250  0.00  0.00    +0.000 A 
ATOM     29  C   UNL     1       7.690   5.166  13.524  0.00  0.00    +0.000 A 
ENDBRANCH  23  24
ENDBRANCH   8  23
TORSDOF 5
ENDMDL
MODEL 7
REMARK VINA RESULT:      -7.9      1.080      1.752
REMARK  Name = 
REMARK  5 active torsions:
REMARK  status: ('A' for Active; 'I' for Inactive)
REMARK    1  A    between atoms: C_2  and  C_7
REMARK    2  A    between atoms: N_3  and  C_4
REMARK    3  A    between atoms: C_10  and  C_11
REMARK    4  A    between atoms: N_18  and  C_19
REMARK    5  A    between atoms: C_19  and  C_20
REMARK                            x       y       z     vdW  Elec       q    Type
REMARK                         _______ _______ _______ _____ _____    ______ ____
ROOT
ATOM      1  C   UNL     1       2.450   5.503  19.847  0.00  0.00    +0.000 C 
ATOM      2  O   UNL     1       1.803   4.584  20.335  0.00  0.00    +0.000 OA
ATOM      3  N   UNL     1       3.659   5.369  19.219  0.00  0.00    +0.000 N 
ATOM      4  C   UNL     1       4.450   4.165  18.949  0.00  0.00    +0.000 C 
ATOM      5  C   UNL     1       5.358   5.151  18.217  0.00  0.00    +0.000 C 
ATOM      6  C   UNL     1       6.555   5.661  18.978  0.00  0.00    +0.000 C 
ATOM      7  C   UNL     1       7.328   4.626  18.123  0.00  0.00    +0.000 C 
ATOM      8  N   UNL     1       6.178   4.596  17.145  0.00  0.00    +0.000 NA
ATOM      9  C   UNL     1       4.164   6.038  18.000  0.00  0.00    +0.000 C 
ENDROOT
BRANCH   1  13
ATOM     10  C   UNL     1       1.204   9.568  20.281  0.00  0.00    +0.000 A 
ATOM     11  C   UNL     1       1.151   8.697  21.375  0.00  0.00    +0.000 A 
ATOM     12  C   UNL     1       1.520   7.365  21.220  0.00  0.00    +0.000 A 
ATOM     13  C   UNL     1       1.972   6.904  19.976  0.00  0.00    +0.000 A 
ATOM     14  C   UNL     1       1.993   7.756  18.870  0.00  0.00    +0.000 A 
ATOM     15  C   UNL     1       1.615   9.096  19.025  0.00  0.00    +0.000 A 
BRANCH  10  17
ATOM     16  O   UNL     1       0.627  11.369  21.672  0.00  0.00    +0.000 OA
ATOM     17  C   UNL     1       0.848  10.988  20.525  0.00  0.00    +0.000 C 
ATOM     18  N   UNL     1       0.737  11.790  19.407  0.00  0.00    +0.000 N 
ATOM     19  H   UNL     1       0.778  11.367  18.490  0.00  0.00    +0.000 HD
BRANCH  18  20
ATOM     20  C   UNL     1       0.286  13.142  19.510  0.00  0.00    +0.000 C 
ATOM     21  C   UNL     1      -1.176  13.460  19.645  0.00  0.00    +0.000 C 
ATOM     22  C   UNL     1      -0.452  13.788  18.372  0.00  0.00    +0.000 C 
ENDBRANCH  18  20
ENDBRANCH  10  17
ENDBRANCH   1  13
BRANCH   8  23
ATOM     23  C   UNL     1       6.492   5.560  16.067  0.00  0.00    +0.000 C 
BRANCH  23  24
ATOM     24  C   UNL     1       6.533   4.972  14.673  0.00  0.00    +0.000 A 
ATOM     25  C   UNL     1       7.596   5.306  13.817  0.00  0.00    +0.000 A 
ATOM     26  C   UNL     1       7.667   4.780  12.526  0.00  0.00    +0.000 A 
ATOM     27  C   UNL     1       6.686   3.898  12.081  0.00  0.00    +0.000 A 
ATOM     28  C   UNL     1       5.650   3.521  12.935  0.00  0.00    +0.000 A 
ATOM     29  C   UNL     1       5.580   4.046  14.228  0.00  0.00    +0.000 A 
ENDBRANCH  23  24
ENDBRANCH   8  23
TORSDOF 5
ENDMDL
MODEL 8
REMARK VINA RESULT:      -7.9      1.182      1.368
REMARK  Name = 
REMARK  5 active torsions:
REMARK  status: ('A' for Active; 'I' for Inactive)
REMARK    1  A    between atoms: C_2  and  C_7
REMARK    2  A    between atoms: N_3  and  C_4
REMARK    3  A    between atoms: C_10  and  C_11
REMARK    4  A    between atoms: N_18  and  C_19
REMARK    5  A    between atoms: C_19  and  C_20
REMARK                            x       y       z     vdW  Elec       q    Type
REMARK                         _______ _______ _______ _____ _____    ______ ____
ROOT
ATOM      1  C   UNL     1       2.720   5.250  19.858  0.00  0.00    +0.000 C 
ATOM      2  O   UNL     1       2.125   4.295  20.341  0.00  0.00    +0.000 OA
ATOM      3  N   UNL     1       3.917   5.181  19.195  0.00  0.00    +0.000 N 
ATOM      4  C   UNL     1       4.749   4.018  18.878  0.00  0.00    +0.000 C 
ATOM      5  C   UNL     1       5.595   5.057  18.146  0.00  0.00    +0.000 C 
ATOM      6  C   UNL     1       6.791   5.600  18.887  0.00  0.00    +0.000 C 
ATOM      7  C   UNL     1       7.583   4.618  17.989  0.00  0.00    +0.000 C 
ATOM      8  N   UNL     1       6.410   4.561  17.041  0.00  0.00    +0.000 NA
ATOM      9  C   UNL     1       4.361   5.897  17.979  0.00  0.00    +0.000 C 
ENDROOT
BRANCH   1  13
ATOM     10  C   UNL     1       1.071   9.171  20.280  0.00  0.00    +0.000 A 
ATOM     11  C   UNL     1       1.683   8.792  19.080  0.00  0.00    +0.000 A 
ATOM     12  C   UNL     1       2.254   7.529  18.961  0.00  0.00    +0.000 A 
ATOM     13  C   UNL     1       2.188   6.627  20.031  0.00  0.00    +0.000 A 
ATOM     14  C   UNL     1       1.613   7.009  21.245  0.00  0.00    +0.000 A 
ATOM     15  C   UNL     1       1.045   8.283  21.368  0.00  0.00    +0.000 A 
BRANCH  10  17
ATOM     16  O   UNL     1      -0.340  10.783  21.238  0.00  0.00    +0.000 OA
ATOM     17  C   UNL     1       0.436  10.512  20.326  0.00  0.00    +0.000 C 
ATOM     18  N   UNL     1       0.732  11.362  19.280  0.00  0.00    +0.000 N 
ATOM     19  H   UNL     1       1.252  11.010  18.489  0.00  0.00    +0.000 HD
BRANCH  18  20
ATOM     20  C   UNL     1       0.090  12.632  19.158  0.00  0.00    +0.000 C 
ATOM     21  C   UNL     1      -0.380  13.134  17.822  0.00  0.00    +0.000 C 
ATOM     22  C   UNL     1       0.794  13.782  18.494  0.00  0.00    +0.000 C 
ENDBRANCH  18  20
ENDBRANCH  10  17
ENDBRANCH   1  13
BRANCH   8  23
ATOM     23  C   UNL     1       6.654   5.560  15.976  0.00  0.00    +0.000 C 
BRANCH  23  24
ATOM     24  C   UNL     1       6.735   4.997  14.574  0.00  0.00    +0.000 A 
ATOM     25  C   UNL     1       5.810   4.019  14.171  0.00  0.00    +0.000 A 
ATOM     26  C   UNL     1       5.856   3.480  12.884  0.00  0.00    +0.000 A 
ATOM     27  C   UNL     1       6.814   3.927  11.978  0.00  0.00    +0.000 A 
ATOM     28  C   UNL     1       7.708   4.929  12.348  0.00  0.00    +0.000 A 
ATOM     29  C   UNL     1       7.662   5.470  13.635  0.00  0.00    +0.000 A 
ENDBRANCH  23  24
ENDBRANCH   8  23
TORSDOF 5
ENDMDL
MODEL 9
REMARK VINA RESULT:      -7.7      0.885      1.038
REMARK  Name = 
REMARK  5 active torsions:
REMARK  status: ('A' for Active; 'I' for Inactive)
REMARK    1  A    between atoms: C_2  and  C_7
REMARK    2  A    between atoms: N_3  and  C_4
REMARK    3  A    between atoms: C_10  and  C_11
REMARK    4  A    between atoms: N_18  and  C_19
REMARK    5  A    between atoms: C_19  and  C_20
REMARK                            x       y       z     vdW  Elec       q    Type
REMARK                         _______ _______ _______ _____ _____    ______ ____
ROOT
ATOM      1  C   UNL     1       2.625   5.657  19.719  0.00  0.00    +0.000 C 
ATOM      2  O   UNL     1       2.058   4.731  20.285  0.00  0.00    +0.000 OA
ATOM      3  N   UNL     1       3.835   5.571  19.084  0.00  0.00    +0.000 N 
ATOM      4  C   UNL     1       4.717   4.416  18.895  0.00  0.00    +0.000 C 
ATOM      5  C   UNL     1       5.536   5.411  18.077  0.00  0.00    +0.000 C 
ATOM      6  C   UNL     1       6.696   6.072  18.778  0.00  0.00    +0.000 C 
ATOM      7  C   UNL     1       7.541   5.039  17.993  0.00  0.00    +0.000 C 
ATOM      8  N   UNL     1       6.389   4.842  17.038  0.00  0.00    +0.000 NA
ATOM      9  C   UNL     1       4.274   6.180  17.810  0.00  0.00    +0.000 C 
ENDROOT
BRANCH   1  13
ATOM     10  C   UNL     1       0.826   9.534  19.713  0.00  0.00    +0.000 A 
ATOM     11  C   UNL     1       1.583   9.109  18.616  0.00  0.00    +0.000 A 
ATOM     12  C   UNL     1       2.200   7.863  18.638  0.00  0.00    +0.000 A 
ATOM     13  C   UNL     1       2.037   7.022  19.747  0.00  0.00    +0.000 A 
ATOM     14  C   UNL     1       1.314   7.451  20.862  0.00  0.00    +0.000 A 
ATOM     15  C   UNL     1       0.700   8.709  20.842  0.00  0.00    +0.000 A 
BRANCH  10  17
ATOM     16  O   UNL     1       0.095  11.415  18.516  0.00  0.00    +0.000 OA
ATOM     17  C   UNL     1       0.151  10.852  19.605  0.00  0.00    +0.000 C 
ATOM     18  N   UNL     1      -0.332  11.387  20.781  0.00  0.00    +0.000 N 
ATOM     19  H   UNL     1      -0.108  10.938  21.658  0.00  0.00    +0.000 HD
BRANCH  18  20
ATOM     20  C   UNL     1      -0.895  12.700  20.818  0.00  0.00    +0.000 C 
ATOM     21  C   UNL     1      -0.117  13.859  21.373  0.00  0.00    +0.000 C 
ATOM     22  C   UNL     1      -1.297  13.321  22.126  0.00  0.00    +0.000 C 
ENDBRANCH  18  20
ENDBRANCH  10  17
ENDBRANCH   1  13
BRANCH   8  23
ATOM     23  C   UNL     1       6.614   5.740  15.884  0.00  0.00    +0.000 C 
BRANCH  23  24
ATOM     24  C   UNL     1       6.619   5.060  14.532  0.00  0.00    +0.000 A 
ATOM     25  C   UNL     1       5.582   4.170  14.207  0.00  0.00    +0.000 A 
ATOM     26  C   UNL     1       5.553   3.527  12.969  0.00  0.00    +0.000 A 
ATOM     27  C   UNL     1       6.551   3.781  12.031  0.00  0.00    +0.000 A 
ATOM     28  C   UNL     1       7.561   4.697  12.322  0.00  0.00    +0.000 A 
ATOM     29  C   UNL     1       7.589   5.342  13.560  0.00  0.00    +0.000 A 
ENDBRANCH  23  24
ENDBRANCH   8  23
TORSDOF 5
ENDMDL
