MODEL 1
REMARK VINA RESULT:      -8.0      0.000      0.000
REMARK  Name = 
REMARK  6 active torsions:
REMARK  status: ('A' for Active; 'I' for Inactive)
REMARK    1  A    between atoms: C_2  and  C_4
REMARK    2  A    between atoms: C_7  and  C_8
REMARK    3  A    between atoms: C_8  and  N_9
REMARK    4  A    between atoms: N_9  and  C_24
REMARK    5  A    between atoms: C_10  and  C_12
REMARK    6  A    between atoms: C_15  and  C_16
REMARK                            x       y       z     vdW  Elec       q    Type
REMARK                         _______ _______ _______ _____ _____    ______ ____
ROOT
ATOM      1  N   UNL     1      -0.414  11.287  19.070  0.00  0.00    +0.000 N 
ATOM      2  C   UNL     1       0.814  10.840  19.644  0.00  0.00    +0.000 C 
ATOM      3  O   UNL     1       1.375  11.562  20.477  0.00  0.00    +0.000 OA
ENDROOT
BRANCH   2   4
ATOM      4  C   UNL     1       1.401   9.540  19.254  0.00  0.00    +0.000 A 
ATOM      5  C   UNL     1       1.936   9.083  18.066  0.00  0.00    +0.000 A 
ATOM      6  C   UNL     1       2.385   7.737  18.119  0.00  0.00    +0.000 A 
ATOM      7  C   UNL     1       2.128   7.117  19.326  0.00  0.00    +0.000 A 
ATOM      8  S   UNL     1       1.401   8.241  20.408  0.00  0.00    +0.000 S 
BRANCH   7   9
ATOM      9  C   UNL     1       2.404   5.706  19.685  0.00  0.00    +0.000 A 
ATOM     10  C   UNL     1       1.503   4.924  20.424  0.00  0.00    +0.000 A 
ATOM     11  C   UNL     1       1.838   3.619  20.818  0.00  0.00    +0.000 A 
ATOM     12  C   UNL     1       3.075   3.070  20.484  0.00  0.00    +0.000 A 
ATOM     13  C   UNL     1       3.973   3.817  19.733  0.00  0.00    +0.000 A 
ATOM     14  C   UNL     1       3.636   5.111  19.343  0.00  0.00    +0.000 A 
ATOM     15  F   UNL     1       4.547   5.785  18.621  0.00  0.00    +0.000 F 
ENDBRANCH   7   9
ENDBRANCH   2   4
BRANCH   1  16
ATOM     16  C   UNL     1      -1.103  10.601  17.990  0.00  0.00    +0.000 C 
ATOM     17  C   UNL     1      -2.331  11.088  17.256  0.00  0.00    +0.000 C 
ATOM     18  C   UNL     1      -2.460   9.976  18.240  0.00  0.00    +0.000 C 
ENDBRANCH   1  16
BRANCH   1  19
ATOM     19  C   UNL     1      -0.997  12.546  19.589  0.00  0.00    +0.000 C 
BRANCH  19  23
ATOM     20  C   UNL     1      -3.638  12.526  22.999  0.00  0.00    +0.000 A 
ATOM     21  C   UNL     1      -4.143  12.833  21.732  0.00  0.00    +0.000 A 
ATOM     22  C   UNL     1      -3.309  12.748  20.611  0.00  0.00    +0.000 A 
ATOM     23  C   UNL     1      -1.962  12.368  20.748  0.00  0.00    +0.000 A 
ATOM     24  C   UNL     1      -1.527  11.883  21.986  0.00  0.00    +0.000 A 
ATOM     25  C   UNL     1      -2.357  11.971  23.107  0.00  0.00    +0.000 A 
BRANCH  20  27
ATOM     26  N   UNL     1      -4.069  14.045  24.875  0.00  0.00    +0.000 N 
ATOM     27  C   UNL     1      -4.361  12.855  24.261  0.00  0.00    +0.000 C 
ATOM     28  O   UNL     1      -5.121  12.060  24.796  0.00  0.00    +0.000 OA
ATOM     29  H   UNL     1      -4.424  14.150  25.816  0.00  0.00    +0.000 HD
ATOM     30  H   UNL     1      -3.296  14.634  24.607  0.00  0.00    +0.000 HD
ENDBRANCH  20  27
ENDBRANCH  19  23
ENDBRANCH   1  19
TORSDOF 6
ENDMDL
MODEL 2
REMARK VINA RESULT:      -8.0      0.870      1.257
REMARK  Name = 
REMARK  6 active torsions:
REMARK  status: ('A' for Active; 'I' for Inactive)
REMARK    1  A    between atoms: C_2  and  C_4
REMARK    2  A    between atoms: C_7  and  C_8
REMARK    3  A    between atoms: C_8  and  N_9
REMARK    4  A    between atoms: N_9  and  C_24
REMARK    5  A    between atoms: C_10  and  C_12
REMARK    6  A    between atoms: C_15  and  C_16
REMARK                            x       y       z     vdW  Elec       q    Type
REMARK                         _______ _______ _______ _____ _____    ______ ____
ROOT
ATOM      1  N   UNL     1      -0.421  11.273  18.954  0.00  0.00    +0.000 N 
ATOM      2  C   UNL     1       0.839  10.863  19.480  0.00  0.00    +0.000 C 
ATOM      3  O   UNL     1       1.419  11.610  20.278  0.00  0.00    +0.000 OA
ENDROOT
BRANCH   2   4
ATOM      4  C   UNL     1       1.440   9.571  19.083  0.00  0.00    +0.000 A 
ATOM      5  C   UNL     1       1.833   9.068  17.859  0.00  0.00    +0.000 A 
ATOM      6  C   UNL     1       2.359   7.751  17.921  0.00  0.00    +0.000 A 
ATOM      7  C   UNL     1       2.304   7.194  19.184  0.00  0.00    +0.000 A 
ATOM      8  S   UNL     1       1.669   8.347  20.294  0.00  0.00    +0.000 S 
BRANCH   7   9
ATOM      9  C   UNL     1       2.704   5.822  19.576  0.00  0.00    +0.000 A 
ATOM     10  C   UNL     1       3.928   5.254  19.190  0.00  0.00    +0.000 A 
ATOM     11  C   UNL     1       4.234   3.922  19.508  0.00  0.00    +0.000 A 
ATOM     12  C   UNL     1       3.327   3.132  20.215  0.00  0.00    +0.000 A 
ATOM     13  C   UNL     1       2.121   3.681  20.627  0.00  0.00    +0.000 A 
ATOM     14  C   UNL     1       1.822   5.004  20.310  0.00  0.00    +0.000 A 
ATOM     15  F   UNL     1       0.637   5.478  20.734  0.00  0.00    +0.000 F 
ENDBRANCH   7   9
ENDBRANCH   2   4
BRANCH   1  16
ATOM     16  C   UNL     1      -1.140  10.557  17.913  0.00  0.00    +0.000 C 
ATOM     17  C   UNL     1      -2.390  11.020  17.204  0.00  0.00    +0.000 C 
ATOM     18  C   UNL     1      -2.487   9.936  18.221  0.00  0.00    +0.000 C 
ENDBRANCH   1  16
BRANCH   1  19
ATOM     19  C   UNL     1      -1.011  12.527  19.480  0.00  0.00    +0.000 C 
BRANCH  19  23
ATOM     20  C   UNL     1      -3.533  12.480  22.979  0.00  0.00    +0.000 A 
ATOM     21  C   UNL     1      -4.075  12.828  21.738  0.00  0.00    +0.000 A 
ATOM     22  C   UNL     1      -3.282  12.751  20.587  0.00  0.00    +0.000 A 
ATOM     23  C   UNL     1      -1.940  12.341  20.668  0.00  0.00    +0.000 A 
ATOM     24  C   UNL     1      -1.472  11.818  21.879  0.00  0.00    +0.000 A 
ATOM     25  C   UNL     1      -2.261  11.896  23.029  0.00  0.00    +0.000 A 
BRANCH  20  27
ATOM     26  N   UNL     1      -3.863  13.961  24.905  0.00  0.00    +0.000 N 
ATOM     27  C   UNL     1      -4.205  12.794  24.272  0.00  0.00    +0.000 C 
ATOM     28  O   UNL     1      -4.966  12.004  24.813  0.00  0.00    +0.000 OA
ATOM     29  H   UNL     1      -4.184  14.050  25.861  0.00  0.00    +0.000 HD
ATOM     30  H   UNL     1      -3.086  14.538  24.626  0.00  0.00    +0.000 HD
ENDBRANCH  20  27
ENDBRANCH  19  23
ENDBRANCH   1  19
TORSDOF 6
ENDMDL
MODEL 3
REMARK VINA RESULT:      -7.8      1.632      2.321
REMARK  Name = 
REMARK  6 active torsions:
REMARK  status: ('A' for Active; 'I' for Inactive)
REMARK    1  A    between atoms: C_2  and  C_4
REMARK    2  A    between atoms: C_7  and  C_8
REMARK    3  A    between atoms: C_8  and  N_9
REMARK    4  A    between atoms: N_9  and  C_24
REMARK    5  A    between atoms: C_10  and  C_12
REMARK    6  A    between atoms: C_15  and  C_16
REMARK                            x       y       z     vdW  Elec       q    Type
REMARK                         _______ _______ _______ _____ _____    ______ ____
ROOT
ATOM      1  N   UNL     1      -0.792  11.224  19.246  0.00  0.00    +0.000 N 
ATOM      2  C   UNL     1       0.559  10.996  19.644  0.00  0.00    +0.000 C 
ATOM      3  O   UNL     1       1.239  11.964  20.007  0.00  0.00    +0.000 OA
ENDROOT
BRANCH   2   4
ATOM      4  C   UNL     1       1.134   9.634  19.624  0.00  0.00    +0.000 A 
ATOM      5  C   UNL     1       1.246   8.661  20.597  0.00  0.00    +0.000 A 
ATOM      6  C   UNL     1       1.893   7.477  20.153  0.00  0.00    +0.000 A 
ATOM      7  C   UNL     1       2.355   7.556  18.854  0.00  0.00    +0.000 A 
ATOM      8  S   UNL     1       1.912   9.074  18.175  0.00  0.00    +0.000 S 
BRANCH   7   9
ATOM      9  C   UNL     1       3.127   6.529  18.115  0.00  0.00    +0.000 A 
ATOM     10  C   UNL     1       4.298   6.831  17.402  0.00  0.00    +0.000 A 
ATOM     11  C   UNL     1       4.952   5.849  16.644  0.00  0.00    +0.000 A 
ATOM     12  C   UNL     1       4.452   4.548  16.580  0.00  0.00    +0.000 A 
ATOM     13  C   UNL     1       3.308   4.221  17.295  0.00  0.00    +0.000 A 
ATOM     14  C   UNL     1       2.663   5.200  18.047  0.00  0.00    +0.000 A 
ATOM     15  F   UNL     1       1.559   4.822  18.715  0.00  0.00    +0.000 F 
ENDBRANCH   7   9
ENDBRANCH   2   4
BRANCH   1  16
ATOM     16  C   UNL     1      -1.654  10.203  18.674  0.00  0.00    +0.000 C 
ATOM     17  C   UNL     1      -1.773   9.843  17.212  0.00  0.00    +0.000 C 
ATOM     18  C   UNL     1      -2.870  10.609  17.868  0.00  0.00    +0.000 C 
ENDBRANCH   1  16
BRANCH   1  19
ATOM     19  C   UNL     1      -1.331  12.596  19.395  0.00  0.00    +0.000 C 
BRANCH  19  23
ATOM     20  C   UNL     1      -3.754  12.733  22.961  0.00  0.00    +0.000 A 
ATOM     21  C   UNL     1      -2.367  12.600  23.070  0.00  0.00    +0.000 A 
ATOM     22  C   UNL     1      -1.570  12.652  21.920  0.00  0.00    +0.000 A 
ATOM     23  C   UNL     1      -2.154  12.821  20.652  0.00  0.00    +0.000 A 
ATOM     24  C   UNL     1      -3.514  13.142  20.579  0.00  0.00    +0.000 A 
ATOM     25  C   UNL     1      -4.311  13.088  21.726  0.00  0.00    +0.000 A 
BRANCH  20  27
ATOM     26  N   UNL     1      -6.027  12.350  23.795  0.00  0.00    +0.000 N 
ATOM     27  C   UNL     1      -4.688  12.415  24.078  0.00  0.00    +0.000 C 
ATOM     28  O   UNL     1      -4.300  12.306  25.233  0.00  0.00    +0.000 OA
ATOM     29  H   UNL     1      -6.643  12.327  24.598  0.00  0.00    +0.000 HD
ATOM     30  H   UNL     1      -6.426  12.648  22.919  0.00  0.00    +0.000 HD
ENDBRANCH  20  27
ENDBRANCH  19  23
ENDBRANCH   1  19
TORSDOF 6
ENDMDL
MODEL 4
REMARK VINA RESULT:      -7.8      1.511      1.978
REMARK  Name = 
REMARK  6 active torsions:
REMARK  status: ('A' for Active; 'I' for Inactive)
REMARK    1  A    between atoms: C_2  and  C_4
REMARK    2  A    between atoms: C_7  and  C_8
REMARK    3  A    between atoms: C_8  and  N_9
REMARK    4  A    between atoms: N_9  and  C_24
REMARK    5  A    between atoms: C_10  and  C_12
REMARK    6  A    between atoms: C_15  and  C_16
REMARK                            x       y       z     vdW  Elec       q    Type
REMARK                         _______ _______ _______ _____ _____    ______ ____
ROOT
ATOM      1  N   UNL     1      -0.535  11.272  19.192  0.00  0.00    +0.000 N 
ATOM      2  C   UNL     1       0.812  10.945  19.530  0.00  0.00    +0.000 C 
ATOM      3  O   UNL     1       1.591  11.864  19.813  0.00  0.00    +0.000 OA
ENDROOT
BRANCH   2   4
ATOM      4  C   UNL     1       1.267   9.538  19.545  0.00  0.00    +0.000 A 
ATOM      5  C   UNL     1       1.379   8.610  20.561  0.00  0.00    +0.000 A 
ATOM      6  C   UNL     1       1.885   7.353  20.137  0.00  0.00    +0.000 A 
ATOM      7  C   UNL     1       2.243   7.324  18.803  0.00  0.00    +0.000 A 
ATOM      8  S   UNL     1       1.872   8.838  18.074  0.00  0.00    +0.000 S 
BRANCH   7   9
ATOM      9  C   UNL     1       2.861   6.196  18.067  0.00  0.00    +0.000 A 
ATOM     10  C   UNL     1       2.247   4.939  17.956  0.00  0.00    +0.000 A 
ATOM     11  C   UNL     1       2.903   3.872  17.324  0.00  0.00    +0.000 A 
ATOM     12  C   UNL     1       4.183   4.036  16.793  0.00  0.00    +0.000 A 
ATOM     13  C   UNL     1       4.800   5.277  16.871  0.00  0.00    +0.000 A 
ATOM     14  C   UNL     1       4.144   6.334  17.498  0.00  0.00    +0.000 A 
ATOM     15  F   UNL     1       4.794   7.510  17.545  0.00  0.00    +0.000 F 
ENDBRANCH   7   9
ENDBRANCH   2   4
BRANCH   1  16
ATOM     16  C   UNL     1      -1.510  10.307  18.713  0.00  0.00    +0.000 C 
ATOM     17  C   UNL     1      -1.673   9.824  17.292  0.00  0.00    +0.000 C 
ATOM     18  C   UNL     1      -2.672  10.771  17.860  0.00  0.00    +0.000 C 
ENDBRANCH   1  16
BRANCH   1  19
ATOM     19  C   UNL     1      -0.947  12.691  19.305  0.00  0.00    +0.000 C 
BRANCH  19  23
ATOM     20  C   UNL     1      -3.101  13.165  23.011  0.00  0.00    +0.000 A 
ATOM     21  C   UNL     1      -1.703  13.213  23.010  0.00  0.00    +0.000 A 
ATOM     22  C   UNL     1      -1.007  13.156  21.798  0.00  0.00    +0.000 A 
ATOM     23  C   UNL     1      -1.698  13.035  20.579  0.00  0.00    +0.000 A 
ATOM     24  C   UNL     1      -3.090  13.179  20.583  0.00  0.00    +0.000 A 
ATOM     25  C   UNL     1      -3.787  13.234  21.792  0.00  0.00    +0.000 A 
BRANCH  20  27
ATOM     26  N   UNL     1      -3.872  13.908  25.217  0.00  0.00    +0.000 N 
ATOM     27  C   UNL     1      -3.902  12.939  24.248  0.00  0.00    +0.000 C 
ATOM     28  O   UNL     1      -4.496  11.889  24.450  0.00  0.00    +0.000 OA
ATOM     29  H   UNL     1      -4.262  13.643  26.113  0.00  0.00    +0.000 HD
ATOM     30  H   UNL     1      -3.230  14.685  25.207  0.00  0.00    +0.000 HD
ENDBRANCH  20  27
ENDBRANCH  19  23
ENDBRANCH   1  19
TORSDOF 6
ENDMDL
MODEL 5
REMARK VINA RESULT:      -7.5      1.692      2.255
REMARK  Name = 
REMARK  6 active torsions:
REMARK  status: ('A' for Active; 'I' for Inactive)
REMARK    1  A    between atoms: C_2  and  C_4
REMARK    2  A    between atoms: C_7  and  C_8
REMARK    3  A    between atoms: C_8  and  N_9
REMARK    4  A    between atoms: N_9  and  C_24
REMARK    5  A    between atoms: C_10  and  C_12
REMARK    6  A    between atoms: C_15  and  C_16
REMARK                            x       y       z     vdW  Elec       q    Type
REMARK                         _______ _______ _______ _____ _____    ______ ____
ROOT
ATOM      1  N   UNL     1      -0.810  11.060  18.783  0.00  0.00    +0.000 N 
ATOM      2  C   UNL     1       0.365  10.830  19.559  0.00  0.00    +0.000 C 
ATOM      3  O   UNL     1       0.801  11.752  20.260  0.00  0.00    +0.000 OA
ENDROOT
BRANCH   2   4
ATOM      4  C   UNL     1       1.047   9.517  19.529  0.00  0.00    +0.000 A 
ATOM      5  C   UNL     1       1.242   8.552  20.495  0.00  0.00    +0.000 A 
ATOM      6  C   UNL     1       1.978   7.425  20.041  0.00  0.00    +0.000 A 
ATOM      7  C   UNL     1       2.425   7.548  18.740  0.00  0.00    +0.000 A 
ATOM      8  S   UNL     1       1.858   9.029  18.072  0.00  0.00    +0.000 S 
BRANCH   7   9
ATOM      9  C   UNL     1       3.272   6.590  17.990  0.00  0.00    +0.000 A 
ATOM     10  C   UNL     1       4.409   6.989  17.271  0.00  0.00    +0.000 A 
ATOM     11  C   UNL     1       5.135   6.066  16.504  0.00  0.00    +0.000 A 
ATOM     12  C   UNL     1       4.742   4.729  16.437  0.00  0.00    +0.000 A 
ATOM     13  C   UNL     1       3.633   4.307  17.158  0.00  0.00    +0.000 A 
ATOM     14  C   UNL     1       2.916   5.228  17.920  0.00  0.00    +0.000 A 
ATOM     15  F   UNL     1       1.852   4.759  18.593  0.00  0.00    +0.000 F 
ENDBRANCH   7   9
ENDBRANCH   2   4
BRANCH   1  16
ATOM     16  C   UNL     1      -1.347  10.112  17.822  0.00  0.00    +0.000 C 
ATOM     17  C   UNL     1      -2.325  10.416  16.712  0.00  0.00    +0.000 C 
ATOM     18  C   UNL     1      -2.796   9.681  17.919  0.00  0.00    +0.000 C 
ENDBRANCH   1  16
BRANCH   1  19
ATOM     19  C   UNL     1      -1.499  12.361  18.949  0.00  0.00    +0.000 C 
BRANCH  19  23
ATOM     20  C   UNL     1      -4.489  12.930  22.005  0.00  0.00    +0.000 A 
ATOM     21  C   UNL     1      -4.880  12.792  20.670  0.00  0.00    +0.000 A 
ATOM     22  C   UNL     1      -3.920  12.512  19.690  0.00  0.00    +0.000 A 
ATOM     23  C   UNL     1      -2.563  12.383  20.033  0.00  0.00    +0.000 A 
ATOM     24  C   UNL     1      -2.217  12.334  21.388  0.00  0.00    +0.000 A 
ATOM     25  C   UNL     1      -3.173  12.617  22.367  0.00  0.00    +0.000 A 
BRANCH  20  27
ATOM     26  N   UNL     1      -4.797  14.091  24.143  0.00  0.00    +0.000 N 
ATOM     27  C   UNL     1      -5.382  13.497  23.056  0.00  0.00    +0.000 C 
ATOM     28  O   UNL     1      -6.598  13.361  23.011  0.00  0.00    +0.000 OA
ATOM     29  H   UNL     1      -5.416  14.287  24.920  0.00  0.00    +0.000 HD
ATOM     30  H   UNL     1      -3.811  14.034  24.344  0.00  0.00    +0.000 HD
ENDBRANCH  20  27
ENDBRANCH  19  23
ENDBRANCH   1  19
TORSDOF 6
ENDMDL
MODEL 6
REMARK VINA RESULT:      -7.4      0.715      1.075
REMARK  Name = 
REMARK  6 active torsions:
REMARK  status: ('A' for Active; 'I' for Inactive)
REMARK    1  A    between atoms: C_2  and  C_4
REMARK    2  A    between atoms: C_7  and  C_8
REMARK    3  A    between atoms: C_8  and  N_9
REMARK    4  A    between atoms: N_9  and  C_24
REMARK    5  A    between atoms: C_10  and  C_12
REMARK    6  A    between atoms: C_15  and  C_16
REMARK                            x       y       z     vdW  Elec       q    Type
REMARK                         _______ _______ _______ _____ _____    ______ ____
ROOT
ATOM      1  N   UNL     1      -0.420  11.388  19.087  0.00  0.00    +0.000 N 
ATOM      2  C   UNL     1       0.978  11.111  19.140  0.00  0.00    +0.000 C 
ATOM      3  O   UNL     1       1.755  12.039  19.399  0.00  0.00    +0.000 OA
ENDROOT
BRANCH   2   4
ATOM      4  C   UNL     1       1.489   9.746  18.894  0.00  0.00    +0.000 A 
ATOM      5  C   UNL     1       1.993   9.134  17.764  0.00  0.00    +0.000 A 
ATOM      6  C   UNL     1       2.363   7.777  17.962  0.00  0.00    +0.000 A 
ATOM      7  C   UNL     1       2.075   7.307  19.228  0.00  0.00    +0.000 A 
ATOM      8  S   UNL     1       1.418   8.581  20.181  0.00  0.00    +0.000 S 
BRANCH   7   9
ATOM      9  C   UNL     1       2.271   5.929  19.737  0.00  0.00    +0.000 A 
ATOM     10  C   UNL     1       1.298   5.257  20.493  0.00  0.00    +0.000 A 
ATOM     11  C   UNL     1       1.554   3.986  21.029  0.00  0.00    +0.000 A 
ATOM     12  C   UNL     1       2.785   3.362  20.825  0.00  0.00    +0.000 A 
ATOM     13  C   UNL     1       3.754   3.998  20.062  0.00  0.00    +0.000 A 
ATOM     14  C   UNL     1       3.494   5.259  19.530  0.00  0.00    +0.000 A 
ATOM     15  F   UNL     1       4.473   5.825  18.802  0.00  0.00    +0.000 F 
ENDBRANCH   7   9
ENDBRANCH   2   4
BRANCH   1  16
ATOM     16  C   UNL     1      -1.424  10.425  18.667  0.00  0.00    +0.000 C 
ATOM     17  C   UNL     1      -1.698   9.974  17.252  0.00  0.00    +0.000 C 
ATOM     18  C   UNL     1      -2.655  10.897  17.922  0.00  0.00    +0.000 C 
ENDBRANCH   1  16
BRANCH   1  19
ATOM     19  C   UNL     1      -0.865  12.754  19.453  0.00  0.00    +0.000 C 
BRANCH  19  23
ATOM     20  C   UNL     1      -3.112  12.807  23.134  0.00  0.00    +0.000 A 
ATOM     21  C   UNL     1      -2.184  11.788  22.903  0.00  0.00    +0.000 A 
ATOM     22  C   UNL     1      -1.386  11.821  21.753  0.00  0.00    +0.000 A 
ATOM     23  C   UNL     1      -1.519  12.864  20.819  0.00  0.00    +0.000 A 
ATOM     24  C   UNL     1      -2.311  13.967  21.157  0.00  0.00    +0.000 A 
ATOM     25  C   UNL     1      -3.110  13.934  22.302  0.00  0.00    +0.000 A 
BRANCH  20  27
ATOM     26  N   UNL     1      -4.949  13.820  24.405  0.00  0.00    +0.000 N 
ATOM     27  C   UNL     1      -4.182  12.709  24.168  0.00  0.00    +0.000 C 
ATOM     28  O   UNL     1      -4.322  11.709  24.858  0.00  0.00    +0.000 OA
ATOM     29  H   UNL     1      -5.526  13.784  25.235  0.00  0.00    +0.000 HD
ATOM     30  H   UNL     1      -4.736  14.732  24.032  0.00  0.00    +0.000 HD
ENDBRANCH  20  27
ENDBRANCH  19  23
ENDBRANCH   1  19
TORSDOF 6
ENDMDL
MODEL 7
REMARK VINA RESULT:      -7.4      4.084      8.986
REMARK  Name = 
REMARK  6 active torsions:
REMARK  status: ('A' for Active; 'I' for Inactive)
REMARK    1  A    between atoms: C_2  and  C_4
REMARK    2  A    between atoms: C_7  and  C_8
REMARK    3  A    between atoms: C_8  and  N_9
REMARK    4  A    between atoms: N_9  and  C_24
REMARK    5  A    between atoms: C_10  and  C_12
REMARK    6  A    between atoms: C_15  and  C_16
REMARK                            x       y       z     vdW  Elec       q    Type
REMARK                         _______ _______ _______ _____ _____    ______ ____
ROOT
ATOM      1  N   UNL     1       1.496   8.942  19.669  0.00  0.00    +0.000 N 
ATOM      2  C   UNL     1       1.072   9.525  18.438  0.00  0.00    +0.000 C 
ATOM      3  O   UNL     1       1.631   9.171  17.392  0.00  0.00    +0.000 OA
ENDROOT
BRANCH   2   4
ATOM      4  C   UNL     1      -0.013  10.530  18.412  0.00  0.00    +0.000 A 
ATOM      5  C   UNL     1      -0.010  11.902  18.563  0.00  0.00    +0.000 A 
ATOM      6  C   UNL     1      -1.299  12.492  18.482  0.00  0.00    +0.000 A 
ATOM      7  C   UNL     1      -2.319  11.570  18.345  0.00  0.00    +0.000 A 
ATOM      8  S   UNL     1      -1.654   9.986  18.241  0.00  0.00    +0.000 S 
BRANCH   7   9
ATOM      9  C   UNL     1      -3.774  11.845  18.299  0.00  0.00    +0.000 A 
ATOM     10  C   UNL     1      -4.526  11.739  17.119  0.00  0.00    +0.000 A 
ATOM     11  C   UNL     1      -5.884  12.092  17.097  0.00  0.00    +0.000 A 
ATOM     12  C   UNL     1      -6.518  12.557  18.249  0.00  0.00    +0.000 A 
ATOM     13  C   UNL     1      -5.799  12.649  19.433  0.00  0.00    +0.000 A 
ATOM     14  C   UNL     1      -4.451  12.296  19.450  0.00  0.00    +0.000 A 
ATOM     15  F   UNL     1      -3.809  12.409  20.626  0.00  0.00    +0.000 F 
ENDBRANCH   7   9
ENDBRANCH   2   4
BRANCH   1  16
ATOM     16  C   UNL     1       1.019   9.363  20.975  0.00  0.00    +0.000 C 
ATOM     17  C   UNL     1       1.176   8.610  22.275  0.00  0.00    +0.000 C 
ATOM     18  C   UNL     1      -0.157   8.652  21.612  0.00  0.00    +0.000 C 
ENDBRANCH   1  16
BRANCH   1  19
ATOM     19  C   UNL     1       2.511   7.864  19.605  0.00  0.00    +0.000 C 
BRANCH  19  23
ATOM     20  C   UNL     1       1.386   3.756  18.924  0.00  0.00    +0.000 A 
ATOM     21  C   UNL     1       1.224   4.318  20.194  0.00  0.00    +0.000 A 
ATOM     22  C   UNL     1       1.498   5.676  20.393  0.00  0.00    +0.000 A 
ATOM     23  C   UNL     1       1.950   6.479  19.331  0.00  0.00    +0.000 A 
ATOM     24  C   UNL     1       1.925   5.951  18.035  0.00  0.00    +0.000 A 
ATOM     25  C   UNL     1       1.654   4.595  17.835  0.00  0.00    +0.000 A 
BRANCH  20  27
ATOM     26  N   UNL     1       2.600   1.643  18.653  0.00  0.00    +0.000 N 
ATOM     27  C   UNL     1       1.390   2.284  18.684  0.00  0.00    +0.000 C 
ATOM     28  O   UNL     1       0.363   1.670  18.428  0.00  0.00    +0.000 OA
ATOM     29  H   UNL     1       2.583   0.695  18.298  0.00  0.00    +0.000 HD
ATOM     30  H   UNL     1       3.485   2.125  18.632  0.00  0.00    +0.000 HD
ENDBRANCH  20  27
ENDBRANCH  19  23
ENDBRANCH   1  19
TORSDOF 6
ENDMDL
MODEL 8
REMARK VINA RESULT:      -7.4      4.788     10.353
REMARK  Name = 
REMARK  6 active torsions:
REMARK  status: ('A' for Active; 'I' for Inactive)
REMARK    1  A    between atoms: C_2  and  C_4
REMARK    2  A    between atoms: C_7  and  C_8
REMARK    3  A    between atoms: C_8  and  N_9
REMARK    4  A    between atoms: N_9  and  C_24
REMARK    5  A    between atoms: C_10  and  C_12
REMARK    6  A    between atoms: C_15  and  C_16
REMARK                            x       y       z     vdW  Elec       q    Type
REMARK                         _______ _______ _______ _____ _____    ______ ____
ROOT
ATOM      1  N   UNL     1       3.209   4.605  18.658  0.00  0.00    +0.000 N 
ATOM      2  C   UNL     1       3.607   5.816  19.298  0.00  0.00    +0.000 C 
ATOM      3  O   UNL     1       4.813   6.018  19.484  0.00  0.00    +0.000 OA
ENDROOT
BRANCH   2   4
ATOM      4  C   UNL     1       2.600   6.811  19.727  0.00  0.00    +0.000 A 
ATOM      5  C   UNL     1       1.788   6.887  20.841  0.00  0.00    +0.000 A 
ATOM      6  C   UNL     1       0.938   8.025  20.855  0.00  0.00    +0.000 A 
ATOM      7  C   UNL     1       1.030   8.795  19.712  0.00  0.00    +0.000 A 
ATOM      8  S   UNL     1       2.230   8.138  18.668  0.00  0.00    +0.000 S 
BRANCH   7   9
ATOM      9  C   UNL     1       0.237  10.003  19.381  0.00  0.00    +0.000 A 
ATOM     10  C   UNL     1      -0.737  10.013  18.370  0.00  0.00    +0.000 A 
ATOM     11  C   UNL     1      -1.406  11.198  18.027  0.00  0.00    +0.000 A 
ATOM     12  C   UNL     1      -1.117  12.394  18.684  0.00  0.00    +0.000 A 
ATOM     13  C   UNL     1      -0.173  12.403  19.702  0.00  0.00    +0.000 A 
ATOM     14  C   UNL     1       0.487  11.223  20.039  0.00  0.00    +0.000 A 
ATOM     15  F   UNL     1       1.391  11.296  21.032  0.00  0.00    +0.000 F 
ENDBRANCH   7   9
ENDBRANCH   2   4
BRANCH   1  16
ATOM     16  C   UNL     1       1.827   4.185  18.499  0.00  0.00    +0.000 C 
ATOM     17  C   UNL     1       0.974   3.491  19.535  0.00  0.00    +0.000 C 
ATOM     18  C   UNL     1       1.496   2.712  18.378  0.00  0.00    +0.000 C 
ENDBRANCH   1  16
BRANCH   1  19
ATOM     19  C   UNL     1       4.278   3.708  18.159  0.00  0.00    +0.000 C 
BRANCH  19  23
ATOM     20  C   UNL     1       6.553   4.790  14.658  0.00  0.00    +0.000 A 
ATOM     21  C   UNL     1       5.156   4.845  14.622  0.00  0.00    +0.000 A 
ATOM     22  C   UNL     1       4.420   4.587  15.784  0.00  0.00    +0.000 A 
ATOM     23  C   UNL     1       5.071   4.258  16.986  0.00  0.00    +0.000 A 
ATOM     24  C   UNL     1       6.462   4.394  17.052  0.00  0.00    +0.000 A 
ATOM     25  C   UNL     1       7.199   4.649  15.892  0.00  0.00    +0.000 A 
BRANCH  20  27
ATOM     26  N   UNL     1       8.442   5.653  13.355  0.00  0.00    +0.000 N 
ATOM     27  C   UNL     1       7.394   4.773  13.427  0.00  0.00    +0.000 C 
ATOM     28  O   UNL     1       7.116   4.070  12.465  0.00  0.00    +0.000 OA
ATOM     29  H   UNL     1       8.868   5.752  12.442  0.00  0.00    +0.000 HD
ATOM     30  H   UNL     1       8.584   6.404  14.012  0.00  0.00    +0.000 HD
ENDBRANCH  20  27
ENDBRANCH  19  23
ENDBRANCH   1  19
TORSDOF 6
ENDMDL
MODEL 9
REMARK VINA RESULT:      -7.4      1.588      1.962
REMARK  Name = 
REMARK  6 active torsions:
REMARK  status: ('A' for Active; 'I' for Inactive)
REMARK    1  A    between atoms: C_2  and  C_4
REMARK    2  A    between atoms: C_7  and  C_8
REMARK    3  A    between atoms: C_8  and  N_9
REMARK    4  A    between atoms: N_9  and  C_24
REMARK    5  A    between atoms: C_10  and  C_12
REMARK    6  A    between atoms: C_15  and  C_16
REMARK                            x       y       z     vdW  Elec       q    Type
REMARK                         _______ _______ _______ _____ _____    ______ ____
ROOT
ATOM      1  N   UNL     1      -0.479  10.893  18.944  0.00  0.00    +0.000 N 
ATOM      2  C   UNL     1       0.679  10.544  19.702  0.00  0.00    +0.000 C 
ATOM      3  O   UNL     1       1.193  11.406  20.427  0.00  0.00    +0.000 OA
ENDROOT
BRANCH   2   4
ATOM      4  C   UNL     1       1.250   9.182  19.626  0.00  0.00    +0.000 A 
ATOM      5  C   UNL     1       1.422   8.194  20.575  0.00  0.00    +0.000 A 
ATOM      6  C   UNL     1       2.039   7.018  20.074  0.00  0.00    +0.000 A 
ATOM      7  C   UNL     1       2.421   7.117  18.750  0.00  0.00    +0.000 A 
ATOM      8  S   UNL     1       1.937   8.646  18.124  0.00  0.00    +0.000 S 
BRANCH   7   9
ATOM      9  C   UNL     1       3.145   6.102  17.949  0.00  0.00    +0.000 A 
ATOM     10  C   UNL     1       2.664   4.795  17.773  0.00  0.00    +0.000 A 
ATOM     11  C   UNL     1       3.420   3.838  17.079  0.00  0.00    +0.000 A 
ATOM     12  C   UNL     1       4.669   4.164  16.550  0.00  0.00    +0.000 A 
ATOM     13  C   UNL     1       5.154   5.457  16.692  0.00  0.00    +0.000 A 
ATOM     14  C   UNL     1       4.399   6.404  17.381  0.00  0.00    +0.000 A 
ATOM     15  F   UNL     1       4.923   7.637  17.487  0.00  0.00    +0.000 F 
ENDBRANCH   7   9
ENDBRANCH   2   4
BRANCH   1  16
ATOM     16  C   UNL     1      -1.098  10.022  17.960  0.00  0.00    +0.000 C 
ATOM     17  C   UNL     1      -2.080  10.433  16.888  0.00  0.00    +0.000 C 
ATOM     18  C   UNL     1      -2.569   9.680  18.077  0.00  0.00    +0.000 C 
ENDBRANCH   1  16
BRANCH   1  19
ATOM     19  C   UNL     1      -1.058  12.241  19.155  0.00  0.00    +0.000 C 
BRANCH  19  23
ATOM     20  C   UNL     1      -4.027  12.943  22.203  0.00  0.00    +0.000 A 
ATOM     21  C   UNL     1      -4.412  12.883  20.861  0.00  0.00    +0.000 A 
ATOM     22  C   UNL     1      -3.467  12.560  19.880  0.00  0.00    +0.000 A 
ATOM     23  C   UNL     1      -2.129  12.311  20.230  0.00  0.00    +0.000 A 
ATOM     24  C   UNL     1      -1.803  12.188  21.586  0.00  0.00    +0.000 A 
ATOM     25  C   UNL     1      -2.744  12.512  22.566  0.00  0.00    +0.000 A 
BRANCH  20  27
ATOM     26  N   UNL     1      -4.716  13.101  24.551  0.00  0.00    +0.000 N 
ATOM     27  C   UNL     1      -4.884  13.543  23.266  0.00  0.00    +0.000 C 
ATOM     28  O   UNL     1      -5.778  14.336  23.002  0.00  0.00    +0.000 OA
ATOM     29  H   UNL     1      -5.435  13.379  25.207  0.00  0.00    +0.000 HD
ATOM     30  H   UNL     1      -4.159  12.296  24.795  0.00  0.00    +0.000 HD
ENDBRANCH  20  27
ENDBRANCH  19  23
ENDBRANCH   1  19
TORSDOF 6
ENDMDL
