MODEL 1
REMARK VINA RESULT:      -9.4      0.000      0.000
REMARK  Name = 
REMARK  2 active torsions:
REMARK  status: ('A' for Active; 'I' for Inactive)
REMARK    1  A    between atoms: C_4  and  C_5
REMARK    2  A    between atoms: N_7  and  C_8
REMARK                            x       y       z     vdW  Elec       q    Type
REMARK                         _______ _______ _______ _____ _____    ______ ____
ROOT
ATOM      1  C   UNL     1       2.882   5.944  17.797  0.00  0.00    +0.000 C 
ATOM      2  O   UNL     1       1.757   5.436  17.818  0.00  0.00    +0.000 OA
ATOM      3  N   UNL     1       3.164   7.228  18.219  0.00  0.00    +0.000 N 
ATOM      4  H   UNL     1       3.941   7.690  17.761  0.00  0.00    +0.000 HD
ENDROOT
BRANCH   1   8
ATOM      5  O   UNL     1       3.845   2.649  19.872  0.00  0.00    +0.000 OA
ATOM      6  C   UNL     1       4.393   3.443  19.118  0.00  0.00    +0.000 C 
ATOM      7  C   UNL     1       3.925   3.677  17.703  0.00  0.00    +0.000 C 
ATOM      8  C   UNL     1       4.075   5.135  17.287  0.00  0.00    +0.000 C 
ATOM      9  C   UNL     1       5.416   5.708  17.686  0.00  0.00    +0.000 A 
ATOM     10  C   UNL     1       5.954   6.819  17.021  0.00  0.00    +0.000 A 
ATOM     11  C   UNL     1       7.169   7.361  17.440  0.00  0.00    +0.000 A 
ATOM     12  C   UNL     1       7.841   6.791  18.515  0.00  0.00    +0.000 A 
ATOM     13  F   UNL     1       9.004   7.319  18.919  0.00  0.00    +0.000 F 
ATOM     14  C   UNL     1       7.320   5.692  19.191  0.00  0.00    +0.000 A 
ATOM     15  C   UNL     1       6.105   5.157  18.775  0.00  0.00    +0.000 A 
ATOM     16  N   UNL     1       5.527   4.110  19.494  0.00  0.00    +0.000 N 
ATOM     17  H   UNL     1       5.928   3.817  20.384  0.00  0.00    +0.000 HD
ENDBRANCH   1   8
BRANCH   3  18
ATOM     18  C   UNL     1       2.162   8.074  18.740  0.00  0.00    +0.000 A 
ATOM     19  C   UNL     1       1.828   7.947  20.110  0.00  0.00    +0.000 A 
ATOM     20  C   UNL     1       0.888   8.798  20.703  0.00  0.00    +0.000 A 
ATOM     21  C   UNL     1       0.243   9.678  19.873  0.00  0.00    +0.000 A 
ATOM     22  N   UNL     1      -0.771  10.589  20.157  0.00  0.00    +0.000 N 
ATOM     23  C   UNL     1      -1.216  11.155  18.952  0.00  0.00    +0.000 A 
ATOM     24  O   UNL     1      -2.145  11.934  18.817  0.00  0.00    +0.000 OA
ATOM     25  N   UNL     1      -0.404  10.628  17.936  0.00  0.00    +0.000 N 
ATOM     26  C   UNL     1       0.503   9.738  18.505  0.00  0.00    +0.000 A 
ATOM     27  C   UNL     1       1.491   8.989  17.914  0.00  0.00    +0.000 A 
ATOM     28  H   UNL     1      -1.162  10.809  21.056  0.00  0.00    +0.000 HD
ATOM     29  H   UNL     1      -0.527  10.832  16.959  0.00  0.00    +0.000 HD
ENDBRANCH   3  18
TORSDOF 2
ENDMDL
MODEL 2
REMARK VINA RESULT:      -9.3      1.224      1.802
REMARK  Name = 
REMARK  2 active torsions:
REMARK  status: ('A' for Active; 'I' for Inactive)
REMARK    1  A    between atoms: C_4  and  C_5
REMARK    2  A    between atoms: N_7  and  C_8
REMARK                            x       y       z     vdW  Elec       q    Type
REMARK                         _______ _______ _______ _____ _____    ______ ____
ROOT
ATOM      1  C   UNL     1       2.751   5.964  17.933  0.00  0.00    +0.000 C 
ATOM      2  O   UNL     1       1.616   5.479  17.960  0.00  0.00    +0.000 OA
ATOM      3  N   UNL     1       3.073   7.216  18.420  0.00  0.00    +0.000 N 
ATOM      4  H   UNL     1       3.847   7.688  17.966  0.00  0.00    +0.000 HD
ENDROOT
BRANCH   1   8
ATOM      5  O   UNL     1       3.784   2.600  19.857  0.00  0.00    +0.000 OA
ATOM      6  C   UNL     1       4.302   3.412  19.101  0.00  0.00    +0.000 C 
ATOM      7  C   UNL     1       3.767   3.694  17.718  0.00  0.00    +0.000 C 
ATOM      8  C   UNL     1       3.910   5.163  17.340  0.00  0.00    +0.000 C 
ATOM      9  C   UNL     1       5.274   5.713  17.691  0.00  0.00    +0.000 A 
ATOM     10  C   UNL     1       5.789   6.840  17.035  0.00  0.00    +0.000 A 
ATOM     11  C   UNL     1       7.028   7.360  17.410  0.00  0.00    +0.000 A 
ATOM     12  C   UNL     1       7.747   6.751  18.432  0.00  0.00    +0.000 A 
ATOM     13  F   UNL     1       8.933   7.258  18.796  0.00  0.00    +0.000 F 
ATOM     14  C   UNL     1       7.250   5.636  19.099  0.00  0.00    +0.000 A 
ATOM     15  C   UNL     1       6.010   5.123  18.727  0.00  0.00    +0.000 A 
ATOM     16  N   UNL     1       5.459   4.059  19.441  0.00  0.00    +0.000 N 
ATOM     17  H   UNL     1       5.900   3.735  20.302  0.00  0.00    +0.000 HD
ENDBRANCH   1   8
BRANCH   3  18
ATOM     18  C   UNL     1       2.107   8.050  19.020  0.00  0.00    +0.000 A 
ATOM     19  C   UNL     1       1.479   9.031  18.215  0.00  0.00    +0.000 A 
ATOM     20  C   UNL     1       0.468   9.848  18.735  0.00  0.00    +0.000 A 
ATOM     21  C   UNL     1       0.197   9.719  20.072  0.00  0.00    +0.000 A 
ATOM     22  N   UNL     1      -0.696  10.428  20.872  0.00  0.00    +0.000 N 
ATOM     23  C   UNL     1      -0.506  10.041  22.208  0.00  0.00    +0.000 A 
ATOM     24  O   UNL     1      -1.061  10.514  23.185  0.00  0.00    +0.000 OA
ATOM     25  N   UNL     1       0.466   9.030  22.200  0.00  0.00    +0.000 N 
ATOM     26  C   UNL     1       0.881   8.819  20.887  0.00  0.00    +0.000 A 
ATOM     27  C   UNL     1       1.805   7.934  20.386  0.00  0.00    +0.000 A 
ATOM     28  H   UNL     1      -1.357  11.125  20.581  0.00  0.00    +0.000 HD
ATOM     29  H   UNL     1       0.828   8.594  23.031  0.00  0.00    +0.000 HD
ENDBRANCH   3  18
TORSDOF 2
ENDMDL
MODEL 3
REMARK VINA RESULT:      -9.2      2.145      2.645
REMARK  Name = 
REMARK  2 active torsions:
REMARK  status: ('A' for Active; 'I' for Inactive)
REMARK    1  A    between atoms: C_4  and  C_5
REMARK    2  A    between atoms: N_7  and  C_8
REMARK                            x       y       z     vdW  Elec       q    Type
REMARK                         _______ _______ _______ _____ _____    ______ ____
ROOT
ATOM      1  C   UNL     1       2.482   4.779  17.794  0.00  0.00    +0.000 C 
ATOM      2  O   UNL     1       1.254   4.658  17.840  0.00  0.00    +0.000 OA
ATOM      3  N   UNL     1       3.168   5.902  18.214  0.00  0.00    +0.000 N 
ATOM      4  H   UNL     1       4.042   6.097  17.739  0.00  0.00    +0.000 HD
ENDROOT
BRANCH   1   8
ATOM      5  O   UNL     1       4.741   2.810  20.459  0.00  0.00    +0.000 OA
ATOM      6  C   UNL     1       4.737   3.029  19.254  0.00  0.00    +0.000 C 
ATOM      7  C   UNL     1       3.596   2.617  18.356  0.00  0.00    +0.000 C 
ATOM      8  C   UNL     1       3.342   3.638  17.253  0.00  0.00    +0.000 C 
ATOM      9  C   UNL     1       4.622   4.097  16.595  0.00  0.00    +0.000 A 
ATOM     10  C   UNL     1       4.616   4.635  15.299  0.00  0.00    +0.000 A 
ATOM     11  C   UNL     1       5.803   5.099  14.731  0.00  0.00    +0.000 A 
ATOM     12  C   UNL     1       6.987   5.023  15.456  0.00  0.00    +0.000 A 
ATOM     13  F   UNL     1       8.123   5.477  14.910  0.00  0.00    +0.000 F 
ATOM     14  C   UNL     1       7.012   4.500  16.745  0.00  0.00    +0.000 A 
ATOM     15  C   UNL     1       5.826   4.043  17.311  0.00  0.00    +0.000 A 
ATOM     16  N   UNL     1       5.818   3.594  18.633  0.00  0.00    +0.000 N 
ATOM     17  H   UNL     1       6.643   3.711  19.219  0.00  0.00    +0.000 HD
ENDBRANCH   1   8
BRANCH   3  18
ATOM     18  C   UNL     1       2.501   7.018  18.761  0.00  0.00    +0.000 A 
ATOM     19  C   UNL     1       2.185   8.096  17.899  0.00  0.00    +0.000 A 
ATOM     20  C   UNL     1       1.470   9.204  18.367  0.00  0.00    +0.000 A 
ATOM     21  C   UNL     1       1.187   9.236  19.708  0.00  0.00    +0.000 A 
ATOM     22  N   UNL     1       0.555  10.221  20.462  0.00  0.00    +0.000 N 
ATOM     23  C   UNL     1       0.637   9.869  21.818  0.00  0.00    +0.000 A 
ATOM     24  O   UNL     1       0.259  10.539  22.765  0.00  0.00    +0.000 OA
ATOM     25  N   UNL     1       1.263   8.615  21.872  0.00  0.00    +0.000 N 
ATOM     26  C   UNL     1       1.581   8.219  20.575  0.00  0.00    +0.000 A 
ATOM     27  C   UNL     1       2.193   7.072  20.129  0.00  0.00    +0.000 A 
ATOM     28  H   UNL     1       0.129  11.067  20.129  0.00  0.00    +0.000 HD
ATOM     29  H   UNL     1       1.488   8.137  22.728  0.00  0.00    +0.000 HD
ENDBRANCH   3  18
TORSDOF 2
ENDMDL
MODEL 4
REMARK VINA RESULT:      -9.0      1.860      2.060
REMARK  Name = 
REMARK  2 active torsions:
REMARK  status: ('A' for Active; 'I' for Inactive)
REMARK    1  A    between atoms: C_4  and  C_5
REMARK    2  A    between atoms: N_7  and  C_8
REMARK                            x       y       z     vdW  Elec       q    Type
REMARK                         _______ _______ _______ _____ _____    ______ ____
ROOT
ATOM      1  C   UNL     1       2.520   4.774  17.707  0.00  0.00    +0.000 C 
ATOM      2  O   UNL     1       1.290   4.674  17.696  0.00  0.00    +0.000 OA
ATOM      3  N   UNL     1       3.205   5.887  18.156  0.00  0.00    +0.000 N 
ATOM      4  H   UNL     1       4.104   6.064  17.723  0.00  0.00    +0.000 HD
ENDROOT
BRANCH   1   8
ATOM      5  O   UNL     1       4.795   2.924  20.444  0.00  0.00    +0.000 OA
ATOM      6  C   UNL     1       4.787   3.095  19.231  0.00  0.00    +0.000 C 
ATOM      7  C   UNL     1       3.647   2.642  18.353  0.00  0.00    +0.000 C 
ATOM      8  C   UNL     1       3.386   3.616  17.211  0.00  0.00    +0.000 C 
ATOM      9  C   UNL     1       4.662   4.056  16.532  0.00  0.00    +0.000 A 
ATOM     10  C   UNL     1       4.651   4.541  15.216  0.00  0.00    +0.000 A 
ATOM     11  C   UNL     1       5.834   4.988  14.628  0.00  0.00    +0.000 A 
ATOM     12  C   UNL     1       7.020   4.947  15.352  0.00  0.00    +0.000 A 
ATOM     13  F   UNL     1       8.153   5.385  14.787  0.00  0.00    +0.000 F 
ATOM     14  C   UNL     1       7.050   4.475  16.661  0.00  0.00    +0.000 A 
ATOM     15  C   UNL     1       5.867   4.035  17.247  0.00  0.00    +0.000 A 
ATOM     16  N   UNL     1       5.864   3.639  18.586  0.00  0.00    +0.000 N 
ATOM     17  H   UNL     1       6.690   3.783  19.165  0.00  0.00    +0.000 HD
ENDBRANCH   1   8
BRANCH   3  18
ATOM     18  C   UNL     1       2.533   7.015  18.669  0.00  0.00    +0.000 A 
ATOM     19  C   UNL     1       2.130   6.993  20.026  0.00  0.00    +0.000 A 
ATOM     20  C   UNL     1       1.514   8.105  20.612  0.00  0.00    +0.000 A 
ATOM     21  C   UNL     1       1.233   9.161  19.785  0.00  0.00    +0.000 A 
ATOM     22  N   UNL     1       0.579  10.359  20.061  0.00  0.00    +0.000 N 
ATOM     23  C   UNL     1       0.392  11.056  18.858  0.00  0.00    +0.000 A 
ATOM     24  O   UNL     1      -0.214  12.105  18.714  0.00  0.00    +0.000 OA
ATOM     25  N   UNL     1       1.010  10.298  17.852  0.00  0.00    +0.000 N 
ATOM     26  C   UNL     1       1.543   9.146  18.426  0.00  0.00    +0.000 A 
ATOM     27  C   UNL     1       2.238   8.113  17.846  0.00  0.00    +0.000 A 
ATOM     28  H   UNL     1       0.255  10.687  20.954  0.00  0.00    +0.000 HD
ATOM     29  H   UNL     1       0.996  10.543  16.877  0.00  0.00    +0.000 HD
ENDBRANCH   3  18
TORSDOF 2
ENDMDL
MODEL 5
REMARK VINA RESULT:      -8.8      2.405      3.059
REMARK  Name = 
REMARK  2 active torsions:
REMARK  status: ('A' for Active; 'I' for Inactive)
REMARK    1  A    between atoms: C_4  and  C_5
REMARK    2  A    between atoms: N_7  and  C_8
REMARK                            x       y       z     vdW  Elec       q    Type
REMARK                         _______ _______ _______ _____ _____    ______ ____
ROOT
ATOM      1  C   UNL     1       3.368   5.012  17.843  0.00  0.00    +0.000 C 
ATOM      2  O   UNL     1       2.201   4.764  17.524  0.00  0.00    +0.000 OA
ATOM      3  N   UNL     1       3.782   6.199  18.416  0.00  0.00    +0.000 N 
ATOM      4  H   UNL     1       4.735   6.483  18.219  0.00  0.00    +0.000 HD
ENDROOT
BRANCH   1   8
ATOM      5  O   UNL     1       6.727   5.423  19.996  0.00  0.00    +0.000 OA
ATOM      6  C   UNL     1       6.379   4.906  18.941  0.00  0.00    +0.000 C 
ATOM      7  C   UNL     1       5.316   3.837  18.872  0.00  0.00    +0.000 C 
ATOM      8  C   UNL     1       4.460   3.966  17.618  0.00  0.00    +0.000 C 
ATOM      9  C   UNL     1       5.292   4.209  16.381  0.00  0.00    +0.000 A 
ATOM     10  C   UNL     1       4.801   3.893  15.106  0.00  0.00    +0.000 A 
ATOM     11  C   UNL     1       5.567   4.173  13.974  0.00  0.00    +0.000 A 
ATOM     12  C   UNL     1       6.817   4.763  14.120  0.00  0.00    +0.000 A 
ATOM     13  F   UNL     1       7.546   5.038  13.030  0.00  0.00    +0.000 F 
ATOM     14  C   UNL     1       7.319   5.091  15.375  0.00  0.00    +0.000 A 
ATOM     15  C   UNL     1       6.550   4.816  16.503  0.00  0.00    +0.000 A 
ATOM     16  N   UNL     1       7.000   5.214  17.762  0.00  0.00    +0.000 N 
ATOM     17  H   UNL     1       7.824   5.808  17.847  0.00  0.00    +0.000 HD
ENDBRANCH   1   8
BRANCH   3  18
ATOM     18  C   UNL     1       2.874   7.239  18.706  0.00  0.00    +0.000 A 
ATOM     19  C   UNL     1       2.663   8.234  17.722  0.00  0.00    +0.000 A 
ATOM     20  C   UNL     1       1.730   9.258  17.923  0.00  0.00    +0.000 A 
ATOM     21  C   UNL     1       1.118   9.302  19.149  0.00  0.00    +0.000 A 
ATOM     22  N   UNL     1       0.208  10.226  19.656  0.00  0.00    +0.000 N 
ATOM     23  C   UNL     1      -0.014   9.938  21.012  0.00  0.00    +0.000 A 
ATOM     24  O   UNL     1      -0.693  10.588  21.789  0.00  0.00    +0.000 OA
ATOM     25  N   UNL     1       0.719   8.778  21.303  0.00  0.00    +0.000 N 
ATOM     26  C   UNL     1       1.396   8.378  20.154  0.00  0.00    +0.000 A 
ATOM     27  C   UNL     1       2.229   7.304  19.951  0.00  0.00    +0.000 A 
ATOM     28  H   UNL     1      -0.216  10.997  19.172  0.00  0.00    +0.000 HD
ATOM     29  H   UNL     1       0.775   8.365  22.219  0.00  0.00    +0.000 HD
ENDBRANCH   3  18
TORSDOF 2
ENDMDL
MODEL 6
REMARK VINA RESULT:      -8.7      2.367      2.734
REMARK  Name = 
REMARK  2 active torsions:
REMARK  status: ('A' for Active; 'I' for Inactive)
REMARK    1  A    between atoms: C_4  and  C_5
REMARK    2  A    between atoms: N_7  and  C_8
REMARK                            x       y       z     vdW  Elec       q    Type
REMARK                         _______ _______ _______ _____ _____    ______ ____
ROOT
ATOM      1  C   UNL     1       3.972   6.225  18.183  0.00  0.00    +0.000 C 
ATOM      2  O   UNL     1       4.414   7.220  17.601  0.00  0.00    +0.000 OA
ATOM      3  N   UNL     1       2.894   6.243  19.046  0.00  0.00    +0.000 N 
ATOM      4  H   UNL     1       2.898   5.548  19.784  0.00  0.00    +0.000 HD
ENDROOT
BRANCH   1   8
ATOM      5  O   UNL     1       7.457   5.560  20.053  0.00  0.00    +0.000 OA
ATOM      6  C   UNL     1       6.859   5.146  19.068  0.00  0.00    +0.000 C 
ATOM      7  C   UNL     1       5.496   4.503  19.155  0.00  0.00    +0.000 C 
ATOM      8  C   UNL     1       4.621   4.859  17.959  0.00  0.00    +0.000 C 
ATOM      9  C   UNL     1       5.369   4.745  16.651  0.00  0.00    +0.000 A 
ATOM     10  C   UNL     1       4.684   4.558  15.441  0.00  0.00    +0.000 A 
ATOM     11  C   UNL     1       5.391   4.506  14.240  0.00  0.00    +0.000 A 
ATOM     12  C   UNL     1       6.775   4.639  14.252  0.00  0.00    +0.000 A 
ATOM     13  F   UNL     1       7.450   4.598  13.096  0.00  0.00    +0.000 F 
ATOM     14  C   UNL     1       7.471   4.833  15.441  0.00  0.00    +0.000 A 
ATOM     15  C   UNL     1       6.763   4.890  16.637  0.00  0.00    +0.000 A 
ATOM     16  N   UNL     1       7.436   5.168  17.827  0.00  0.00    +0.000 N 
ATOM     17  H   UNL     1       8.416   5.446  17.809  0.00  0.00    +0.000 HD
ENDBRANCH   1   8
BRANCH   3  18
ATOM     18  C   UNL     1       2.183   7.431  19.319  0.00  0.00    +0.000 A 
ATOM     19  C   UNL     1       1.737   7.651  20.645  0.00  0.00    +0.000 A 
ATOM     20  C   UNL     1       1.081   8.837  20.994  0.00  0.00    +0.000 A 
ATOM     21  C   UNL     1       0.806   9.713  19.977  0.00  0.00    +0.000 A 
ATOM     22  N   UNL     1       0.120  10.925  20.006  0.00  0.00    +0.000 N 
ATOM     23  C   UNL     1      -0.041  11.381  18.689  0.00  0.00    +0.000 A 
ATOM     24  O   UNL     1      -0.662  12.369  18.335  0.00  0.00    +0.000 OA
ATOM     25  N   UNL     1       0.624  10.464  17.861  0.00  0.00    +0.000 N 
ATOM     26  C   UNL     1       1.161   9.453  18.655  0.00  0.00    +0.000 A 
ATOM     27  C   UNL     1       1.894   8.348  18.297  0.00  0.00    +0.000 A 
ATOM     28  H   UNL     1      -0.239  11.405  20.812  0.00  0.00    +0.000 HD
ATOM     29  H   UNL     1       0.637  10.523  16.857  0.00  0.00    +0.000 HD
ENDBRANCH   3  18
TORSDOF 2
ENDMDL
MODEL 7
REMARK VINA RESULT:      -8.6      2.542      3.139
REMARK  Name = 
REMARK  2 active torsions:
REMARK  status: ('A' for Active; 'I' for Inactive)
REMARK    1  A    between atoms: C_4  and  C_5
REMARK    2  A    between atoms: N_7  and  C_8
REMARK                            x       y       z     vdW  Elec       q    Type
REMARK                         _______ _______ _______ _____ _____    ______ ____
ROOT
ATOM      1  C   UNL     1       3.953   6.246  18.115  0.00  0.00    +0.000 C 
ATOM      2  O   UNL     1       4.426   7.230  17.538  0.00  0.00    +0.000 OA
ATOM      3  N   UNL     1       2.862   6.291  18.961  0.00  0.00    +0.000 N 
ATOM      4  H   UNL     1       2.840   5.597  19.700  0.00  0.00    +0.000 HD
ENDROOT
BRANCH   1   8
ATOM      5  O   UNL     1       7.401   5.511  20.029  0.00  0.00    +0.000 OA
ATOM      6  C   UNL     1       6.805   5.107  19.038  0.00  0.00    +0.000 C 
ATOM      7  C   UNL     1       5.428   4.494  19.111  0.00  0.00    +0.000 C 
ATOM      8  C   UNL     1       4.575   4.865  17.904  0.00  0.00    +0.000 C 
ATOM      9  C   UNL     1       5.335   4.731  16.604  0.00  0.00    +0.000 A 
ATOM     10  C   UNL     1       4.660   4.554  15.387  0.00  0.00    +0.000 A 
ATOM     11  C   UNL     1       5.380   4.483  14.195  0.00  0.00    +0.000 A 
ATOM     12  C   UNL     1       6.767   4.585  14.222  0.00  0.00    +0.000 A 
ATOM     13  F   UNL     1       7.454   4.525  13.075  0.00  0.00    +0.000 F 
ATOM     14  C   UNL     1       7.453   4.768  15.419  0.00  0.00    +0.000 A 
ATOM     15  C   UNL     1       6.732   4.844  16.607  0.00  0.00    +0.000 A 
ATOM     16  N   UNL     1       7.397   5.112  17.804  0.00  0.00    +0.000 N 
ATOM     17  H   UNL     1       8.383   5.369  17.797  0.00  0.00    +0.000 HD
ENDBRANCH   1   8
BRANCH   3  18
ATOM     18  C   UNL     1       2.174   7.494  19.222  0.00  0.00    +0.000 A 
ATOM     19  C   UNL     1       1.912   8.362  18.135  0.00  0.00    +0.000 A 
ATOM     20  C   UNL     1       1.179   9.541  18.317  0.00  0.00    +0.000 A 
ATOM     21  C   UNL     1       0.827   9.856  19.603  0.00  0.00    +0.000 A 
ATOM     22  N   UNL     1       0.162  10.976  20.095  0.00  0.00    +0.000 N 
ATOM     23  C   UNL     1       0.170  10.923  21.498  0.00  0.00    +0.000 A 
ATOM     24  O   UNL     1      -0.253  11.777  22.258  0.00  0.00    +0.000 OA
ATOM     25  N   UNL     1       0.785   9.712  21.851  0.00  0.00    +0.000 N 
ATOM     26  C   UNL     1       1.168   9.050  20.687  0.00  0.00    +0.000 A 
ATOM     27  C   UNL     1       1.796   7.838  20.529  0.00  0.00    +0.000 A 
ATOM     28  H   UNL     1      -0.241  11.730  19.567  0.00  0.00    +0.000 HD
ATOM     29  H   UNL     1       0.962   9.429  22.799  0.00  0.00    +0.000 HD
ENDBRANCH   3  18
TORSDOF 2
ENDMDL
MODEL 8
REMARK VINA RESULT:      -8.2      1.786      2.263
REMARK  Name = 
REMARK  2 active torsions:
REMARK  status: ('A' for Active; 'I' for Inactive)
REMARK    1  A    between atoms: C_4  and  C_5
REMARK    2  A    between atoms: N_7  and  C_8
REMARK                            x       y       z     vdW  Elec       q    Type
REMARK                         _______ _______ _______ _____ _____    ______ ____
ROOT
ATOM      1  C   UNL     1       2.226   7.649  18.496  0.00  0.00    +0.000 C 
ATOM      2  O   UNL     1       2.215   7.751  19.726  0.00  0.00    +0.000 OA
ATOM      3  N   UNL     1       1.781   8.629  17.630  0.00  0.00    +0.000 N 
ATOM      4  H   UNL     1       1.408   8.308  16.744  0.00  0.00    +0.000 HD
ENDROOT
BRANCH   1   8
ATOM      5  O   UNL     1       1.665   4.216  20.491  0.00  0.00    +0.000 OA
ATOM      6  C   UNL     1       2.431   4.664  19.648  0.00  0.00    +0.000 C 
ATOM      7  C   UNL     1       1.959   5.174  18.308  0.00  0.00    +0.000 C 
ATOM      8  C   UNL     1       2.766   6.378  17.840  0.00  0.00    +0.000 C 
ATOM      9  C   UNL     1       4.252   6.178  18.030  0.00  0.00    +0.000 A 
ATOM     10  C   UNL     1       5.182   6.901  17.269  0.00  0.00    +0.000 A 
ATOM     11  C   UNL     1       6.548   6.736  17.497  0.00  0.00    +0.000 A 
ATOM     12  C   UNL     1       6.979   5.851  18.479  0.00  0.00    +0.000 A 
ATOM     13  F   UNL     1       8.292   5.702  18.700  0.00  0.00    +0.000 F 
ATOM     14  C   UNL     1       6.072   5.130  19.248  0.00  0.00    +0.000 A 
ATOM     15  C   UNL     1       4.709   5.301  19.023  0.00  0.00    +0.000 A 
ATOM     16  N   UNL     1       3.786   4.650  19.842  0.00  0.00    +0.000 N 
ATOM     17  H   UNL     1       4.100   4.150  20.673  0.00  0.00    +0.000 HD
ENDBRANCH   1   8
BRANCH   3  18
ATOM     18  C   UNL     1       1.285   9.863  18.098  0.00  0.00    +0.000 A 
ATOM     19  C   UNL     1       2.192  10.943  18.224  0.00  0.00    +0.000 A 
ATOM     20  C   UNL     1       1.751  12.210  18.624  0.00  0.00    +0.000 A 
ATOM     21  C   UNL     1       0.433  12.320  18.982  0.00  0.00    +0.000 A 
ATOM     22  N   UNL     1      -0.268  13.418  19.474  0.00  0.00    +0.000 N 
ATOM     23  C   UNL     1      -1.556  13.000  19.842  0.00  0.00    +0.000 A 
ATOM     24  O   UNL     1      -2.412  13.681  20.382  0.00  0.00    +0.000 OA
ATOM     25  N   UNL     1      -1.654  11.644  19.496  0.00  0.00    +0.000 N 
ATOM     26  C   UNL     1      -0.440  11.234  18.950  0.00  0.00    +0.000 A 
ATOM     27  C   UNL     1      -0.063  10.005  18.465  0.00  0.00    +0.000 A 
ATOM     28  H   UNL     1       0.069  14.357  19.588  0.00  0.00    +0.000 HD
ATOM     29  H   UNL     1      -2.461  11.074  19.684  0.00  0.00    +0.000 HD
ENDBRANCH   3  18
TORSDOF 2
ENDMDL
MODEL 9
REMARK VINA RESULT:      -8.2      2.232      2.595
REMARK  Name = 
REMARK  2 active torsions:
REMARK  status: ('A' for Active; 'I' for Inactive)
REMARK    1  A    between atoms: C_4  and  C_5
REMARK    2  A    between atoms: N_7  and  C_8
REMARK                            x       y       z     vdW  Elec       q    Type
REMARK                         _______ _______ _______ _____ _____    ______ ____
ROOT
ATOM      1  C   UNL     1       2.228   7.655  18.496  0.00  0.00    +0.000 C 
ATOM      2  O   UNL     1       2.202   7.767  19.725  0.00  0.00    +0.000 OA
ATOM      3  N   UNL     1       1.813   8.635  17.617  0.00  0.00    +0.000 N 
ATOM      4  H   UNL     1       1.446   8.314  16.728  0.00  0.00    +0.000 HD
ENDROOT
BRANCH   1   8
ATOM      5  O   UNL     1       1.650   4.258  20.548  0.00  0.00    +0.000 OA
ATOM      6  C   UNL     1       2.415   4.686  19.693  0.00  0.00    +0.000 C 
ATOM      7  C   UNL     1       1.940   5.179  18.349  0.00  0.00    +0.000 C 
ATOM      8  C   UNL     1       2.755   6.369  17.858  0.00  0.00    +0.000 C 
ATOM      9  C   UNL     1       4.240   6.160  18.043  0.00  0.00    +0.000 A 
ATOM     10  C   UNL     1       5.172   6.863  17.266  0.00  0.00    +0.000 A 
ATOM     11  C   UNL     1       6.538   6.691  17.489  0.00  0.00    +0.000 A 
ATOM     12  C   UNL     1       6.967   5.817  18.482  0.00  0.00    +0.000 A 
ATOM     13  F   UNL     1       8.279   5.661  18.699  0.00  0.00    +0.000 F 
ATOM     14  C   UNL     1       6.058   5.116  19.268  0.00  0.00    +0.000 A 
ATOM     15  C   UNL     1       4.695   5.294  19.047  0.00  0.00    +0.000 A 
ATOM     16  N   UNL     1       3.770   4.664  19.881  0.00  0.00    +0.000 N 
ATOM     17  H   UNL     1       4.085   4.175  20.718  0.00  0.00    +0.000 HD
ENDBRANCH   1   8
BRANCH   3  18
ATOM     18  C   UNL     1       1.333   9.882  18.069  0.00  0.00    +0.000 A 
ATOM     19  C   UNL     1      -0.041   9.991  18.392  0.00  0.00    +0.000 A 
ATOM     20  C   UNL     1      -0.567  11.183  18.905  0.00  0.00    +0.000 A 
ATOM     21  C   UNL     1       0.286  12.253  18.977  0.00  0.00    +0.000 A 
ATOM     22  N   UNL     1       0.039  13.563  19.378  0.00  0.00    +0.000 N 
ATOM     23  C   UNL     1       1.187  14.332  19.132  0.00  0.00    +0.000 A 
ATOM     24  O   UNL     1       1.300  15.536  19.288  0.00  0.00    +0.000 OA
ATOM     25  N   UNL     1       2.165  13.451  18.644  0.00  0.00    +0.000 N 
ATOM     26  C   UNL     1       1.616  12.173  18.570  0.00  0.00    +0.000 A 
ATOM     27  C   UNL     1       2.187  10.992  18.159  0.00  0.00    +0.000 A 
ATOM     28  H   UNL     1      -0.814  13.937  19.755  0.00  0.00    +0.000 HD
ATOM     29  H   UNL     1       3.080  13.740  18.346  0.00  0.00    +0.000 HD
ENDBRANCH   3  18
TORSDOF 2
ENDMDL
