MODEL 1
REMARK VINA RESULT:      -9.4      0.000      0.000
REMARK  Name = 
REMARK  6 active torsions:
REMARK  status: ('A' for Active; 'I' for Inactive)
REMARK    1  A    between atoms: C_1  and  C_2
REMARK    2  A    between atoms: N_9  and  C_10
REMARK    3  A    between atoms: C_10  and  C_11
REMARK    4  A    between atoms: N_13  and  C_14
REMARK    5  A    between atoms: C_18  and  C_19
REMARK    6  A    between atoms: C_19  and  C_20
REMARK                            x       y       z     vdW  Elec       q    Type
REMARK                         _______ _______ _______ _____ _____    ______ ____
ROOT
ATOM      1  C   UNL     1       1.700   9.158  18.370  0.00  0.00    +0.000 C 
ATOM      2  O   UNL     1       1.719   9.285  17.148  0.00  0.00    +0.000 OA
ATOM      3  N   UNL     1       2.070   8.013  19.063  0.00  0.00    +0.000 N 
ATOM      4  H   UNL     1       1.597   7.864  19.959  0.00  0.00    +0.000 HD
ENDROOT
BRANCH   3   5
ATOM      5  C   UNL     1       2.697   6.904  18.467  0.00  0.00    +0.000 A 
ATOM      6  C   UNL     1       2.096   5.646  18.462  0.00  0.00    +0.000 A 
ATOM      7  C   UNL     1       2.734   4.572  17.851  0.00  0.00    +0.000 A 
ATOM      8  C   UNL     1       4.001   4.738  17.290  0.00  0.00    +0.000 A 
ATOM      9  C   UNL     1       4.650   5.986  17.305  0.00  0.00    +0.000 A 
ATOM     10  C   UNL     1       3.945   7.081  17.854  0.00  0.00    +0.000 A 
BRANCH   9  11
ATOM     11  C   UNL     1       6.094   6.139  16.844  0.00  0.00    +0.000 C 
ATOM     12  C   UNL     1       6.842   7.378  17.366  0.00  0.00    +0.000 C 
ATOM     13  N   UNL     1       6.169   6.138  15.392  0.00  0.00    +0.000 N 
ATOM     14  C   UNL     1       7.141   5.294  14.919  0.00  0.00    +0.000 C 
ATOM     15  O   UNL     1       7.463   5.174  13.752  0.00  0.00    +0.000 OA
ATOM     16  N   UNL     1       7.652   4.601  15.963  0.00  0.00    +0.000 N 
ATOM     17  C   UNL     1       7.005   4.926  17.122  0.00  0.00    +0.000 C 
ATOM     18  O   UNL     1       7.198   4.378  18.198  0.00  0.00    +0.000 OA
ATOM     19  H   UNL     1       5.641   6.744  14.778  0.00  0.00    +0.000 HD
ATOM     20  H   UNL     1       8.336   3.869  15.872  0.00  0.00    +0.000 HD
ENDBRANCH   9  11
ENDBRANCH   3   5
BRANCH   1  21
ATOM     21  C   UNL     1       1.204  10.290  19.269  0.00  0.00    +0.000 C 
BRANCH  21  30
ATOM     22  C   UNL     1      -4.836  11.140  17.090  0.00  0.00    +0.000 C 
ATOM     23  C   UNL     1      -4.137  11.684  18.303  0.00  0.00    +0.000 A 
ATOM     24  C   UNL     1      -4.807  12.578  19.157  0.00  0.00    +0.000 A 
ATOM     25  C   UNL     1      -4.187  13.071  20.306  0.00  0.00    +0.000 A 
ATOM     26  C   UNL     1      -2.891  12.676  20.616  0.00  0.00    +0.000 A 
ATOM     27  C   UNL     1      -2.211  11.802  19.762  0.00  0.00    +0.000 A 
ATOM     28  C   UNL     1      -0.830  11.398  20.049  0.00  0.00    +0.000 A 
ATOM     29  O   UNL     1      -0.264  11.780  21.078  0.00  0.00    +0.000 OA
ATOM     30  N   UNL     1      -0.217  10.576  19.120  0.00  0.00    +0.000 N 
ATOM     31  C   UNL     1      -0.902  10.137  18.012  0.00  0.00    +0.000 A 
ATOM     32  N   UNL     1      -2.123  10.440  17.730  0.00  0.00    +0.000 NA
ATOM     33  C   UNL     1      -2.814  11.300  18.601  0.00  0.00    +0.000 A 
ENDBRANCH  21  30
ENDBRANCH   1  21
TORSDOF 4
ENDMDL
MODEL 2
REMARK VINA RESULT:      -9.4      1.644      2.111
REMARK  Name = 
REMARK  6 active torsions:
REMARK  status: ('A' for Active; 'I' for Inactive)
REMARK    1  A    between atoms: C_1  and  C_2
REMARK    2  A    between atoms: N_9  and  C_10
REMARK    3  A    between atoms: C_10  and  C_11
REMARK    4  A    between atoms: N_13  and  C_14
REMARK    5  A    between atoms: C_18  and  C_19
REMARK    6  A    between atoms: C_19  and  C_20
REMARK                            x       y       z     vdW  Elec       q    Type
REMARK                         _______ _______ _______ _____ _____    ______ ____
ROOT
ATOM      1  C   UNL     1       1.917   7.802  20.086  0.00  0.00    +0.000 C 
ATOM      2  O   UNL     1       1.932   8.471  19.055  0.00  0.00    +0.000 OA
ATOM      3  N   UNL     1       2.222   6.450  20.169  0.00  0.00    +0.000 N 
ATOM      4  H   UNL     1       1.751   5.934  20.916  0.00  0.00    +0.000 HD
ENDROOT
BRANCH   3   5
ATOM      5  C   UNL     1       2.773   5.705  19.111  0.00  0.00    +0.000 A 
ATOM      6  C   UNL     1       2.187   4.514  18.681  0.00  0.00    +0.000 A 
ATOM      7  C   UNL     1       2.745   3.807  17.622  0.00  0.00    +0.000 A 
ATOM      8  C   UNL     1       3.924   4.256  17.024  0.00  0.00    +0.000 A 
ATOM      9  C   UNL     1       4.559   5.436  17.455  0.00  0.00    +0.000 A 
ATOM     10  C   UNL     1       3.925   6.183  18.473  0.00  0.00    +0.000 A 
BRANCH   9  11
ATOM     11  C   UNL     1       5.926   5.845  16.922  0.00  0.00    +0.000 C 
ATOM     12  C   UNL     1       6.451   7.213  17.390  0.00  0.00    +0.000 C 
ATOM     13  N   UNL     1       5.934   5.826  15.468  0.00  0.00    +0.000 N 
ATOM     14  C   UNL     1       7.024   5.167  14.960  0.00  0.00    +0.000 C 
ATOM     15  O   UNL     1       7.309   5.083  13.780  0.00  0.00    +0.000 OA
ATOM     16  N   UNL     1       7.703   4.605  15.987  0.00  0.00    +0.000 N 
ATOM     17  C   UNL     1       7.060   4.830  17.171  0.00  0.00    +0.000 C 
ATOM     18  O   UNL     1       7.401   4.351  18.243  0.00  0.00    +0.000 OA
ATOM     19  H   UNL     1       5.274   6.309  14.872  0.00  0.00    +0.000 HD
ATOM     20  H   UNL     1       8.507   4.012  15.872  0.00  0.00    +0.000 HD
ENDBRANCH   9  11
ENDBRANCH   3   5
BRANCH   1  21
ATOM     21  C   UNL     1       1.503   8.424  21.419  0.00  0.00    +0.000 C 
BRANCH  21  30
ATOM     22  C   UNL     1      -2.897  12.713  19.369  0.00  0.00    +0.000 C 
ATOM     23  C   UNL     1      -2.361  12.426  20.742  0.00  0.00    +0.000 A 
ATOM     24  C   UNL     1      -2.791  13.196  21.837  0.00  0.00    +0.000 A 
ATOM     25  C   UNL     1      -2.330  12.927  23.126  0.00  0.00    +0.000 A 
ATOM     26  C   UNL     1      -1.434  11.885  23.337  0.00  0.00    +0.000 A 
ATOM     27  C   UNL     1      -0.988  11.127  22.250  0.00  0.00    +0.000 A 
ATOM     28  C   UNL     1      -0.015  10.044  22.442  0.00  0.00    +0.000 A 
ATOM     29  O   UNL     1       0.383   9.749  23.573  0.00  0.00    +0.000 OA
ATOM     30  N   UNL     1       0.413   9.385  21.302  0.00  0.00    +0.000 N 
ATOM     31  C   UNL     1      -0.094   9.716  20.068  0.00  0.00    +0.000 A 
ATOM     32  N   UNL     1      -0.969  10.638  19.851  0.00  0.00    +0.000 NA
ATOM     33  C   UNL     1      -1.435  11.384  20.948  0.00  0.00    +0.000 A 
ENDBRANCH  21  30
ENDBRANCH   1  21
TORSDOF 4
ENDMDL
MODEL 3
REMARK VINA RESULT:      -9.4      2.034      2.841
REMARK  Name = 
REMARK  6 active torsions:
REMARK  status: ('A' for Active; 'I' for Inactive)
REMARK    1  A    between atoms: C_1  and  C_2
REMARK    2  A    between atoms: N_9  and  C_10
REMARK    3  A    between atoms: C_10  and  C_11
REMARK    4  A    between atoms: N_13  and  C_14
REMARK    5  A    between atoms: C_18  and  C_19
REMARK    6  A    between atoms: C_19  and  C_20
REMARK                            x       y       z     vdW  Elec       q    Type
REMARK                         _______ _______ _______ _____ _____    ______ ____
ROOT
ATOM      1  C   UNL     1       1.949   7.644  20.135  0.00  0.00    +0.000 C 
ATOM      2  O   UNL     1       2.122   8.263  19.088  0.00  0.00    +0.000 OA
ATOM      3  N   UNL     1       1.992   6.263  20.266  0.00  0.00    +0.000 N 
ATOM      4  H   UNL     1       1.408   5.868  21.008  0.00  0.00    +0.000 HD
ENDROOT
BRANCH   3   5
ATOM      5  C   UNL     1       2.428   5.392  19.251  0.00  0.00    +0.000 A 
ATOM      6  C   UNL     1       1.605   4.377  18.763  0.00  0.00    +0.000 A 
ATOM      7  C   UNL     1       2.058   3.542  17.747  0.00  0.00    +0.000 A 
ATOM      8  C   UNL     1       3.356   3.681  17.254  0.00  0.00    +0.000 A 
ATOM      9  C   UNL     1       4.224   4.674  17.746  0.00  0.00    +0.000 A 
ATOM     10  C   UNL     1       3.711   5.565  18.715  0.00  0.00    +0.000 A 
BRANCH   9  11
ATOM     11  C   UNL     1       5.689   4.728  17.332  0.00  0.00    +0.000 C 
ATOM     12  C   UNL     1       6.078   3.875  16.114  0.00  0.00    +0.000 C 
ATOM     13  N   UNL     1       6.547   4.355  18.444  0.00  0.00    +0.000 N 
ATOM     14  C   UNL     1       7.584   5.235  18.624  0.00  0.00    +0.000 C 
ATOM     15  O   UNL     1       8.487   5.104  19.428  0.00  0.00    +0.000 OA
ATOM     16  N   UNL     1       7.410   6.279  17.781  0.00  0.00    +0.000 N 
ATOM     17  C   UNL     1       6.248   6.143  17.075  0.00  0.00    +0.000 C 
ATOM     18  O   UNL     1       5.797   6.989  16.317  0.00  0.00    +0.000 OA
ATOM     19  H   UNL     1       6.468   3.504  18.986  0.00  0.00    +0.000 HD
ATOM     20  H   UNL     1       8.002   7.092  17.763  0.00  0.00    +0.000 HD
ENDBRANCH   9  11
ENDBRANCH   3   5
BRANCH   1  21
ATOM     21  C   UNL     1       1.614   8.377  21.433  0.00  0.00    +0.000 C 
BRANCH  21  30
ATOM     22  C   UNL     1      -2.809  12.621  19.342  0.00  0.00    +0.000 C 
ATOM     23  C   UNL     1      -2.299  12.324  20.723  0.00  0.00    +0.000 A 
ATOM     24  C   UNL     1      -2.767  13.071  21.818  0.00  0.00    +0.000 A 
ATOM     25  C   UNL     1      -2.331  12.791  23.114  0.00  0.00    +0.000 A 
ATOM     26  C   UNL     1      -1.423  11.762  23.331  0.00  0.00    +0.000 A 
ATOM     27  C   UNL     1      -0.939  11.026  22.244  0.00  0.00    +0.000 A 
ATOM     28  C   UNL     1       0.047   9.957  22.443  0.00  0.00    +0.000 A 
ATOM     29  O   UNL     1       0.424   9.653  23.579  0.00  0.00    +0.000 OA
ATOM     30  N   UNL     1       0.512   9.321  21.305  0.00  0.00    +0.000 N 
ATOM     31  C   UNL     1       0.028   9.661  20.064  0.00  0.00    +0.000 A 
ATOM     32  N   UNL     1      -0.857  10.572  19.840  0.00  0.00    +0.000 NA
ATOM     33  C   UNL     1      -1.361  11.295  20.936  0.00  0.00    +0.000 A 
ENDBRANCH  21  30
ENDBRANCH   1  21
TORSDOF 4
ENDMDL
MODEL 4
REMARK VINA RESULT:      -9.4      1.573      2.178
REMARK  Name = 
REMARK  6 active torsions:
REMARK  status: ('A' for Active; 'I' for Inactive)
REMARK    1  A    between atoms: C_1  and  C_2
REMARK    2  A    between atoms: N_9  and  C_10
REMARK    3  A    between atoms: C_10  and  C_11
REMARK    4  A    between atoms: N_13  and  C_14
REMARK    5  A    between atoms: C_18  and  C_19
REMARK    6  A    between atoms: C_19  and  C_20
REMARK                            x       y       z     vdW  Elec       q    Type
REMARK                         _______ _______ _______ _____ _____    ______ ____
ROOT
ATOM      1  C   UNL     1       1.689   9.168  18.739  0.00  0.00    +0.000 C 
ATOM      2  O   UNL     1       1.309   8.588  19.754  0.00  0.00    +0.000 OA
ATOM      3  N   UNL     1       2.566   8.644  17.798  0.00  0.00    +0.000 N 
ATOM      4  H   UNL     1       3.140   9.328  17.297  0.00  0.00    +0.000 HD
ENDROOT
BRANCH   3   5
ATOM      5  C   UNL     1       2.992   7.304  17.784  0.00  0.00    +0.000 A 
ATOM      6  C   UNL     1       2.080   6.252  17.871  0.00  0.00    +0.000 A 
ATOM      7  C   UNL     1       2.530   4.937  17.839  0.00  0.00    +0.000 A 
ATOM      8  C   UNL     1       3.897   4.666  17.776  0.00  0.00    +0.000 A 
ATOM      9  C   UNL     1       4.847   5.704  17.720  0.00  0.00    +0.000 A 
ATOM     10  C   UNL     1       4.361   7.029  17.666  0.00  0.00    +0.000 A 
BRANCH   9  11
ATOM     11  C   UNL     1       6.341   5.423  17.817  0.00  0.00    +0.000 C 
ATOM     12  C   UNL     1       6.921   4.480  16.750  0.00  0.00    +0.000 C 
ATOM     13  N   UNL     1       6.676   4.890  19.128  0.00  0.00    +0.000 N 
ATOM     14  C   UNL     1       7.757   5.522  19.688  0.00  0.00    +0.000 C 
ATOM     15  O   UNL     1       8.288   5.209  20.737  0.00  0.00    +0.000 OA
ATOM     16  N   UNL     1       8.105   6.561  18.895  0.00  0.00    +0.000 N 
ATOM     17  C   UNL     1       7.245   6.672  17.839  0.00  0.00    +0.000 C 
ATOM     18  O   UNL     1       7.268   7.582  17.023  0.00  0.00    +0.000 OA
ATOM     19  H   UNL     1       6.238   4.089  19.564  0.00  0.00    +0.000 HD
ATOM     20  H   UNL     1       8.829   7.222  19.119  0.00  0.00    +0.000 HD
ENDBRANCH   9  11
ENDBRANCH   3   5
BRANCH   1  21
ATOM     21  C   UNL     1       1.238  10.596  18.436  0.00  0.00    +0.000 C 
BRANCH  21  30
ATOM     22  C   UNL     1      -5.176  11.112  17.702  0.00  0.00    +0.000 C 
ATOM     23  C   UNL     1      -4.246  11.709  18.719  0.00  0.00    +0.000 A 
ATOM     24  C   UNL     1      -4.748  12.582  19.700  0.00  0.00    +0.000 A 
ATOM     25  C   UNL     1      -3.907  13.124  20.673  0.00  0.00    +0.000 A 
ATOM     26  C   UNL     1      -2.556  12.799  20.679  0.00  0.00    +0.000 A 
ATOM     27  C   UNL     1      -2.046  11.946  19.695  0.00  0.00    +0.000 A 
ATOM     28  C   UNL     1      -0.616  11.615  19.658  0.00  0.00    +0.000 A 
ATOM     29  O   UNL     1       0.150  12.041  20.528  0.00  0.00    +0.000 OA
ATOM     30  N   UNL     1      -0.192  10.809  18.616  0.00  0.00    +0.000 N 
ATOM     31  C   UNL     1      -1.089  10.319  17.698  0.00  0.00    +0.000 A 
ATOM     32  N   UNL     1      -2.357  10.556  17.703  0.00  0.00    +0.000 NA
ATOM     33  C   UNL     1      -2.872  11.396  18.706  0.00  0.00    +0.000 A 
ENDBRANCH  21  30
ENDBRANCH   1  21
TORSDOF 4
ENDMDL
MODEL 5
REMARK VINA RESULT:      -9.3      1.688      2.361
REMARK  Name = 
REMARK  6 active torsions:
REMARK  status: ('A' for Active; 'I' for Inactive)
REMARK    1  A    between atoms: C_1  and  C_2
REMARK    2  A    between atoms: N_9  and  C_10
REMARK    3  A    between atoms: C_10  and  C_11
REMARK    4  A    between atoms: N_13  and  C_14
REMARK    5  A    between atoms: C_18  and  C_19
REMARK    6  A    between atoms: C_19  and  C_20
REMARK                            x       y       z     vdW  Elec       q    Type
REMARK                         _______ _______ _______ _____ _____    ______ ____
ROOT
ATOM      1  C   UNL     1       1.545   8.690  19.637  0.00  0.00    +0.000 C 
ATOM      2  O   UNL     1       1.456   7.972  20.631  0.00  0.00    +0.000 OA
ATOM      3  N   UNL     1       2.182   8.344  18.453  0.00  0.00    +0.000 N 
ATOM      4  H   UNL     1       2.582   9.121  17.921  0.00  0.00    +0.000 HD
ENDROOT
BRANCH   3   5
ATOM      5  C   UNL     1       2.650   7.049  18.164  0.00  0.00    +0.000 A 
ATOM      6  C   UNL     1       1.773   5.970  18.053  0.00  0.00    +0.000 A 
ATOM      7  C   UNL     1       2.263   4.704  17.751  0.00  0.00    +0.000 A 
ATOM      8  C   UNL     1       3.637   4.499  17.613  0.00  0.00    +0.000 A 
ATOM      9  C   UNL     1       4.551   5.560  17.750  0.00  0.00    +0.000 A 
ATOM     10  C   UNL     1       4.024   6.852  17.970  0.00  0.00    +0.000 A 
BRANCH   9  11
ATOM     11  C   UNL     1       6.055   5.318  17.764  0.00  0.00    +0.000 C 
ATOM     12  C   UNL     1       6.593   4.346  16.701  0.00  0.00    +0.000 C 
ATOM     13  N   UNL     1       6.484   4.848  19.071  0.00  0.00    +0.000 N 
ATOM     14  C   UNL     1       7.582   5.528  19.537  0.00  0.00    +0.000 C 
ATOM     15  O   UNL     1       8.185   5.271  20.562  0.00  0.00    +0.000 OA
ATOM     16  N   UNL     1       7.853   6.541  18.683  0.00  0.00    +0.000 N 
ATOM     17  C   UNL     1       6.927   6.589  17.679  0.00  0.00    +0.000 C 
ATOM     18  O   UNL     1       6.876   7.464  16.828  0.00  0.00    +0.000 OA
ATOM     19  H   UNL     1       6.095   4.056  19.566  0.00  0.00    +0.000 HD
ATOM     20  H   UNL     1       8.572   7.227  18.835  0.00  0.00    +0.000 HD
ENDBRANCH   9  11
ENDBRANCH   3   5
BRANCH   1  21
ATOM     21  C   UNL     1       0.971  10.106  19.639  0.00  0.00    +0.000 C 
BRANCH  21  30
ATOM     22  C   UNL     1      -3.819  10.243  15.281  0.00  0.00    +0.000 C 
ATOM     23  C   UNL     1      -3.708  10.856  16.648  0.00  0.00    +0.000 A 
ATOM     24  C   UNL     1      -4.753  11.655  17.145  0.00  0.00    +0.000 A 
ATOM     25  C   UNL     1      -4.684  12.209  18.424  0.00  0.00    +0.000 A 
ATOM     26  C   UNL     1      -3.571  11.970  19.222  0.00  0.00    +0.000 A 
ATOM     27  C   UNL     1      -2.520  11.192  18.728  0.00  0.00    +0.000 A 
ATOM     28  C   UNL     1      -1.318  10.954  19.537  0.00  0.00    +0.000 A 
ATOM     29  O   UNL     1      -1.240  11.393  20.689  0.00  0.00    +0.000 OA
ATOM     30  N   UNL     1      -0.305  10.220  18.946  0.00  0.00    +0.000 N 
ATOM     31  C   UNL     1      -0.456   9.712  17.677  0.00  0.00    +0.000 A 
ATOM     32  N   UNL     1      -1.501   9.868  16.937  0.00  0.00    +0.000 NA
ATOM     33  C   UNL     1      -2.567  10.632  17.445  0.00  0.00    +0.000 A 
ENDBRANCH  21  30
ENDBRANCH   1  21
TORSDOF 4
ENDMDL
MODEL 6
REMARK VINA RESULT:      -9.3      1.053      1.291
REMARK  Name = 
REMARK  6 active torsions:
REMARK  status: ('A' for Active; 'I' for Inactive)
REMARK    1  A    between atoms: C_1  and  C_2
REMARK    2  A    between atoms: N_9  and  C_10
REMARK    3  A    between atoms: C_10  and  C_11
REMARK    4  A    between atoms: N_13  and  C_14
REMARK    5  A    between atoms: C_18  and  C_19
REMARK    6  A    between atoms: C_19  and  C_20
REMARK                            x       y       z     vdW  Elec       q    Type
REMARK                         _______ _______ _______ _____ _____    ______ ____
ROOT
ATOM      1  C   UNL     1       1.463   8.900  19.646  0.00  0.00    +0.000 C 
ATOM      2  O   UNL     1       1.376   8.122  20.592  0.00  0.00    +0.000 OA
ATOM      3  N   UNL     1       2.173   8.664  18.476  0.00  0.00    +0.000 N 
ATOM      4  H   UNL     1       2.545   9.494  18.007  0.00  0.00    +0.000 HD
ENDROOT
BRANCH   3   5
ATOM      5  C   UNL     1       2.735   7.420  18.139  0.00  0.00    +0.000 A 
ATOM      6  C   UNL     1       2.045   6.228  18.360  0.00  0.00    +0.000 A 
ATOM      7  C   UNL     1       2.620   5.013  18.002  0.00  0.00    +0.000 A 
ATOM      8  C   UNL     1       3.911   4.980  17.472  0.00  0.00    +0.000 A 
ATOM      9  C   UNL     1       4.648   6.161  17.265  0.00  0.00    +0.000 A 
ATOM     10  C   UNL     1       4.009   7.387  17.555  0.00  0.00    +0.000 A 
BRANCH   9  11
ATOM     11  C   UNL     1       6.111   6.124  16.843  0.00  0.00    +0.000 C 
ATOM     12  C   UNL     1       6.970   7.323  17.277  0.00  0.00    +0.000 C 
ATOM     13  N   UNL     1       6.223   5.980  15.400  0.00  0.00    +0.000 N 
ATOM     14  C   UNL     1       7.114   5.001  15.040  0.00  0.00    +0.000 C 
ATOM     15  O   UNL     1       7.451   4.741  13.900  0.00  0.00    +0.000 OA
ATOM     16  N   UNL     1       7.523   4.360  16.159  0.00  0.00    +0.000 N 
ATOM     17  C   UNL     1       6.884   4.855  17.261  0.00  0.00    +0.000 C 
ATOM     18  O   UNL     1       6.991   4.393  18.387  0.00  0.00    +0.000 OA
ATOM     19  H   UNL     1       5.777   6.576  14.716  0.00  0.00    +0.000 HD
ATOM     20  H   UNL     1       8.130   3.558  16.158  0.00  0.00    +0.000 HD
ENDBRANCH   9  11
ENDBRANCH   3   5
BRANCH   1  21
ATOM     21  C   UNL     1       0.799  10.275  19.697  0.00  0.00    +0.000 C 
BRANCH  21  30
ATOM     22  C   UNL     1      -3.835  10.226  15.173  0.00  0.00    +0.000 C 
ATOM     23  C   UNL     1      -3.786  10.866  16.530  0.00  0.00    +0.000 A 
ATOM     24  C   UNL     1      -4.865  11.650  16.975  0.00  0.00    +0.000 A 
ATOM     25  C   UNL     1      -4.853  12.228  18.245  0.00  0.00    +0.000 A 
ATOM     26  C   UNL     1      -3.765  12.030  19.086  0.00  0.00    +0.000 A 
ATOM     27  C   UNL     1      -2.680  11.266  18.644  0.00  0.00    +0.000 A 
ATOM     28  C   UNL     1      -1.503  11.071  19.499  0.00  0.00    +0.000 A 
ATOM     29  O   UNL     1      -1.476  11.531  20.645  0.00  0.00    +0.000 OA
ATOM     30  N   UNL     1      -0.454  10.349  18.958  0.00  0.00    +0.000 N 
ATOM     31  C   UNL     1      -0.549   9.814  17.695  0.00  0.00    +0.000 A 
ATOM     32  N   UNL     1      -1.569   9.933  16.916  0.00  0.00    +0.000 NA
ATOM     33  C   UNL     1      -2.670  10.681  17.371  0.00  0.00    +0.000 A 
ENDBRANCH  21  30
ENDBRANCH   1  21
TORSDOF 4
ENDMDL
MODEL 7
REMARK VINA RESULT:      -9.3      2.629      2.779
REMARK  Name = 
REMARK  6 active torsions:
REMARK  status: ('A' for Active; 'I' for Inactive)
REMARK    1  A    between atoms: C_1  and  C_2
REMARK    2  A    between atoms: N_9  and  C_10
REMARK    3  A    between atoms: C_10  and  C_11
REMARK    4  A    between atoms: N_13  and  C_14
REMARK    5  A    between atoms: C_18  and  C_19
REMARK    6  A    between atoms: C_19  and  C_20
REMARK                            x       y       z     vdW  Elec       q    Type
REMARK                         _______ _______ _______ _____ _____    ______ ____
ROOT
ATOM      1  C   UNL     1       1.573   8.188  20.555  0.00  0.00    +0.000 C 
ATOM      2  O   UNL     1       1.192   8.641  19.478  0.00  0.00    +0.000 OA
ATOM      3  N   UNL     1       2.066   6.905  20.755  0.00  0.00    +0.000 N 
ATOM      4  H   UNL     1       1.910   6.510  21.686  0.00  0.00    +0.000 HD
ENDROOT
BRANCH   3   5
ATOM      5  C   UNL     1       2.373   6.012  19.713  0.00  0.00    +0.000 A 
ATOM      6  C   UNL     1       1.586   4.887  19.467  0.00  0.00    +0.000 A 
ATOM      7  C   UNL     1       1.905   4.030  18.419  0.00  0.00    +0.000 A 
ATOM      8  C   UNL     1       3.044   4.263  17.647  0.00  0.00    +0.000 A 
ATOM      9  C   UNL     1       3.878   5.371  17.888  0.00  0.00    +0.000 A 
ATOM     10  C   UNL     1       3.485   6.274  18.901  0.00  0.00    +0.000 A 
BRANCH   9  11
ATOM     11  C   UNL     1       5.206   5.542  17.161  0.00  0.00    +0.000 C 
ATOM     12  C   UNL     1       5.762   6.975  17.100  0.00  0.00    +0.000 C 
ATOM     13  N   UNL     1       5.115   5.029  15.804  0.00  0.00    +0.000 N 
ATOM     14  C   UNL     1       6.168   4.211  15.482  0.00  0.00    +0.000 C 
ATOM     15  O   UNL     1       6.371   3.724  14.386  0.00  0.00    +0.000 OA
ATOM     16  N   UNL     1       6.915   4.017  16.593  0.00  0.00    +0.000 N 
ATOM     17  C   UNL     1       6.354   4.646  17.669  0.00  0.00    +0.000 C 
ATOM     18  O   UNL     1       6.767   4.553  18.816  0.00  0.00    +0.000 OA
ATOM     19  H   UNL     1       4.416   5.296  15.122  0.00  0.00    +0.000 HD
ATOM     20  H   UNL     1       7.709   3.401  16.637  0.00  0.00    +0.000 HD
ENDBRANCH   9  11
ENDBRANCH   3   5
BRANCH   1  21
ATOM     21  C   UNL     1       1.493   9.024  21.831  0.00  0.00    +0.000 C 
BRANCH  21  30
ATOM     22  C   UNL     1      -0.968  14.898  20.649  0.00  0.00    +0.000 C 
ATOM     23  C   UNL     1      -1.410  13.811  21.585  0.00  0.00    +0.000 A 
ATOM     24  C   UNL     1      -2.515  14.019  22.430  0.00  0.00    +0.000 A 
ATOM     25  C   UNL     1      -2.963  13.012  23.286  0.00  0.00    +0.000 A 
ATOM     26  C   UNL     1      -2.313  11.784  23.307  0.00  0.00    +0.000 A 
ATOM     27  C   UNL     1      -1.202  11.574  22.484  0.00  0.00    +0.000 A 
ATOM     28  C   UNL     1      -0.477  10.298  22.514  0.00  0.00    +0.000 A 
ATOM     29  O   UNL     1      -0.870   9.370  23.227  0.00  0.00    +0.000 OA
ATOM     30  N   UNL     1       0.643  10.201  21.707  0.00  0.00    +0.000 N 
ATOM     31  C   UNL     1       1.015  11.245  20.894  0.00  0.00    +0.000 A 
ATOM     32  N   UNL     1       0.397  12.374  20.810  0.00  0.00    +0.000 NA
ATOM     33  C   UNL     1      -0.734  12.575  21.622  0.00  0.00    +0.000 A 
ENDBRANCH  21  30
ENDBRANCH   1  21
TORSDOF 4
ENDMDL
MODEL 8
REMARK VINA RESULT:      -9.3      3.883      4.883
REMARK  Name = 
REMARK  6 active torsions:
REMARK  status: ('A' for Active; 'I' for Inactive)
REMARK    1  A    between atoms: C_1  and  C_2
REMARK    2  A    between atoms: N_9  and  C_10
REMARK    3  A    between atoms: C_10  and  C_11
REMARK    4  A    between atoms: N_13  and  C_14
REMARK    5  A    between atoms: C_18  and  C_19
REMARK    6  A    between atoms: C_19  and  C_20
REMARK                            x       y       z     vdW  Elec       q    Type
REMARK                         _______ _______ _______ _____ _____    ______ ____
ROOT
ATOM      1  C   UNL     1       0.110   8.748  22.011  0.00  0.00    +0.000 C 
ATOM      2  O   UNL     1      -0.872   8.148  21.581  0.00  0.00    +0.000 OA
ATOM      3  N   UNL     1       1.411   8.585  21.555  0.00  0.00    +0.000 N 
ATOM      4  H   UNL     1       2.148   8.755  22.244  0.00  0.00    +0.000 HD
ENDROOT
BRANCH   3   5
ATOM      5  C   UNL     1       1.753   7.847  20.407  0.00  0.00    +0.000 A 
ATOM      6  C   UNL     1       1.955   8.472  19.177  0.00  0.00    +0.000 A 
ATOM      7  C   UNL     1       2.307   7.718  18.063  0.00  0.00    +0.000 A 
ATOM      8  C   UNL     1       2.404   6.329  18.161  0.00  0.00    +0.000 A 
ATOM      9  C   UNL     1       2.175   5.663  19.379  0.00  0.00    +0.000 A 
ATOM     10  C   UNL     1       1.905   6.458  20.515  0.00  0.00    +0.000 A 
BRANCH   9  11
ATOM     11  C   UNL     1       2.118   4.143  19.458  0.00  0.00    +0.000 C 
ATOM     12  C   UNL     1       1.604   3.420  18.202  0.00  0.00    +0.000 C 
ATOM     13  N   UNL     1       1.308   3.721  20.590  0.00  0.00    +0.000 N 
ATOM     14  C   UNL     1       1.926   2.755  21.344  0.00  0.00    +0.000 C 
ATOM     15  O   UNL     1       1.427   2.176  22.291  0.00  0.00    +0.000 OA
ATOM     16  N   UNL     1       3.183   2.583  20.874  0.00  0.00    +0.000 N 
ATOM     17  C   UNL     1       3.440   3.454  19.853  0.00  0.00    +0.000 C 
ATOM     18  O   UNL     1       4.530   3.582  19.313  0.00  0.00    +0.000 OA
ATOM     19  H   UNL     1       0.360   4.021  20.777  0.00  0.00    +0.000 HD
ATOM     20  H   UNL     1       3.863   1.976  21.297  0.00  0.00    +0.000 HD
ENDBRANCH   9  11
ENDBRANCH   3   5
BRANCH   1  21
ATOM     21  C   UNL     1      -0.019   9.739  23.167  0.00  0.00    +0.000 C 
BRANCH  21  30
ATOM     22  C   UNL     1      -4.092  14.638  21.997  0.00  0.00    +0.000 C 
ATOM     23  C   UNL     1      -2.731  14.330  21.444  0.00  0.00    +0.000 A 
ATOM     24  C   UNL     1      -2.169  15.165  20.461  0.00  0.00    +0.000 A 
ATOM     25  C   UNL     1      -0.893  14.916  19.955  0.00  0.00    +0.000 A 
ATOM     26  C   UNL     1      -0.162  13.832  20.425  0.00  0.00    +0.000 A 
ATOM     27  C   UNL     1      -0.721  12.986  21.389  0.00  0.00    +0.000 A 
ATOM     28  C   UNL     1       0.017  11.814  21.876  0.00  0.00    +0.000 A 
ATOM     29  O   UNL     1       1.165  11.587  21.483  0.00  0.00    +0.000 OA
ATOM     30  N   UNL     1      -0.637  11.003  22.787  0.00  0.00    +0.000 N 
ATOM     31  C   UNL     1      -1.898  11.322  23.232  0.00  0.00    +0.000 A 
ATOM     32  N   UNL     1      -2.575  12.354  22.857  0.00  0.00    +0.000 NA
ATOM     33  C   UNL     1      -2.002  13.216  21.906  0.00  0.00    +0.000 A 
ENDBRANCH  21  30
ENDBRANCH   1  21
TORSDOF 4
ENDMDL
MODEL 9
REMARK VINA RESULT:      -9.2      2.821      3.270
REMARK  Name = 
REMARK  6 active torsions:
REMARK  status: ('A' for Active; 'I' for Inactive)
REMARK    1  A    between atoms: C_1  and  C_2
REMARK    2  A    between atoms: N_9  and  C_10
REMARK    3  A    between atoms: C_10  and  C_11
REMARK    4  A    between atoms: N_13  and  C_14
REMARK    5  A    between atoms: C_18  and  C_19
REMARK    6  A    between atoms: C_19  and  C_20
REMARK                            x       y       z     vdW  Elec       q    Type
REMARK                         _______ _______ _______ _____ _____    ______ ____
ROOT
ATOM      1  C   UNL     1       1.709   7.951  20.399  0.00  0.00    +0.000 C 
ATOM      2  O   UNL     1       1.409   8.472  19.328  0.00  0.00    +0.000 OA
ATOM      3  N   UNL     1       2.124   6.636  20.562  0.00  0.00    +0.000 N 
ATOM      4  H   UNL     1       1.899   6.207  21.464  0.00  0.00    +0.000 HD
ENDROOT
BRANCH   3   5
ATOM      5  C   UNL     1       2.439   5.776  19.494  0.00  0.00    +0.000 A 
ATOM      6  C   UNL     1       1.498   4.882  18.981  0.00  0.00    +0.000 A 
ATOM      7  C   UNL     1       1.834   4.055  17.915  0.00  0.00    +0.000 A 
ATOM      8  C   UNL     1       3.128   4.077  17.393  0.00  0.00    +0.000 A 
ATOM      9  C   UNL     1       4.111   4.944  17.908  0.00  0.00    +0.000 A 
ATOM     10  C   UNL     1       3.721   5.835  18.932  0.00  0.00    +0.000 A 
BRANCH   9  11
ATOM     11  C   UNL     1       5.563   4.859  17.457  0.00  0.00    +0.000 C 
ATOM     12  C   UNL     1       5.847   3.928  16.266  0.00  0.00    +0.000 C 
ATOM     13  N   UNL     1       6.419   4.461  18.563  0.00  0.00    +0.000 N 
ATOM     14  C   UNL     1       7.529   5.258  18.679  0.00  0.00    +0.000 C 
ATOM     15  O   UNL     1       8.440   5.085  19.467  0.00  0.00    +0.000 OA
ATOM     16  N   UNL     1       7.418   6.278  17.797  0.00  0.00    +0.000 N 
ATOM     17  C   UNL     1       6.229   6.211  17.127  0.00  0.00    +0.000 C 
ATOM     18  O   UNL     1       5.829   7.060  16.344  0.00  0.00    +0.000 OA
ATOM     19  H   UNL     1       6.285   3.642  19.142  0.00  0.00    +0.000 HD
ATOM     20  H   UNL     1       8.073   7.038  17.731  0.00  0.00    +0.000 HD
ENDBRANCH   9  11
ENDBRANCH   3   5
BRANCH   1  21
ATOM     21  C   UNL     1       1.604   8.732  21.708  0.00  0.00    +0.000 C 
BRANCH  21  30
ATOM     22  C   UNL     1      -0.608  14.725  20.640  0.00  0.00    +0.000 C 
ATOM     23  C   UNL     1      -1.102  13.636  21.548  0.00  0.00    +0.000 A 
ATOM     24  C   UNL     1      -2.205  13.870  22.389  0.00  0.00    +0.000 A 
ATOM     25  C   UNL     1      -2.700  12.863  23.218  0.00  0.00    +0.000 A 
ATOM     26  C   UNL     1      -2.100  11.609  23.217  0.00  0.00    +0.000 A 
ATOM     27  C   UNL     1      -0.992  11.374  22.398  0.00  0.00    +0.000 A 
ATOM     28  C   UNL     1      -0.319  10.069  22.404  0.00  0.00    +0.000 A 
ATOM     29  O   UNL     1      -0.755   9.141  23.093  0.00  0.00    +0.000 OA
ATOM     30  N   UNL     1       0.803   9.944  21.604  0.00  0.00    +0.000 N 
ATOM     31  C   UNL     1       1.224  10.990  20.818  0.00  0.00    +0.000 A 
ATOM     32  N   UNL     1       0.652  12.145  20.755  0.00  0.00    +0.000 NA
ATOM     33  C   UNL     1      -0.476  12.373  21.562  0.00  0.00    +0.000 A 
ENDBRANCH  21  30
ENDBRANCH   1  21
TORSDOF 4
ENDMDL
