MODEL 1
REMARK VINA RESULT:      -8.5      0.000      0.000
REMARK  Name = 
REMARK  5 active torsions:
REMARK  status: ('A' for Active; 'I' for Inactive)
REMARK    1  A    between atoms: C_2  and  C_3
REMARK    2  A    between atoms: C_3  and  O_4
REMARK    3  A    between atoms: O_4  and  C_5
REMARK    4  A    between atoms: C_5  and  C_7
REMARK    5  A    between atoms: N_18  and  C_19
REMARK                            x       y       z     vdW  Elec       q    Type
REMARK                         _______ _______ _______ _____ _____    ______ ____
ROOT
ATOM      1  C   UNL     1       7.844   8.706  17.608  0.00  0.00    +0.000 C 
ENDROOT
BRANCH   1   3
ATOM      2  O   UNL     1       9.163   9.372  19.489  0.00  0.00    +0.000 OA
ATOM      3  C   UNL     1       8.661   9.715  18.420  0.00  0.00    +0.000 C 
ATOM      4  N   UNL     1       8.816  10.947  17.801  0.00  0.00    +0.000 N 
ATOM      5  H   UNL     1       8.223  11.135  16.998  0.00  0.00    +0.000 HD
BRANCH   4   6
ATOM      6  C   UNL     1       9.669  11.993  18.229  0.00  0.00    +0.000 A 
ATOM      7  C   UNL     1      11.043  12.007  17.966  0.00  0.00    +0.000 A 
ATOM      8  C   UNL     1      11.845  13.073  18.380  0.00  0.00    +0.000 A 
ATOM      9  C   UNL     1      11.283  14.138  19.069  0.00  0.00    +0.000 A 
ATOM     10  C   UNL     1       9.909  14.151  19.323  0.00  0.00    +0.000 A 
ATOM     11  C   UNL     1       9.105  13.081  18.910  0.00  0.00    +0.000 A 
ATOM     12  O   UNL     1       9.287  15.181  19.983  0.00  0.00    +0.000 OA
ATOM     13  C   UNL     1      10.113  16.353  20.020  0.00  0.00    +0.000 C 
ATOM     14  C   UNL     1      11.539  16.007  20.413  0.00  0.00    +0.000 C 
ATOM     15  O   UNL     1      12.137  15.141  19.444  0.00  0.00    +0.000 OA
ENDBRANCH   4   6
ENDBRANCH   1   3
BRANCH   1  16
ATOM     16  O   UNL     1       7.774   7.378  18.111  0.00  0.00    +0.000 OA
BRANCH  16  17
ATOM     17  C   UNL     1       7.242   6.488  17.245  0.00  0.00    +0.000 C 
ATOM     18  O   UNL     1       7.535   6.347  16.074  0.00  0.00    +0.000 OA
BRANCH  17  19
ATOM     19  C   UNL     1       6.195   5.629  17.952  0.00  0.00    +0.000 A 
ATOM     20  N   UNL     1       6.608   4.487  18.431  0.00  0.00    +0.000 NA
ATOM     21  N   UNL     1       5.699   3.678  19.039  0.00  0.00    +0.000 N 
ATOM     22  C   UNL     1       4.351   3.917  19.149  0.00  0.00    +0.000 A 
ATOM     23  O   UNL     1       3.585   3.118  19.675  0.00  0.00    +0.000 OA
ATOM     24  C   UNL     1       3.874   5.203  18.615  0.00  0.00    +0.000 A 
ATOM     25  C   UNL     1       2.517   5.534  18.700  0.00  0.00    +0.000 A 
ATOM     26  C   UNL     1       2.072   6.766  18.220  0.00  0.00    +0.000 A 
ATOM     27  C   UNL     1       2.985   7.665  17.671  0.00  0.00    +0.000 A 
ATOM     28  C   UNL     1       4.340   7.331  17.585  0.00  0.00    +0.000 A 
ATOM     29  C   UNL     1       4.790   6.087  18.043  0.00  0.00    +0.000 A 
ATOM     30  H   UNL     1       6.044   2.797  19.410  0.00  0.00    +0.000 HD
ENDBRANCH  17  19
ENDBRANCH  16  17
ENDBRANCH   1  16
TORSDOF 5
ENDMDL
MODEL 2
REMARK VINA RESULT:      -8.5      1.395      1.991
REMARK  Name = 
REMARK  5 active torsions:
REMARK  status: ('A' for Active; 'I' for Inactive)
REMARK    1  A    between atoms: C_2  and  C_3
REMARK    2  A    between atoms: C_3  and  O_4
REMARK    3  A    between atoms: O_4  and  C_5
REMARK    4  A    between atoms: C_5  and  C_7
REMARK    5  A    between atoms: N_18  and  C_19
REMARK                            x       y       z     vdW  Elec       q    Type
REMARK                         _______ _______ _______ _____ _____    ______ ____
ROOT
ATOM      1  C   UNL     1       7.636   6.883  17.975  0.00  0.00    +0.000 C 
ENDROOT
BRANCH   1   3
ATOM      2  O   UNL     1       7.356   9.089  17.092  0.00  0.00    +0.000 OA
ATOM      3  C   UNL     1       7.977   8.374  17.875  0.00  0.00    +0.000 C 
ATOM      4  N   UNL     1       8.950   8.792  18.771  0.00  0.00    +0.000 N 
ATOM      5  H   UNL     1       9.479   8.068  19.247  0.00  0.00    +0.000 HD
BRANCH   4   6
ATOM      6  C   UNL     1       9.324  10.134  19.028  0.00  0.00    +0.000 A 
ATOM      7  C   UNL     1       9.331  10.687  20.313  0.00  0.00    +0.000 A 
ATOM      8  C   UNL     1       9.736  12.007  20.528  0.00  0.00    +0.000 A 
ATOM      9  C   UNL     1      10.134  12.793  19.457  0.00  0.00    +0.000 A 
ATOM     10  C   UNL     1      10.151  12.253  18.169  0.00  0.00    +0.000 A 
ATOM     11  C   UNL     1       9.744  10.930  17.953  0.00  0.00    +0.000 A 
ATOM     12  O   UNL     1      10.551  12.970  17.069  0.00  0.00    +0.000 OA
ATOM     13  C   UNL     1      11.281  14.145  17.448  0.00  0.00    +0.000 C 
ATOM     14  C   UNL     1      10.579  14.887  18.573  0.00  0.00    +0.000 C 
ATOM     15  O   UNL     1      10.510  14.078  19.750  0.00  0.00    +0.000 OA
ENDBRANCH   4   6
ENDBRANCH   1   3
BRANCH   1  16
ATOM     16  O   UNL     1       7.607   6.146  16.760  0.00  0.00    +0.000 OA
BRANCH  16  17
ATOM     17  C   UNL     1       6.366   5.813  16.347  0.00  0.00    +0.000 C 
ATOM     18  O   UNL     1       5.911   5.946  15.228  0.00  0.00    +0.000 OA
BRANCH  17  19
ATOM     19  C   UNL     1       5.574   5.203  17.502  0.00  0.00    +0.000 A 
ATOM     20  N   UNL     1       5.980   4.041  17.936  0.00  0.00    +0.000 NA
ATOM     21  N   UNL     1       5.280   3.449  18.942  0.00  0.00    +0.000 N 
ATOM     22  C   UNL     1       4.131   3.932  19.519  0.00  0.00    +0.000 A 
ATOM     23  O   UNL     1       3.530   3.319  20.394  0.00  0.00    +0.000 OA
ATOM     24  C   UNL     1       3.665   5.243  19.040  0.00  0.00    +0.000 A 
ATOM     25  C   UNL     1       2.510   5.816  19.585  0.00  0.00    +0.000 A 
ATOM     26  C   UNL     1       2.087   7.072  19.149  0.00  0.00    +0.000 A 
ATOM     27  C   UNL     1       2.825   7.755  18.184  0.00  0.00    +0.000 A 
ATOM     28  C   UNL     1       3.977   7.179  17.639  0.00  0.00    +0.000 A 
ATOM     29  C   UNL     1       4.395   5.910  18.054  0.00  0.00    +0.000 A 
ATOM     30  H   UNL     1       5.619   2.549  19.268  0.00  0.00    +0.000 HD
ENDBRANCH  17  19
ENDBRANCH  16  17
ENDBRANCH   1  16
TORSDOF 5
ENDMDL
MODEL 3
REMARK VINA RESULT:      -8.4      5.903      7.835
REMARK  Name = 
REMARK  5 active torsions:
REMARK  status: ('A' for Active; 'I' for Inactive)
REMARK    1  A    between atoms: C_2  and  C_3
REMARK    2  A    between atoms: C_3  and  O_4
REMARK    3  A    between atoms: O_4  and  C_5
REMARK    4  A    between atoms: C_5  and  C_7
REMARK    5  A    between atoms: N_18  and  C_19
REMARK                            x       y       z     vdW  Elec       q    Type
REMARK                         _______ _______ _______ _____ _____    ______ ____
ROOT
ATOM      1  C   UNL     1       2.539   3.795  20.634  0.00  0.00    +0.000 C 
ENDROOT
BRANCH   1   3
ATOM      2  O   UNL     1       1.166   4.795  18.950  0.00  0.00    +0.000 OA
ATOM      3  C   UNL     1       2.016   4.981  19.817  0.00  0.00    +0.000 C 
ATOM      4  N   UNL     1       2.531   6.209  20.209  0.00  0.00    +0.000 N 
ATOM      5  H   UNL     1       3.333   6.193  20.832  0.00  0.00    +0.000 HD
BRANCH   4   6
ATOM      6  C   UNL     1       2.090   7.478  19.763  0.00  0.00    +0.000 A 
ATOM      7  C   UNL     1       2.360   7.967  18.480  0.00  0.00    +0.000 A 
ATOM      8  C   UNL     1       1.880   9.213  18.067  0.00  0.00    +0.000 A 
ATOM      9  C   UNL     1       1.127   9.989  18.937  0.00  0.00    +0.000 A 
ATOM     10  C   UNL     1       0.832   9.509  20.216  0.00  0.00    +0.000 A 
ATOM     11  C   UNL     1       1.315   8.261  20.630  0.00  0.00    +0.000 A 
ATOM     12  O   UNL     1       0.079  10.218  21.118  0.00  0.00    +0.000 OA
ATOM     13  C   UNL     1      -0.653  11.271  20.475  0.00  0.00    +0.000 C 
ATOM     14  C   UNL     1       0.232  12.046  19.513  0.00  0.00    +0.000 C 
ATOM     15  O   UNL     1       0.700  11.200  18.459  0.00  0.00    +0.000 OA
ENDBRANCH   4   6
ENDBRANCH   1   3
BRANCH   1  16
ATOM     16  O   UNL     1       3.001   2.665  19.906  0.00  0.00    +0.000 OA
BRANCH  16  17
ATOM     17  C   UNL     1       4.330   2.670  19.667  0.00  0.00    +0.000 C 
ATOM     18  O   UNL     1       5.190   2.113  20.322  0.00  0.00    +0.000 OA
BRANCH  17  19
ATOM     19  C   UNL     1       4.634   3.478  18.407  0.00  0.00    +0.000 A 
ATOM     20  N   UNL     1       3.941   3.176  17.342  0.00  0.00    +0.000 NA
ATOM     21  N   UNL     1       4.205   3.851  16.191  0.00  0.00    +0.000 N 
ATOM     22  C   UNL     1       5.188   4.794  16.014  0.00  0.00    +0.000 A 
ATOM     23  O   UNL     1       5.395   5.329  14.931  0.00  0.00    +0.000 OA
ATOM     24  C   UNL     1       5.974   5.143  17.208  0.00  0.00    +0.000 A 
ATOM     25  C   UNL     1       6.987   6.106  17.120  0.00  0.00    +0.000 A 
ATOM     26  C   UNL     1       7.711   6.456  18.260  0.00  0.00    +0.000 A 
ATOM     27  C   UNL     1       7.412   5.855  19.482  0.00  0.00    +0.000 A 
ATOM     28  C   UNL     1       6.402   4.892  19.566  0.00  0.00    +0.000 A 
ATOM     29  C   UNL     1       5.687   4.518  18.423  0.00  0.00    +0.000 A 
ATOM     30  H   UNL     1       3.648   3.605  15.377  0.00  0.00    +0.000 HD
ENDBRANCH  17  19
ENDBRANCH  16  17
ENDBRANCH   1  16
TORSDOF 5
ENDMDL
MODEL 4
REMARK VINA RESULT:      -8.3      5.574      7.710
REMARK  Name = 
REMARK  5 active torsions:
REMARK  status: ('A' for Active; 'I' for Inactive)
REMARK    1  A    between atoms: C_2  and  C_3
REMARK    2  A    between atoms: C_3  and  O_4
REMARK    3  A    between atoms: O_4  and  C_5
REMARK    4  A    between atoms: C_5  and  C_7
REMARK    5  A    between atoms: N_18  and  C_19
REMARK                            x       y       z     vdW  Elec       q    Type
REMARK                         _______ _______ _______ _____ _____    ______ ____
ROOT
ATOM      1  C   UNL     1       2.345   3.594  20.241  0.00  0.00    +0.000 C 
ENDROOT
BRANCH   1   3
ATOM      2  O   UNL     1       1.432   4.783  18.376  0.00  0.00    +0.000 OA
ATOM      3  C   UNL     1       2.032   4.866  19.446  0.00  0.00    +0.000 C 
ATOM      4  N   UNL     1       2.415   6.039  20.081  0.00  0.00    +0.000 N 
ATOM      5  H   UNL     1       3.032   5.947  20.882  0.00  0.00    +0.000 HD
BRANCH   4   6
ATOM      6  C   UNL     1       2.085   7.354  19.672  0.00  0.00    +0.000 A 
ATOM      7  C   UNL     1       2.433   7.867  18.418  0.00  0.00    +0.000 A 
ATOM      8  C   UNL     1       2.062   9.161  18.040  0.00  0.00    +0.000 A 
ATOM      9  C   UNL     1       1.343   9.960  18.917  0.00  0.00    +0.000 A 
ATOM     10  C   UNL     1       0.971   9.457  20.166  0.00  0.00    +0.000 A 
ATOM     11  C   UNL     1       1.344   8.162  20.545  0.00  0.00    +0.000 A 
ATOM     12  O   UNL     1       0.244  10.189  21.073  0.00  0.00    +0.000 OA
ATOM     13  C   UNL     1      -0.384  11.317  20.451  0.00  0.00    +0.000 C 
ATOM     14  C   UNL     1       0.587  12.057  19.546  0.00  0.00    +0.000 C 
ATOM     15  O   UNL     1       1.024  11.216  18.475  0.00  0.00    +0.000 OA
ENDBRANCH   4   6
ENDBRANCH   1   3
BRANCH   1  16
ATOM     16  O   UNL     1       3.708   3.195  20.308  0.00  0.00    +0.000 OA
BRANCH  16  17
ATOM     17  C   UNL     1       4.268   2.944  19.106  0.00  0.00    +0.000 C 
ATOM     18  O   UNL     1       3.972   2.051  18.336  0.00  0.00    +0.000 OA
BRANCH  17  19
ATOM     19  C   UNL     1       5.353   3.977  18.806  0.00  0.00    +0.000 A 
ATOM     20  N   UNL     1       5.970   4.487  19.837  0.00  0.00    +0.000 NA
ATOM     21  N   UNL     1       6.920   5.435  19.614  0.00  0.00    +0.000 N 
ATOM     22  C   UNL     1       7.262   5.965  18.393  0.00  0.00    +0.000 A 
ATOM     23  O   UNL     1       8.100   6.851  18.276  0.00  0.00    +0.000 OA
ATOM     24  C   UNL     1       6.574   5.396  17.224  0.00  0.00    +0.000 A 
ATOM     25  C   UNL     1       6.872   5.868  15.940  0.00  0.00    +0.000 A 
ATOM     26  C   UNL     1       6.240   5.307  14.830  0.00  0.00    +0.000 A 
ATOM     27  C   UNL     1       5.326   4.270  15.006  0.00  0.00    +0.000 A 
ATOM     28  C   UNL     1       5.027   3.802  16.289  0.00  0.00    +0.000 A 
ATOM     29  C   UNL     1       5.640   4.376  17.409  0.00  0.00    +0.000 A 
ATOM     30  H   UNL     1       7.393   5.812  20.430  0.00  0.00    +0.000 HD
ENDBRANCH  17  19
ENDBRANCH  16  17
ENDBRANCH   1  16
TORSDOF 5
ENDMDL
MODEL 5
REMARK VINA RESULT:      -8.2      1.420      1.915
REMARK  Name = 
REMARK  5 active torsions:
REMARK  status: ('A' for Active; 'I' for Inactive)
REMARK    1  A    between atoms: C_2  and  C_3
REMARK    2  A    between atoms: C_3  and  O_4
REMARK    3  A    between atoms: O_4  and  C_5
REMARK    4  A    between atoms: C_5  and  C_7
REMARK    5  A    between atoms: N_18  and  C_19
REMARK                            x       y       z     vdW  Elec       q    Type
REMARK                         _______ _______ _______ _____ _____    ______ ____
ROOT
ATOM      1  C   UNL     1       7.904   6.644  18.812  0.00  0.00    +0.000 C 
ENDROOT
BRANCH   1   3
ATOM      2  O   UNL     1       7.818   8.251  17.042  0.00  0.00    +0.000 OA
ATOM      3  C   UNL     1       8.214   8.004  18.180  0.00  0.00    +0.000 C 
ATOM      4  N   UNL     1       8.878   8.883  19.024  0.00  0.00    +0.000 N 
ATOM      5  H   UNL     1       9.272   8.493  19.874  0.00  0.00    +0.000 HD
BRANCH   4   6
ATOM      6  C   UNL     1       9.121  10.255  18.774  0.00  0.00    +0.000 A 
ATOM      7  C   UNL     1       8.371  11.004  17.861  0.00  0.00    +0.000 A 
ATOM      8  C   UNL     1       8.624  12.365  17.665  0.00  0.00    +0.000 A 
ATOM      9  C   UNL     1       9.637  12.992  18.377  0.00  0.00    +0.000 A 
ATOM     10  C   UNL     1      10.384  12.264  19.306  0.00  0.00    +0.000 A 
ATOM     11  C   UNL     1      10.131  10.900  19.501  0.00  0.00    +0.000 A 
ATOM     12  O   UNL     1      11.387  12.827  20.056  0.00  0.00    +0.000 OA
ATOM     13  C   UNL     1      11.303  14.259  20.049  0.00  0.00    +0.000 C 
ATOM     14  C   UNL     1      11.074  14.788  18.643  0.00  0.00    +0.000 C 
ATOM     15  O   UNL     1       9.825  14.325  18.123  0.00  0.00    +0.000 OA
ENDBRANCH   4   6
ENDBRANCH   1   3
BRANCH   1  16
ATOM     16  O   UNL     1       8.143   5.492  18.014  0.00  0.00    +0.000 OA
BRANCH  16  17
ATOM     17  C   UNL     1       7.107   5.149  17.219  0.00  0.00    +0.000 C 
ATOM     18  O   UNL     1       7.098   5.127  16.004  0.00  0.00    +0.000 OA
BRANCH  17  19
ATOM     19  C   UNL     1       5.901   4.754  18.069  0.00  0.00    +0.000 A 
ATOM     20  N   UNL     1       5.994   3.628  18.723  0.00  0.00    +0.000 NA
ATOM     21  N   UNL     1       4.928   3.224  19.465  0.00  0.00    +0.000 N 
ATOM     22  C   UNL     1       3.715   3.865  19.552  0.00  0.00    +0.000 A 
ATOM     23  O   UNL     1       2.783   3.416  20.210  0.00  0.00    +0.000 OA
ATOM     24  C   UNL     1       3.600   5.137  18.821  0.00  0.00    +0.000 A 
ATOM     25  C   UNL     1       2.403   5.862  18.867  0.00  0.00    +0.000 A 
ATOM     26  C   UNL     1       2.305   7.082  18.198  0.00  0.00    +0.000 A 
ATOM     27  C   UNL     1       3.405   7.577  17.498  0.00  0.00    +0.000 A 
ATOM     28  C   UNL     1       4.598   6.850  17.452  0.00  0.00    +0.000 A 
ATOM     29  C   UNL     1       4.696   5.614  18.101  0.00  0.00    +0.000 A 
ATOM     30  H   UNL     1       5.026   2.349  19.971  0.00  0.00    +0.000 HD
ENDBRANCH  17  19
ENDBRANCH  16  17
ENDBRANCH   1  16
TORSDOF 5
ENDMDL
MODEL 6
REMARK VINA RESULT:      -8.2      6.609      9.137
REMARK  Name = 
REMARK  5 active torsions:
REMARK  status: ('A' for Active; 'I' for Inactive)
REMARK    1  A    between atoms: C_2  and  C_3
REMARK    2  A    between atoms: C_3  and  O_4
REMARK    3  A    between atoms: O_4  and  C_5
REMARK    4  A    between atoms: C_5  and  C_7
REMARK    5  A    between atoms: N_18  and  C_19
REMARK                            x       y       z     vdW  Elec       q    Type
REMARK                         _______ _______ _______ _____ _____    ______ ____
ROOT
ATOM      1  C   UNL     1       2.574   8.407  18.008  0.00  0.00    +0.000 C 
ENDROOT
BRANCH   1   3
ATOM      2  O   UNL     1       1.177   8.771  19.916  0.00  0.00    +0.000 OA
ATOM      3  C   UNL     1       1.322   8.947  18.708  0.00  0.00    +0.000 C 
ATOM      4  N   UNL     1       0.479   9.672  17.879  0.00  0.00    +0.000 N 
ATOM      5  H   UNL     1       0.648   9.605  16.880  0.00  0.00    +0.000 HD
BRANCH   4   6
ATOM      6  C   UNL     1      -0.640  10.436  18.291  0.00  0.00    +0.000 A 
ATOM      7  C   UNL     1      -0.543  11.490  19.207  0.00  0.00    +0.000 A 
ATOM      8  C   UNL     1      -1.667  12.239  19.565  0.00  0.00    +0.000 A 
ATOM      9  C   UNL     1      -2.905  11.939  19.015  0.00  0.00    +0.000 A 
ATOM     10  C   UNL     1      -3.017  10.903  18.085  0.00  0.00    +0.000 A 
ATOM     11  C   UNL     1      -1.891  10.151  17.727  0.00  0.00    +0.000 A 
ATOM     12  O   UNL     1      -4.208  10.567  17.490  0.00  0.00    +0.000 OA
ATOM     13  C   UNL     1      -5.179  11.611  17.638  0.00  0.00    +0.000 C 
ATOM     14  C   UNL     1      -5.212  12.131  19.066  0.00  0.00    +0.000 C 
ATOM     15  O   UNL     1      -3.957  12.717  19.421  0.00  0.00    +0.000 OA
ENDBRANCH   4   6
ENDBRANCH   1   3
BRANCH   1  16
ATOM     16  O   UNL     1       3.298   7.385  18.680  0.00  0.00    +0.000 OA
BRANCH  16  17
ATOM     17  C   UNL     1       3.897   6.501  17.854  0.00  0.00    +0.000 C 
ATOM     18  O   UNL     1       4.203   6.682  16.692  0.00  0.00    +0.000 OA
BRANCH  17  19
ATOM     19  C   UNL     1       4.175   5.194  18.596  0.00  0.00    +0.000 A 
ATOM     20  N   UNL     1       5.367   4.684  18.446  0.00  0.00    +0.000 NA
ATOM     21  N   UNL     1       5.644   3.503  19.064  0.00  0.00    +0.000 N 
ATOM     22  C   UNL     1       4.759   2.747  19.795  0.00  0.00    +0.000 A 
ATOM     23  O   UNL     1       5.070   1.669  20.287  0.00  0.00    +0.000 OA
ATOM     24  C   UNL     1       3.413   3.315  19.973  0.00  0.00    +0.000 A 
ATOM     25  C   UNL     1       2.454   2.618  20.717  0.00  0.00    +0.000 A 
ATOM     26  C   UNL     1       1.188   3.171  20.908  0.00  0.00    +0.000 A 
ATOM     27  C   UNL     1       0.891   4.422  20.369  0.00  0.00    +0.000 A 
ATOM     28  C   UNL     1       1.850   5.115  19.624  0.00  0.00    +0.000 A 
ATOM     29  C   UNL     1       3.114   4.556  19.407  0.00  0.00    +0.000 A 
ATOM     30  H   UNL     1       6.579   3.128  18.940  0.00  0.00    +0.000 HD
ENDBRANCH  17  19
ENDBRANCH  16  17
ENDBRANCH   1  16
TORSDOF 5
ENDMDL
MODEL 7
REMARK VINA RESULT:      -8.2      7.393     10.807
REMARK  Name = 
REMARK  5 active torsions:
REMARK  status: ('A' for Active; 'I' for Inactive)
REMARK    1  A    between atoms: C_2  and  C_3
REMARK    2  A    between atoms: C_3  and  O_4
REMARK    3  A    between atoms: O_4  and  C_5
REMARK    4  A    between atoms: C_5  and  C_7
REMARK    5  A    between atoms: N_18  and  C_19
REMARK                            x       y       z     vdW  Elec       q    Type
REMARK                         _______ _______ _______ _____ _____    ______ ____
ROOT
ATOM      1  C   UNL     1       0.648   9.734  22.828  0.00  0.00    +0.000 C 
ENDROOT
BRANCH   1   3
ATOM      2  O   UNL     1      -0.566   8.165  21.491  0.00  0.00    +0.000 OA
ATOM      3  C   UNL     1       0.541   8.556  21.854  0.00  0.00    +0.000 C 
ATOM      4  N   UNL     1       1.765   8.078  21.408  0.00  0.00    +0.000 N 
ATOM      5  H   UNL     1       2.591   8.395  21.906  0.00  0.00    +0.000 HD
BRANCH   4   6
ATOM      6  C   UNL     1       1.963   7.133  20.372  0.00  0.00    +0.000 A 
ATOM      7  C   UNL     1       2.306   7.499  19.066  0.00  0.00    +0.000 A 
ATOM      8  C   UNL     1       2.522   6.533  18.080  0.00  0.00    +0.000 A 
ATOM      9  C   UNL     1       2.391   5.186  18.387  0.00  0.00    +0.000 A 
ATOM     10  C   UNL     1       2.067   4.801  19.690  0.00  0.00    +0.000 A 
ATOM     11  C   UNL     1       1.849   5.770  20.679  0.00  0.00    +0.000 A 
ATOM     12  O   UNL     1       1.939   3.487  20.065  0.00  0.00    +0.000 OA
ATOM     13  C   UNL     1       2.537   2.608  19.102  0.00  0.00    +0.000 C 
ATOM     14  C   UNL     1       2.138   2.993  17.687  0.00  0.00    +0.000 C 
ATOM     15  O   UNL     1       2.613   4.303  17.364  0.00  0.00    +0.000 OA
ENDBRANCH   4   6
ENDBRANCH   1   3
BRANCH   1  16
ATOM     16  O   UNL     1      -0.275  10.801  22.654  0.00  0.00    +0.000 OA
BRANCH  16  17
ATOM     17  C   UNL     1      -0.006  11.595  21.596  0.00  0.00    +0.000 C 
ATOM     18  O   UNL     1       1.073  12.067  21.296  0.00  0.00    +0.000 OA
BRANCH  17  19
ATOM     19  C   UNL     1      -1.273  11.822  20.774  0.00  0.00    +0.000 A 
ATOM     20  N   UNL     1      -2.187  12.583  21.312  0.00  0.00    +0.000 NA
ATOM     21  N   UNL     1      -3.344  12.783  20.626  0.00  0.00    +0.000 N 
ATOM     22  C   UNL     1      -3.682  12.205  19.426  0.00  0.00    +0.000 A 
ATOM     23  O   UNL     1      -4.766  12.400  18.887  0.00  0.00    +0.000 OA
ATOM     24  C   UNL     1      -2.658  11.347  18.808  0.00  0.00    +0.000 A 
ATOM     25  C   UNL     1      -2.914  10.730  17.578  0.00  0.00    +0.000 A 
ATOM     26  C   UNL     1      -1.932   9.941  16.980  0.00  0.00    +0.000 A 
ATOM     27  C   UNL     1      -0.696   9.782  17.606  0.00  0.00    +0.000 A 
ATOM     28  C   UNL     1      -0.444  10.397  18.836  0.00  0.00    +0.000 A 
ATOM     29  C   UNL     1      -1.433  11.172  19.453  0.00  0.00    +0.000 A 
ATOM     30  H   UNL     1      -4.038  13.385  21.060  0.00  0.00    +0.000 HD
ENDBRANCH  17  19
ENDBRANCH  16  17
ENDBRANCH   1  16
TORSDOF 5
ENDMDL
MODEL 8
REMARK VINA RESULT:      -8.1      5.448      7.701
REMARK  Name = 
REMARK  5 active torsions:
REMARK  status: ('A' for Active; 'I' for Inactive)
REMARK    1  A    between atoms: C_2  and  C_3
REMARK    2  A    between atoms: C_3  and  O_4
REMARK    3  A    between atoms: O_4  and  C_5
REMARK    4  A    between atoms: C_5  and  C_7
REMARK    5  A    between atoms: N_18  and  C_19
REMARK                            x       y       z     vdW  Elec       q    Type
REMARK                         _______ _______ _______ _____ _____    ______ ____
ROOT
ATOM      1  C   UNL     1       2.642   4.502  19.807  0.00  0.00    +0.000 C 
ENDROOT
BRANCH   1   3
ATOM      2  O   UNL     1       2.491   6.217  18.145  0.00  0.00    +0.000 OA
ATOM      3  C   UNL     1       2.425   5.946  19.343  0.00  0.00    +0.000 C 
ATOM      4  N   UNL     1       2.093   6.825  20.364  0.00  0.00    +0.000 N 
ATOM      5  H   UNL     1       2.225   6.495  21.315  0.00  0.00    +0.000 HD
BRANCH   4   6
ATOM      6  C   UNL     1       1.659   8.163  20.203  0.00  0.00    +0.000 A 
ATOM      7  C   UNL     1       1.640   8.811  18.963  0.00  0.00    +0.000 A 
ATOM      8  C   UNL     1       1.175  10.123  18.842  0.00  0.00    +0.000 A 
ATOM      9  C   UNL     1       0.729  10.807  19.964  0.00  0.00    +0.000 A 
ATOM     10  C   UNL     1       0.724  10.170  21.207  0.00  0.00    +0.000 A 
ATOM     11  C   UNL     1       1.191   8.855  21.329  0.00  0.00    +0.000 A 
ATOM     12  O   UNL     1       0.279  10.783  22.352  0.00  0.00    +0.000 OA
ATOM     13  C   UNL     1      -0.502  11.948  22.052  0.00  0.00    +0.000 C 
ATOM     14  C   UNL     1       0.175  12.805  20.996  0.00  0.00    +0.000 C 
ATOM     15  O   UNL     1       0.295  12.091  19.762  0.00  0.00    +0.000 OA
ENDBRANCH   4   6
ENDBRANCH   1   3
BRANCH   1  16
ATOM     16  O   UNL     1       3.359   3.644  18.930  0.00  0.00    +0.000 OA
BRANCH  16  17
ATOM     17  C   UNL     1       4.599   3.328  19.361  0.00  0.00    +0.000 C 
ATOM     18  O   UNL     1       4.905   2.393  20.074  0.00  0.00    +0.000 OA
BRANCH  17  19
ATOM     19  C   UNL     1       5.618   4.319  18.802  0.00  0.00    +0.000 A 
ATOM     20  N   UNL     1       6.295   5.012  19.677  0.00  0.00    +0.000 NA
ATOM     21  N   UNL     1       7.189   5.929  19.219  0.00  0.00    +0.000 N 
ATOM     22  C   UNL     1       7.413   6.252  17.902  0.00  0.00    +0.000 A 
ATOM     23  O   UNL     1       8.207   7.123  17.567  0.00  0.00    +0.000 OA
ATOM     24  C   UNL     1       6.657   5.475  16.907  0.00  0.00    +0.000 A 
ATOM     25  C   UNL     1       6.835   5.729  15.542  0.00  0.00    +0.000 A 
ATOM     26  C   UNL     1       6.139   4.972  14.599  0.00  0.00    +0.000 A 
ATOM     27  C   UNL     1       5.280   3.959  15.023  0.00  0.00    +0.000 A 
ATOM     28  C   UNL     1       5.101   3.710  16.387  0.00  0.00    +0.000 A 
ATOM     29  C   UNL     1       5.779   4.480  17.339  0.00  0.00    +0.000 A 
ATOM     30  H   UNL     1       7.711   6.451  19.918  0.00  0.00    +0.000 HD
ENDBRANCH  17  19
ENDBRANCH  16  17
ENDBRANCH   1  16
TORSDOF 5
ENDMDL
MODEL 9
REMARK VINA RESULT:      -8.1      6.589      7.960
REMARK  Name = 
REMARK  5 active torsions:
REMARK  status: ('A' for Active; 'I' for Inactive)
REMARK    1  A    between atoms: C_2  and  C_3
REMARK    2  A    between atoms: C_3  and  O_4
REMARK    3  A    between atoms: O_4  and  C_5
REMARK    4  A    between atoms: C_5  and  C_7
REMARK    5  A    between atoms: N_18  and  C_19
REMARK                            x       y       z     vdW  Elec       q    Type
REMARK                         _______ _______ _______ _____ _____    ______ ____
ROOT
ATOM      1  C   UNL     1       2.411   8.233  17.615  0.00  0.00    +0.000 C 
ENDROOT
BRANCH   1   3
ATOM      2  O   UNL     1       0.480   9.636  17.785  0.00  0.00    +0.000 OA
ATOM      3  C   UNL     1       1.430   9.129  18.378  0.00  0.00    +0.000 C 
ATOM      4  N   UNL     1       1.689   9.221  19.738  0.00  0.00    +0.000 N 
ATOM      5  H   UNL     1       2.588   8.876  20.059  0.00  0.00    +0.000 HD
BRANCH   4   6
ATOM      6  C   UNL     1       0.848   9.819  20.708  0.00  0.00    +0.000 A 
ATOM      7  C   UNL     1       0.240   9.093  21.737  0.00  0.00    +0.000 A 
ATOM      8  C   UNL     1      -0.559   9.726  22.692  0.00  0.00    +0.000 A 
ATOM      9  C   UNL     1      -0.765  11.097  22.626  0.00  0.00    +0.000 A 
ATOM     10  C   UNL     1      -0.151  11.841  21.617  0.00  0.00    +0.000 A 
ATOM     11  C   UNL     1       0.649  11.206  20.658  0.00  0.00    +0.000 A 
ATOM     12  O   UNL     1      -0.298  13.202  21.505  0.00  0.00    +0.000 OA
ATOM     13  C   UNL     1      -0.808  13.774  22.717  0.00  0.00    +0.000 C 
ATOM     14  C   UNL     1      -1.977  12.967  23.255  0.00  0.00    +0.000 C 
ATOM     15  O   UNL     1      -1.565  11.640  23.596  0.00  0.00    +0.000 OA
ENDBRANCH   4   6
ENDBRANCH   1   3
BRANCH   1  16
ATOM     16  O   UNL     1       3.192   7.330  18.385  0.00  0.00    +0.000 OA
BRANCH  16  17
ATOM     17  C   UNL     1       3.964   6.503  17.648  0.00  0.00    +0.000 C 
ATOM     18  O   UNL     1       4.460   6.742  16.564  0.00  0.00    +0.000 OA
BRANCH  17  19
ATOM     19  C   UNL     1       4.164   5.178  18.381  0.00  0.00    +0.000 A 
ATOM     20  N   UNL     1       5.362   4.943  18.841  0.00  0.00    +0.000 NA
ATOM     21  N   UNL     1       5.590   3.759  19.472  0.00  0.00    +0.000 N 
ATOM     22  C   UNL     1       4.683   2.738  19.624  0.00  0.00    +0.000 A 
ATOM     23  O   UNL     1       4.975   1.679  20.168  0.00  0.00    +0.000 OA
ATOM     24  C   UNL     1       3.327   2.992  19.111  0.00  0.00    +0.000 A 
ATOM     25  C   UNL     1       2.337   2.011  19.238  0.00  0.00    +0.000 A 
ATOM     26  C   UNL     1       1.046   2.265  18.778  0.00  0.00    +0.000 A 
ATOM     27  C   UNL     1       0.745   3.500  18.206  0.00  0.00    +0.000 A 
ATOM     28  C   UNL     1       1.737   4.478  18.078  0.00  0.00    +0.000 A 
ATOM     29  C   UNL     1       3.041   4.222  18.516  0.00  0.00    +0.000 A 
ATOM     30  H   UNL     1       6.528   3.602  19.828  0.00  0.00    +0.000 HD
ENDBRANCH  17  19
ENDBRANCH  16  17
ENDBRANCH   1  16
TORSDOF 5
ENDMDL
