MODEL 1
REMARK VINA RESULT:      -8.1      0.000      0.000
REMARK  Name = 
REMARK  7 active torsions:
REMARK  status: ('A' for Active; 'I' for Inactive)
REMARK    1  A    between atoms: C_1  and  N_2
REMARK    2  A    between atoms: C_6  and  C_7
REMARK    3  A    between atoms: C_7  and  C_8
REMARK    4  A    between atoms: C_8  and  C_9
REMARK    5  A    between atoms: C_13  and  N_14
REMARK    6  A    between atoms: C_17  and  C_18
REMARK    7  A    between atoms: C_18  and  C_19
REMARK                            x       y       z     vdW  Elec       q    Type
REMARK                         _______ _______ _______ _____ _____    ______ ____
ROOT
ATOM      1  C   UNL     1       1.699   8.310  19.741  0.00  0.00    +0.000 A 
ATOM      2  C   UNL     1       2.066   8.783  18.465  0.00  0.00    +0.000 A 
ATOM      3  C   UNL     1       2.498   7.923  17.463  0.00  0.00    +0.000 A 
ATOM      4  C   UNL     1       2.678   6.572  17.746  0.00  0.00    +0.000 A 
ATOM      5  C   UNL     1       2.591   6.135  19.073  0.00  0.00    +0.000 A 
ATOM      6  C   UNL     1       1.969   6.957  20.017  0.00  0.00    +0.000 A 
ENDROOT
BRANCH   5   7
ATOM      7  N   UNL     1       3.525   5.131  19.578  0.00  0.00    +0.000 N 
ATOM      8  C   UNL     1       4.904   5.678  19.542  0.00  0.00    +0.000 C 
ATOM      9  C   UNL     1       5.317   5.363  18.135  0.00  0.00    +0.000 A 
ATOM     10  C   UNL     1       5.877   6.171  17.147  0.00  0.00    +0.000 A 
ATOM     11  C   UNL     1       5.816   5.684  15.827  0.00  0.00    +0.000 A 
ATOM     12  C   UNL     1       5.206   4.454  15.526  0.00  0.00    +0.000 A 
ATOM     13  F   UNL     1       5.069   4.099  14.240  0.00  0.00    +0.000 F 
ATOM     14  C   UNL     1       4.617   3.670  16.506  0.00  0.00    +0.000 A 
ATOM     15  C   UNL     1       4.666   4.160  17.794  0.00  0.00    +0.000 A 
ATOM     16  C   UNL     1       3.599   3.935  18.808  0.00  0.00    +0.000 C 
ATOM     17  O   UNL     1       2.817   3.010  18.793  0.00  0.00    +0.000 OA
BRANCH  10  18
ATOM     18  C   UNL     1       6.301   7.601  17.402  0.00  0.00    +0.000 C 
BRANCH  18  19
ATOM     19  C   UNL     1       7.791   7.781  17.646  0.00  0.00    +0.000 C 
ATOM     20  F   UNL     1       8.207   6.852  18.549  0.00  0.00    +0.000 F 
ENDBRANCH  18  19
ENDBRANCH  10  18
ENDBRANCH   5   7
BRANCH   1  21
ATOM     21  C   UNL     1       1.019   9.275  20.815  0.00  0.00    +0.000 C 
ATOM     22  C   UNL     1      -0.355   8.841  21.399  0.00  0.00    +0.000 C 
ATOM     23  O   UNL     1       0.147   8.826  22.748  0.00  0.00    +0.000 OA
ATOM     24  C   UNL     1       1.483   9.134  22.293  0.00  0.00    +0.000 C 
BRANCH  21  25
ATOM     25  C   UNL     1       0.950  10.702  20.230  0.00  0.00    +0.000 C 
BRANCH  25  31
ATOM     26  C   UNL     1      -0.830  12.483  22.179  0.00  0.00    +0.000 C 
ATOM     27  N   UNL     1      -1.164  12.012  20.863  0.00  0.00    +0.000 N 
ATOM     28  C   UNL     1      -2.319  12.312  20.203  0.00  0.00    +0.000 A 
ATOM     29  N   UNL     1      -2.342  11.687  19.053  0.00  0.00    +0.000 NA
ATOM     30  N   UNL     1      -1.163  10.994  18.930  0.00  0.00    +0.000 NA
ATOM     31  C   UNL     1      -0.438  11.212  20.012  0.00  0.00    +0.000 A 
ENDBRANCH  25  31
ENDBRANCH  21  25
ENDBRANCH   1  21
TORSDOF 6
ENDMDL
MODEL 2
REMARK VINA RESULT:      -8.1      1.272      1.727
REMARK  Name = 
REMARK  7 active torsions:
REMARK  status: ('A' for Active; 'I' for Inactive)
REMARK    1  A    between atoms: C_1  and  N_2
REMARK    2  A    between atoms: C_6  and  C_7
REMARK    3  A    between atoms: C_7  and  C_8
REMARK    4  A    between atoms: C_8  and  C_9
REMARK    5  A    between atoms: C_13  and  N_14
REMARK    6  A    between atoms: C_17  and  C_18
REMARK    7  A    between atoms: C_18  and  C_19
REMARK                            x       y       z     vdW  Elec       q    Type
REMARK                         _______ _______ _______ _____ _____    ______ ____
ROOT
ATOM      1  C   UNL     1       1.614   8.292  19.685  0.00  0.00    +0.000 A 
ATOM      2  C   UNL     1       2.040   8.789  18.437  0.00  0.00    +0.000 A 
ATOM      3  C   UNL     1       2.528   7.950  17.443  0.00  0.00    +0.000 A 
ATOM      4  C   UNL     1       2.703   6.596  17.711  0.00  0.00    +0.000 A 
ATOM      5  C   UNL     1       2.553   6.135  19.024  0.00  0.00    +0.000 A 
ATOM      6  C   UNL     1       1.879   6.935  19.950  0.00  0.00    +0.000 A 
ENDROOT
BRANCH   5   7
ATOM      7  N   UNL     1       3.468   5.128  19.558  0.00  0.00    +0.000 N 
ATOM      8  C   UNL     1       4.849   5.670  19.562  0.00  0.00    +0.000 C 
ATOM      9  C   UNL     1       5.303   5.352  18.169  0.00  0.00    +0.000 A 
ATOM     10  C   UNL     1       5.895   6.157  17.197  0.00  0.00    +0.000 A 
ATOM     11  C   UNL     1       5.872   5.669  15.876  0.00  0.00    +0.000 A 
ATOM     12  C   UNL     1       5.267   4.441  15.557  0.00  0.00    +0.000 A 
ATOM     13  F   UNL     1       5.167   4.087  14.268  0.00  0.00    +0.000 F 
ATOM     14  C   UNL     1       4.646   3.660  16.520  0.00  0.00    +0.000 A 
ATOM     15  C   UNL     1       4.658   4.151  17.808  0.00  0.00    +0.000 A 
ATOM     16  C   UNL     1       3.560   3.930  18.791  0.00  0.00    +0.000 C 
ATOM     17  O   UNL     1       2.776   3.008  18.752  0.00  0.00    +0.000 OA
BRANCH  10  18
ATOM     18  C   UNL     1       6.317   7.586  17.464  0.00  0.00    +0.000 C 
BRANCH  18  19
ATOM     19  C   UNL     1       7.822   7.795  17.529  0.00  0.00    +0.000 C 
ATOM     20  F   UNL     1       8.300   7.221  18.666  0.00  0.00    +0.000 F 
ENDBRANCH  18  19
ENDBRANCH  10  18
ENDBRANCH   5   7
BRANCH   1  21
ATOM     21  C   UNL     1       0.875   9.234  20.741  0.00  0.00    +0.000 C 
ATOM     22  C   UNL     1      -0.199   8.579  21.654  0.00  0.00    +0.000 C 
ATOM     23  O   UNL     1       0.504   8.945  22.856  0.00  0.00    +0.000 OA
ATOM     24  C   UNL     1       1.600   9.494  22.092  0.00  0.00    +0.000 C 
BRANCH  21  25
ATOM     25  C   UNL     1       0.302  10.461  19.999  0.00  0.00    +0.000 C 
BRANCH  25  31
ATOM     26  C   UNL     1       2.328  12.351  18.430  0.00  0.00    +0.000 C 
ATOM     27  N   UNL     1       1.725  12.578  19.714  0.00  0.00    +0.000 N 
ATOM     28  C   UNL     1       1.895  13.706  20.461  0.00  0.00    +0.000 A 
ATOM     29  N   UNL     1       1.258  13.579  21.598  0.00  0.00    +0.000 NA
ATOM     30  N   UNL     1       0.619  12.363  21.586  0.00  0.00    +0.000 NA
ATOM     31  C   UNL     1       0.879  11.768  20.436  0.00  0.00    +0.000 A 
ENDBRANCH  25  31
ENDBRANCH  21  25
ENDBRANCH   1  21
TORSDOF 6
ENDMDL
MODEL 3
REMARK VINA RESULT:      -8.0      0.510      1.079
REMARK  Name = 
REMARK  7 active torsions:
REMARK  status: ('A' for Active; 'I' for Inactive)
REMARK    1  A    between atoms: C_1  and  N_2
REMARK    2  A    between atoms: C_6  and  C_7
REMARK    3  A    between atoms: C_7  and  C_8
REMARK    4  A    between atoms: C_8  and  C_9
REMARK    5  A    between atoms: C_13  and  N_14
REMARK    6  A    between atoms: C_17  and  C_18
REMARK    7  A    between atoms: C_18  and  C_19
REMARK                            x       y       z     vdW  Elec       q    Type
REMARK                         _______ _______ _______ _____ _____    ______ ____
ROOT
ATOM      1  C   UNL     1       1.688   8.321  19.718  0.00  0.00    +0.000 A 
ATOM      2  C   UNL     1       2.044   8.772  18.430  0.00  0.00    +0.000 A 
ATOM      3  C   UNL     1       2.465   7.894  17.439  0.00  0.00    +0.000 A 
ATOM      4  C   UNL     1       2.643   6.548  17.742  0.00  0.00    +0.000 A 
ATOM      5  C   UNL     1       2.567   6.133  19.077  0.00  0.00    +0.000 A 
ATOM      6  C   UNL     1       1.956   6.972  20.013  0.00  0.00    +0.000 A 
ENDROOT
BRANCH   5   7
ATOM      7  N   UNL     1       3.502   5.134  19.590  0.00  0.00    +0.000 N 
ATOM      8  C   UNL     1       4.879   5.684  19.554  0.00  0.00    +0.000 C 
ATOM      9  C   UNL     1       5.296   5.362  18.150  0.00  0.00    +0.000 A 
ATOM     10  C   UNL     1       5.856   6.165  17.158  0.00  0.00    +0.000 A 
ATOM     11  C   UNL     1       5.800   5.670  15.840  0.00  0.00    +0.000 A 
ATOM     12  C   UNL     1       5.194   4.437  15.545  0.00  0.00    +0.000 A 
ATOM     13  F   UNL     1       5.060   4.075  14.261  0.00  0.00    +0.000 F 
ATOM     14  C   UNL     1       4.604   3.657  16.528  0.00  0.00    +0.000 A 
ATOM     15  C   UNL     1       4.649   4.155  17.814  0.00  0.00    +0.000 A 
ATOM     16  C   UNL     1       3.580   3.933  18.827  0.00  0.00    +0.000 C 
ATOM     17  O   UNL     1       2.801   3.006  18.815  0.00  0.00    +0.000 OA
BRANCH  10  18
ATOM     18  C   UNL     1       6.276   7.599  17.405  0.00  0.00    +0.000 C 
BRANCH  18  19
ATOM     19  C   UNL     1       7.765   7.782  17.656  0.00  0.00    +0.000 C 
ATOM     20  F   UNL     1       8.188   6.831  18.531  0.00  0.00    +0.000 F 
ENDBRANCH  18  19
ENDBRANCH  10  18
ENDBRANCH   5   7
BRANCH   1  21
ATOM     21  C   UNL     1       1.020   9.306  20.782  0.00  0.00    +0.000 C 
ATOM     22  C   UNL     1      -0.379   8.918  21.336  0.00  0.00    +0.000 C 
ATOM     23  O   UNL     1       0.095   8.882  22.694  0.00  0.00    +0.000 OA
ATOM     24  C   UNL     1       1.450   9.144  22.268  0.00  0.00    +0.000 C 
BRANCH  21  25
ATOM     25  C   UNL     1       1.014  10.737  20.201  0.00  0.00    +0.000 C 
BRANCH  25  31
ATOM     26  C   UNL     1      -1.196  10.410  17.932  0.00  0.00    +0.000 C 
ATOM     27  N   UNL     1      -1.286  11.171  19.148  0.00  0.00    +0.000 N 
ATOM     28  C   UNL     1      -2.394  11.853  19.554  0.00  0.00    +0.000 A 
ATOM     29  N   UNL     1      -2.136  12.484  20.672  0.00  0.00    +0.000 NA
ATOM     30  N   UNL     1      -0.846  12.181  21.035  0.00  0.00    +0.000 NA
ATOM     31  C   UNL     1      -0.340  11.365  20.128  0.00  0.00    +0.000 A 
ENDBRANCH  25  31
ENDBRANCH  21  25
ENDBRANCH   1  21
TORSDOF 6
ENDMDL
MODEL 4
REMARK VINA RESULT:      -8.0      3.153      7.948
REMARK  Name = 
REMARK  7 active torsions:
REMARK  status: ('A' for Active; 'I' for Inactive)
REMARK    1  A    between atoms: C_1  and  N_2
REMARK    2  A    between atoms: C_6  and  C_7
REMARK    3  A    between atoms: C_7  and  C_8
REMARK    4  A    between atoms: C_8  and  C_9
REMARK    5  A    between atoms: C_13  and  N_14
REMARK    6  A    between atoms: C_17  and  C_18
REMARK    7  A    between atoms: C_18  and  C_19
REMARK                            x       y       z     vdW  Elec       q    Type
REMARK                         _______ _______ _______ _____ _____    ______ ____
ROOT
ATOM      1  C   UNL     1       2.300   5.872  18.849  0.00  0.00    +0.000 A 
ATOM      2  C   UNL     1       2.263   6.732  17.732  0.00  0.00    +0.000 A 
ATOM      3  C   UNL     1       2.194   8.112  17.874  0.00  0.00    +0.000 A 
ATOM      4  C   UNL     1       2.051   8.667  19.143  0.00  0.00    +0.000 A 
ATOM      5  C   UNL     1       1.803   7.825  20.233  0.00  0.00    +0.000 A 
ATOM      6  C   UNL     1       2.073   6.459  20.108  0.00  0.00    +0.000 A 
ENDROOT
BRANCH   5   7
ATOM      7  N   UNL     1       0.850   8.222  21.266  0.00  0.00    +0.000 N 
ATOM      8  C   UNL     1      -0.463   8.513  20.639  0.00  0.00    +0.000 C 
ATOM      9  C   UNL     1      -0.293   9.948  20.237  0.00  0.00    +0.000 A 
ATOM     10  C   UNL     1      -0.522  10.585  19.018  0.00  0.00    +0.000 A 
ATOM     11  C   UNL     1       0.070  11.853  18.850  0.00  0.00    +0.000 A 
ATOM     12  C   UNL     1       0.863  12.431  19.856  0.00  0.00    +0.000 A 
ATOM     13  F   UNL     1       1.500  13.581  19.593  0.00  0.00    +0.000 F 
ATOM     14  C   UNL     1       1.120  11.779  21.052  0.00  0.00    +0.000 A 
ATOM     15  C   UNL     1       0.550  10.532  21.203  0.00  0.00    +0.000 A 
ATOM     16  C   UNL     1       1.182   9.418  21.965  0.00  0.00    +0.000 C 
ATOM     17  O   UNL     1       1.998   9.563  22.848  0.00  0.00    +0.000 OA
BRANCH  10  18
ATOM     18  C   UNL     1      -1.145   9.883  17.831  0.00  0.00    +0.000 C 
BRANCH  18  19
ATOM     19  C   UNL     1      -2.661   9.987  17.764  0.00  0.00    +0.000 C 
ATOM     20  F   UNL     1      -3.099   9.364  16.637  0.00  0.00    +0.000 F 
ENDBRANCH  18  19
ENDBRANCH  10  18
ENDBRANCH   5   7
BRANCH   1  21
ATOM     21  C   UNL     1       2.578   4.309  18.679  0.00  0.00    +0.000 C 
ATOM     22  C   UNL     1       2.716   3.463  19.976  0.00  0.00    +0.000 C 
ATOM     23  O   UNL     1       1.617   2.607  19.613  0.00  0.00    +0.000 OA
ATOM     24  C   UNL     1       1.347   3.391  18.431  0.00  0.00    +0.000 C 
BRANCH  21  25
ATOM     25  C   UNL     1       3.799   4.118  17.755  0.00  0.00    +0.000 C 
BRANCH  25  31
ATOM     26  C   UNL     1       5.600   6.450  16.547  0.00  0.00    +0.000 C 
ATOM     27  N   UNL     1       5.808   5.716  17.765  0.00  0.00    +0.000 N 
ATOM     28  C   UNL     1       6.819   5.952  18.649  0.00  0.00    +0.000 A 
ATOM     29  N   UNL     1       6.762   5.080  19.624  0.00  0.00    +0.000 NA
ATOM     30  N   UNL     1       5.667   4.279  19.405  0.00  0.00    +0.000 NA
ATOM     31  C   UNL     1       5.074   4.680  18.296  0.00  0.00    +0.000 A 
ENDBRANCH  25  31
ENDBRANCH  21  25
ENDBRANCH   1  21
TORSDOF 6
ENDMDL
MODEL 5
REMARK VINA RESULT:      -8.0      5.346      8.415
REMARK  Name = 
REMARK  7 active torsions:
REMARK  status: ('A' for Active; 'I' for Inactive)
REMARK    1  A    between atoms: C_1  and  N_2
REMARK    2  A    between atoms: C_6  and  C_7
REMARK    3  A    between atoms: C_7  and  C_8
REMARK    4  A    between atoms: C_8  and  C_9
REMARK    5  A    between atoms: C_13  and  N_14
REMARK    6  A    between atoms: C_17  and  C_18
REMARK    7  A    between atoms: C_18  and  C_19
REMARK                            x       y       z     vdW  Elec       q    Type
REMARK                         _______ _______ _______ _____ _____    ______ ____
ROOT
ATOM      1  C   UNL     1      -3.999  11.469  17.965  0.00  0.00    +0.000 A 
ATOM      2  C   UNL     1      -3.928  10.705  16.782  0.00  0.00    +0.000 A 
ATOM      3  C   UNL     1      -2.806   9.951  16.464  0.00  0.00    +0.000 A 
ATOM      4  C   UNL     1      -1.676  10.024  17.273  0.00  0.00    +0.000 A 
ATOM      5  C   UNL     1      -1.625  10.987  18.289  0.00  0.00    +0.000 A 
ATOM      6  C   UNL     1      -2.814  11.584  18.716  0.00  0.00    +0.000 A 
ENDROOT
BRANCH   5   7
ATOM      7  N   UNL     1      -0.384  11.713  18.550  0.00  0.00    +0.000 N 
ATOM      8  C   UNL     1       0.547  10.842  19.308  0.00  0.00    +0.000 C 
ATOM      9  C   UNL     1       0.103  11.081  20.720  0.00  0.00    +0.000 A 
ATOM     10  C   UNL     1      -0.221  10.185  21.737  0.00  0.00    +0.000 A 
ATOM     11  C   UNL     1      -0.945  10.706  22.828  0.00  0.00    +0.000 A 
ATOM     12  C   UNL     1      -1.332  12.056  22.873  0.00  0.00    +0.000 A 
ATOM     13  F   UNL     1      -2.124  12.466  23.875  0.00  0.00    +0.000 F 
ATOM     14  C   UNL     1      -1.041  12.937  21.843  0.00  0.00    +0.000 A 
ATOM     15  C   UNL     1      -0.346  12.416  20.772  0.00  0.00    +0.000 A 
ATOM     16  C   UNL     1      -0.526  12.873  19.365  0.00  0.00    +0.000 C 
ATOM     17  O   UNL     1      -0.942  13.964  19.043  0.00  0.00    +0.000 OA
BRANCH  10  18
ATOM     18  C   UNL     1      -0.049   8.688  21.596  0.00  0.00    +0.000 C 
BRANCH  18  19
ATOM     19  C   UNL     1       1.395   8.215  21.637  0.00  0.00    +0.000 C 
ATOM     20  F   UNL     1       1.869   8.127  20.365  0.00  0.00    +0.000 F 
ENDBRANCH  18  19
ENDBRANCH  10  18
ENDBRANCH   5   7
BRANCH   1  21
ATOM     21  C   UNL     1      -5.360  12.170  18.416  0.00  0.00    +0.000 C 
ATOM     22  C   UNL     1      -6.121  13.007  17.349  0.00  0.00    +0.000 C 
ATOM     23  O   UNL     1      -7.305  12.196  17.460  0.00  0.00    +0.000 OA
ATOM     24  C   UNL     1      -6.651  11.302  18.387  0.00  0.00    +0.000 C 
BRANCH  21  25
ATOM     25  C   UNL     1      -5.096  12.999  19.691  0.00  0.00    +0.000 C 
BRANCH  25  31
ATOM     26  C   UNL     1      -7.805  14.588  20.208  0.00  0.00    +0.000 C 
ATOM     27  N   UNL     1      -7.281  13.475  20.950  0.00  0.00    +0.000 N 
ATOM     28  C   UNL     1      -7.915  12.874  21.997  0.00  0.00    +0.000 A 
ATOM     29  N   UNL     1      -7.153  11.930  22.488  0.00  0.00    +0.000 NA
ATOM     30  N   UNL     1      -6.011  11.876  21.726  0.00  0.00    +0.000 NA
ATOM     31  C   UNL     1      -6.099  12.791  20.779  0.00  0.00    +0.000 A 
ENDBRANCH  25  31
ENDBRANCH  21  25
ENDBRANCH   1  21
TORSDOF 6
ENDMDL
MODEL 6
REMARK VINA RESULT:      -8.0      3.590      8.315
REMARK  Name = 
REMARK  7 active torsions:
REMARK  status: ('A' for Active; 'I' for Inactive)
REMARK    1  A    between atoms: C_1  and  N_2
REMARK    2  A    between atoms: C_6  and  C_7
REMARK    3  A    between atoms: C_7  and  C_8
REMARK    4  A    between atoms: C_8  and  C_9
REMARK    5  A    between atoms: C_13  and  N_14
REMARK    6  A    between atoms: C_17  and  C_18
REMARK    7  A    between atoms: C_18  and  C_19
REMARK                            x       y       z     vdW  Elec       q    Type
REMARK                         _______ _______ _______ _____ _____    ______ ____
ROOT
ATOM      1  C   UNL     1       2.455   7.300  18.789  0.00  0.00    +0.000 A 
ATOM      2  C   UNL     1       2.428   8.184  17.691  0.00  0.00    +0.000 A 
ATOM      3  C   UNL     1       2.027   9.507  17.826  0.00  0.00    +0.000 A 
ATOM      4  C   UNL     1       1.537   9.955  19.050  0.00  0.00    +0.000 A 
ATOM      5  C   UNL     1       1.293   9.027  20.069  0.00  0.00    +0.000 A 
ATOM      6  C   UNL     1       1.880   7.762  19.987  0.00  0.00    +0.000 A 
ENDROOT
BRANCH   5   7
ATOM      7  N   UNL     1       0.104   9.155  20.909  0.00  0.00    +0.000 N 
ATOM      8  C   UNL     1      -1.111   9.006  20.071  0.00  0.00    +0.000 C 
ATOM      9  C   UNL     1      -1.306  10.406  19.570  0.00  0.00    +0.000 A 
ATOM     10  C   UNL     1      -1.504  10.893  18.279  0.00  0.00    +0.000 A 
ATOM     11  C   UNL     1      -1.293  12.272  18.088  0.00  0.00    +0.000 A 
ATOM     12  C   UNL     1      -0.888  13.106  19.144  0.00  0.00    +0.000 A 
ATOM     13  F   UNL     1      -0.584  14.384  18.877  0.00  0.00    +0.000 F 
ATOM     14  C   UNL     1      -0.656  12.612  20.419  0.00  0.00    +0.000 A 
ATOM     15  C   UNL     1      -0.849  11.258  20.595  0.00  0.00    +0.000 A 
ATOM     16  C   UNL     1      -0.055  10.423  21.539  0.00  0.00    +0.000 C 
ATOM     17  O   UNL     1       0.521  10.847  22.517  0.00  0.00    +0.000 OA
BRANCH  10  18
ATOM     18  C   UNL     1      -1.683   9.986  17.080  0.00  0.00    +0.000 C 
BRANCH  18  19
ATOM     19  C   UNL     1      -3.128   9.793  16.649  0.00  0.00    +0.000 C 
ATOM     20  F   UNL     1      -3.949  10.213  17.649  0.00  0.00    +0.000 F 
ENDBRANCH  18  19
ENDBRANCH  10  18
ENDBRANCH   5   7
BRANCH   1  21
ATOM     21  C   UNL     1       3.103   5.846  18.663  0.00  0.00    +0.000 C 
ATOM     22  C   UNL     1       3.927   5.539  17.381  0.00  0.00    +0.000 C 
ATOM     23  O   UNL     1       5.119   5.253  18.136  0.00  0.00    +0.000 OA
ATOM     24  C   UNL     1       4.466   5.611  19.374  0.00  0.00    +0.000 C 
BRANCH  21  25
ATOM     25  C   UNL     1       2.000   4.789  18.884  0.00  0.00    +0.000 C 
BRANCH  25  31
ATOM     26  C   UNL     1       3.466   1.963  18.949  0.00  0.00    +0.000 C 
ATOM     27  N   UNL     1       2.905   2.692  20.054  0.00  0.00    +0.000 N 
ATOM     28  C   UNL     1       2.965   2.292  21.356  0.00  0.00    +0.000 A 
ATOM     29  N   UNL     1       2.316   3.144  22.107  0.00  0.00    +0.000 NA
ATOM     30  N   UNL     1       1.854   4.151  21.294  0.00  0.00    +0.000 NA
ATOM     31  C   UNL     1       2.233   3.892  20.056  0.00  0.00    +0.000 A 
ENDBRANCH  25  31
ENDBRANCH  21  25
ENDBRANCH   1  21
TORSDOF 6
ENDMDL
MODEL 7
REMARK VINA RESULT:      -7.9      3.434      8.286
REMARK  Name = 
REMARK  7 active torsions:
REMARK  status: ('A' for Active; 'I' for Inactive)
REMARK    1  A    between atoms: C_1  and  N_2
REMARK    2  A    between atoms: C_6  and  C_7
REMARK    3  A    between atoms: C_7  and  C_8
REMARK    4  A    between atoms: C_8  and  C_9
REMARK    5  A    between atoms: C_13  and  N_14
REMARK    6  A    between atoms: C_17  and  C_18
REMARK    7  A    between atoms: C_18  and  C_19
REMARK                            x       y       z     vdW  Elec       q    Type
REMARK                         _______ _______ _______ _____ _____    ______ ____
ROOT
ATOM      1  C   UNL     1       2.472   7.327  18.642  0.00  0.00    +0.000 A 
ATOM      2  C   UNL     1       2.299   8.298  17.633  0.00  0.00    +0.000 A 
ATOM      3  C   UNL     1       1.848   9.579  17.921  0.00  0.00    +0.000 A 
ATOM      4  C   UNL     1       1.454   9.895  19.218  0.00  0.00    +0.000 A 
ATOM      5  C   UNL     1       1.351   8.872  20.168  0.00  0.00    +0.000 A 
ATOM      6  C   UNL     1       1.989   7.653  19.923  0.00  0.00    +0.000 A 
ENDROOT
BRANCH   5   7
ATOM      7  N   UNL     1       0.241   8.861  21.119  0.00  0.00    +0.000 N 
ATOM      8  C   UNL     1      -1.029   9.116  20.396  0.00  0.00    +0.000 C 
ATOM      9  C   UNL     1      -1.063  10.615  20.365  0.00  0.00    +0.000 A 
ATOM     10  C   UNL     1      -1.268  11.499  19.307  0.00  0.00    +0.000 A 
ATOM     11  C   UNL     1      -0.884  12.838  19.523  0.00  0.00    +0.000 A 
ATOM     12  C   UNL     1      -0.310  13.250  20.737  0.00  0.00    +0.000 A 
ATOM     13  F   UNL     1       0.147  14.506  20.841  0.00  0.00    +0.000 F 
ATOM     14  C   UNL     1      -0.073  12.360  21.774  0.00  0.00    +0.000 A 
ATOM     15  C   UNL     1      -0.436  11.049  21.551  0.00  0.00    +0.000 A 
ATOM     16  C   UNL     1       0.292   9.878  22.116  0.00  0.00    +0.000 C 
ATOM     17  O   UNL     1       0.975   9.909  23.115  0.00  0.00    +0.000 OA
BRANCH  10  18
ATOM     18  C   UNL     1      -1.636  11.038  17.913  0.00  0.00    +0.000 C 
BRANCH  18  19
ATOM     19  C   UNL     1      -3.103  10.678  17.738  0.00  0.00    +0.000 C 
ATOM     20  F   UNL     1      -3.221   9.325  17.666  0.00  0.00    +0.000 F 
ENDBRANCH  18  19
ENDBRANCH  10  18
ENDBRANCH   5   7
BRANCH   1  21
ATOM     21  C   UNL     1       3.175   5.928  18.330  0.00  0.00    +0.000 C 
ATOM     22  C   UNL     1       4.300   5.917  17.258  0.00  0.00    +0.000 C 
ATOM     23  O   UNL     1       5.276   5.418  18.191  0.00  0.00    +0.000 OA
ATOM     24  C   UNL     1       4.326   5.485  19.277  0.00  0.00    +0.000 C 
BRANCH  21  25
ATOM     25  C   UNL     1       2.085   4.884  18.006  0.00  0.00    +0.000 C 
BRANCH  25  31
ATOM     26  C   UNL     1       3.176   1.916  18.382  0.00  0.00    +0.000 C 
ATOM     27  N   UNL     1       2.322   2.661  19.266  0.00  0.00    +0.000 N 
ATOM     28  C   UNL     1       1.875   2.209  20.472  0.00  0.00    +0.000 A 
ATOM     29  N   UNL     1       1.076   3.100  21.005  0.00  0.00    +0.000 NA
ATOM     30  N   UNL     1       1.027   4.179  20.157  0.00  0.00    +0.000 NA
ATOM     31  C   UNL     1       1.802   3.926  19.118  0.00  0.00    +0.000 A 
ENDBRANCH  25  31
ENDBRANCH  21  25
ENDBRANCH   1  21
TORSDOF 6
ENDMDL
MODEL 8
REMARK VINA RESULT:      -7.8      3.274      7.969
REMARK  Name = 
REMARK  7 active torsions:
REMARK  status: ('A' for Active; 'I' for Inactive)
REMARK    1  A    between atoms: C_1  and  N_2
REMARK    2  A    between atoms: C_6  and  C_7
REMARK    3  A    between atoms: C_7  and  C_8
REMARK    4  A    between atoms: C_8  and  C_9
REMARK    5  A    between atoms: C_13  and  N_14
REMARK    6  A    between atoms: C_17  and  C_18
REMARK    7  A    between atoms: C_18  and  C_19
REMARK                            x       y       z     vdW  Elec       q    Type
REMARK                         _______ _______ _______ _____ _____    ______ ____
ROOT
ATOM      1  C   UNL     1       2.113   5.530  19.245  0.00  0.00    +0.000 A 
ATOM      2  C   UNL     1       2.205   6.313  18.076  0.00  0.00    +0.000 A 
ATOM      3  C   UNL     1       2.248   7.700  18.127  0.00  0.00    +0.000 A 
ATOM      4  C   UNL     1       2.094   8.350  19.349  0.00  0.00    +0.000 A 
ATOM      5  C   UNL     1       1.723   7.606  20.475  0.00  0.00    +0.000 A 
ATOM      6  C   UNL     1       1.879   6.217  20.451  0.00  0.00    +0.000 A 
ENDROOT
BRANCH   5   7
ATOM      7  N   UNL     1       0.759   8.150  21.429  0.00  0.00    +0.000 N 
ATOM      8  C   UNL     1      -0.505   8.473  20.723  0.00  0.00    +0.000 C 
ATOM      9  C   UNL     1      -0.221   9.854  20.213  0.00  0.00    +0.000 A 
ATOM     10  C   UNL     1      -0.358  10.401  18.938  0.00  0.00    +0.000 A 
ATOM     11  C   UNL     1       0.326  11.608  18.694  0.00  0.00    +0.000 A 
ATOM     12  C   UNL     1       1.117  12.216  19.684  0.00  0.00    +0.000 A 
ATOM     13  F   UNL     1       1.841  13.296  19.358  0.00  0.00    +0.000 F 
ATOM     14  C   UNL     1       1.281  11.651  20.939  0.00  0.00    +0.000 A 
ATOM     15  C   UNL     1       0.622  10.461  21.166  0.00  0.00    +0.000 A 
ATOM     16  C   UNL     1       1.145   9.377  22.043  0.00  0.00    +0.000 C 
ATOM     17  O   UNL     1       1.934   9.541  22.946  0.00  0.00    +0.000 OA
BRANCH  10  18
ATOM     18  C   UNL     1      -0.981   9.644  17.784  0.00  0.00    +0.000 C 
BRANCH  18  19
ATOM     19  C   UNL     1      -2.354  10.150  17.370  0.00  0.00    +0.000 C 
ATOM     20  F   UNL     1      -3.297   9.260  17.783  0.00  0.00    +0.000 F 
ENDBRANCH  18  19
ENDBRANCH  10  18
ENDBRANCH   5   7
BRANCH   1  21
ATOM     21  C   UNL     1       2.263   3.942  19.189  0.00  0.00    +0.000 C 
ATOM     22  C   UNL     1       1.348   3.104  20.126  0.00  0.00    +0.000 C 
ATOM     23  O   UNL     1       0.751   2.399  19.022  0.00  0.00    +0.000 OA
ATOM     24  C   UNL     1       1.487   3.194  18.067  0.00  0.00    +0.000 C 
BRANCH  21  25
ATOM     25  C   UNL     1       3.749   3.574  19.386  0.00  0.00    +0.000 C 
BRANCH  25  31
ATOM     26  C   UNL     1       6.334   5.430  19.296  0.00  0.00    +0.000 C 
ATOM     27  N   UNL     1       5.756   4.671  18.221  0.00  0.00    +0.000 N 
ATOM     28  C   UNL     1       6.277   4.586  16.965  0.00  0.00    +0.000 A 
ATOM     29  N   UNL     1       5.488   3.864  16.210  0.00  0.00    +0.000 NA
ATOM     30  N   UNL     1       4.446   3.427  16.992  0.00  0.00    +0.000 NA
ATOM     31  C   UNL     1       4.622   3.892  18.215  0.00  0.00    +0.000 A 
ENDBRANCH  25  31
ENDBRANCH  21  25
ENDBRANCH   1  21
TORSDOF 6
ENDMDL
MODEL 9
REMARK VINA RESULT:      -7.8      1.962      2.958
REMARK  Name = 
REMARK  7 active torsions:
REMARK  status: ('A' for Active; 'I' for Inactive)
REMARK    1  A    between atoms: C_1  and  N_2
REMARK    2  A    between atoms: C_6  and  C_7
REMARK    3  A    between atoms: C_7  and  C_8
REMARK    4  A    between atoms: C_8  and  C_9
REMARK    5  A    between atoms: C_13  and  N_14
REMARK    6  A    between atoms: C_17  and  C_18
REMARK    7  A    between atoms: C_18  and  C_19
REMARK                            x       y       z     vdW  Elec       q    Type
REMARK                         _______ _______ _______ _____ _____    ______ ____
ROOT
ATOM      1  C   UNL     1       1.463   8.968  19.376  0.00  0.00    +0.000 A 
ATOM      2  C   UNL     1       2.082   9.292  18.152  0.00  0.00    +0.000 A 
ATOM      3  C   UNL     1       2.773   8.344  17.408  0.00  0.00    +0.000 A 
ATOM      4  C   UNL     1       2.955   7.064  17.924  0.00  0.00    +0.000 A 
ATOM      5  C   UNL     1       2.595   6.806  19.252  0.00  0.00    +0.000 A 
ATOM      6  C   UNL     1       1.734   7.692  19.905  0.00  0.00    +0.000 A 
ENDROOT
BRANCH   5   7
ATOM      7  N   UNL     1       3.443   5.962  20.092  0.00  0.00    +0.000 N 
ATOM      8  C   UNL     1       4.458   5.287  19.246  0.00  0.00    +0.000 C 
ATOM      9  C   UNL     1       3.705   4.077  18.781  0.00  0.00    +0.000 A 
ATOM     10  C   UNL     1       3.523   3.553  17.502  0.00  0.00    +0.000 A 
ATOM     11  C   UNL     1       2.476   2.624  17.345  0.00  0.00    +0.000 A 
ATOM     12  C   UNL     1       1.651   2.260  18.423  0.00  0.00    +0.000 A 
ATOM     13  F   UNL     1       0.596   1.466  18.189  0.00  0.00    +0.000 F 
ATOM     14  C   UNL     1       1.811   2.810  19.686  0.00  0.00    +0.000 A 
ATOM     15  C   UNL     1       2.828   3.731  19.828  0.00  0.00    +0.000 A 
ATOM     16  C   UNL     1       2.767   4.897  20.753  0.00  0.00    +0.000 C 
ATOM     17  O   UNL     1       2.071   4.956  21.742  0.00  0.00    +0.000 OA
BRANCH  10  18
ATOM     18  C   UNL     1       4.217   4.116  16.280  0.00  0.00    +0.000 C 
BRANCH  18  19
ATOM     19  C   UNL     1       5.730   3.963  16.291  0.00  0.00    +0.000 C 
ATOM     20  F   UNL     1       6.105   3.178  15.246  0.00  0.00    +0.000 F 
ENDBRANCH  18  19
ENDBRANCH  10  18
ENDBRANCH   5   7
BRANCH   1  21
ATOM     21  C   UNL     1       0.509  10.009  20.121  0.00  0.00    +0.000 C 
ATOM     22  C   UNL     1      -0.685   9.432  20.932  0.00  0.00    +0.000 C 
ATOM     23  O   UNL     1      -0.224  10.027  22.160  0.00  0.00    +0.000 OA
ATOM     24  C   UNL     1       0.969  10.525  21.515  0.00  0.00    +0.000 C 
BRANCH  21  25
ATOM     25  C   UNL     1       0.031  11.065  19.100  0.00  0.00    +0.000 C 
BRANCH  25  31
ATOM     26  C   UNL     1      -2.777  12.406  19.770  0.00  0.00    +0.000 C 
ATOM     27  N   UNL     1      -2.493  11.402  18.783  0.00  0.00    +0.000 N 
ATOM     28  C   UNL     1      -3.410  10.889  17.914  0.00  0.00    +0.000 A 
ATOM     29  N   UNL     1      -2.849   9.958  17.183  0.00  0.00    +0.000 NA
ATOM     30  N   UNL     1      -1.526   9.883  17.546  0.00  0.00    +0.000 NA
ATOM     31  C   UNL     1      -1.303  10.774  18.494  0.00  0.00    +0.000 A 
ENDBRANCH  25  31
ENDBRANCH  21  25
ENDBRANCH   1  21
TORSDOF 6
ENDMDL
