MODEL 1
REMARK VINA RESULT:      -8.2      0.000      0.000
REMARK  Name = 
REMARK  7 active torsions:
REMARK  status: ('A' for Active; 'I' for Inactive)
REMARK    1  A    between atoms: C_1  and  N_2
REMARK    2  A    between atoms: C_6  and  C_7
REMARK    3  A    between atoms: C_7  and  C_8
REMARK    4  A    between atoms: C_8  and  C_9
REMARK    5  A    between atoms: C_13  and  N_14
REMARK    6  A    between atoms: C_15  and  C_17
REMARK    7  A    between atoms: C_18  and  C_19
REMARK                            x       y       z     vdW  Elec       q    Type
REMARK                         _______ _______ _______ _____ _____    ______ ____
ROOT
ATOM      1  N   UNL     1       2.465   7.025  18.754  0.00  0.00    +0.000 N 
ATOM      2  C   UNL     1       3.262   5.968  19.156  0.00  0.00    +0.000 C 
ATOM      3  O   UNL     1       3.564   5.658  20.300  0.00  0.00    +0.000 OA
ATOM      4  H   UNL     1       2.338   7.191  17.764  0.00  0.00    +0.000 HD
ENDROOT
BRANCH   2   5
ATOM      5  C   UNL     1       3.843   5.184  18.034  0.00  0.00    +0.000 A 
ATOM      6  C   UNL     1       3.261   3.977  17.617  0.00  0.00    +0.000 A 
ATOM      7  C   UNL     1       3.751   3.377  16.443  0.00  0.00    +0.000 A 
ATOM      8  C   UNL     1       4.809   3.941  15.732  0.00  0.00    +0.000 A 
ATOM      9  C   UNL     1       5.449   5.092  16.207  0.00  0.00    +0.000 A 
ATOM     10  C   UNL     1       4.988   5.700  17.383  0.00  0.00    +0.000 A 
ATOM     11  C   UNL     1       5.765   6.865  17.950  0.00  0.00    +0.000 C 
ATOM     12  C   UNL     1       7.111   7.172  17.287  0.00  0.00    +0.000 C 
ATOM     13  O   UNL     1       7.579   6.195  16.364  0.00  0.00    +0.000 OA
ATOM     14  C   UNL     1       6.585   5.731  15.458  0.00  0.00    +0.000 C 
BRANCH   6  15
ATOM     15  C   UNL     1       2.161   3.279  18.380  0.00  0.00    +0.000 C 
ATOM     16  F   UNL     1       1.046   4.018  18.611  0.00  0.00    +0.000 F 
ATOM     17  F   UNL     1       1.736   2.158  17.733  0.00  0.00    +0.000 F 
ATOM     18  F   UNL     1       2.573   2.864  19.612  0.00  0.00    +0.000 F 
ENDBRANCH   6  15
ENDBRANCH   2   5
BRANCH   1  23
ATOM     19  C   UNL     1       0.639  10.076  19.828  0.00  0.00    +0.000 A 
ATOM     20  C   UNL     1       0.425   9.780  21.188  0.00  0.00    +0.000 A 
ATOM     21  C   UNL     1       0.854   8.580  21.745  0.00  0.00    +0.000 A 
ATOM     22  C   UNL     1       1.532   7.648  20.964  0.00  0.00    +0.000 A 
ATOM     23  C   UNL     1       1.783   7.909  19.616  0.00  0.00    +0.000 A 
ATOM     24  C   UNL     1       1.333   9.114  19.064  0.00  0.00    +0.000 A 
BRANCH  19  25
ATOM     25  C   UNL     1       0.133  11.443  19.165  0.00  0.00    +0.000 C 
ATOM     26  C   UNL     1      -0.911  11.343  18.016  0.00  0.00    +0.000 C 
ATOM     27  O   UNL     1      -1.884  12.116  18.751  0.00  0.00    +0.000 OA
ATOM     28  C   UNL     1      -1.027  12.165  19.906  0.00  0.00    +0.000 C 
BRANCH  25  29
ATOM     29  C   UNL     1       1.334  12.373  18.888  0.00  0.00    +0.000 C 
BRANCH  29  35
ATOM     30  C   UNL     1       0.651  15.473  18.929  0.00  0.00    +0.000 C 
ATOM     31  N   UNL     1       1.297  14.705  19.956  0.00  0.00    +0.000 N 
ATOM     32  C   UNL     1       1.751  15.208  21.137  0.00  0.00    +0.000 A 
ATOM     33  N   UNL     1       2.241  14.246  21.872  0.00  0.00    +0.000 NA
ATOM     34  N   UNL     1       2.144  13.082  21.146  0.00  0.00    +0.000 NA
ATOM     35  C   UNL     1       1.586  13.360  19.983  0.00  0.00    +0.000 A 
ENDBRANCH  29  35
ENDBRANCH  25  29
ENDBRANCH  19  25
ENDBRANCH   1  23
TORSDOF 6
ENDMDL
MODEL 2
REMARK VINA RESULT:      -8.2      0.958      1.056
REMARK  Name = 
REMARK  7 active torsions:
REMARK  status: ('A' for Active; 'I' for Inactive)
REMARK    1  A    between atoms: C_1  and  N_2
REMARK    2  A    between atoms: C_6  and  C_7
REMARK    3  A    between atoms: C_7  and  C_8
REMARK    4  A    between atoms: C_8  and  C_9
REMARK    5  A    between atoms: C_13  and  N_14
REMARK    6  A    between atoms: C_15  and  C_17
REMARK    7  A    between atoms: C_18  and  C_19
REMARK                            x       y       z     vdW  Elec       q    Type
REMARK                         _______ _______ _______ _____ _____    ______ ____
ROOT
ATOM      1  N   UNL     1       2.489   6.999  19.122  0.00  0.00    +0.000 N 
ATOM      2  C   UNL     1       3.023   5.810  19.585  0.00  0.00    +0.000 C 
ATOM      3  O   UNL     1       3.058   5.410  20.740  0.00  0.00    +0.000 OA
ATOM      4  H   UNL     1       2.573   7.221  18.139  0.00  0.00    +0.000 HD
ENDROOT
BRANCH   2   5
ATOM      5  C   UNL     1       3.670   4.984  18.532  0.00  0.00    +0.000 A 
ATOM      6  C   UNL     1       2.912   4.132  17.712  0.00  0.00    +0.000 A 
ATOM      7  C   UNL     1       3.556   3.516  16.624  0.00  0.00    +0.000 A 
ATOM      8  C   UNL     1       4.915   3.710  16.385  0.00  0.00    +0.000 A 
ATOM      9  C   UNL     1       5.686   4.482  17.262  0.00  0.00    +0.000 A 
ATOM     10  C   UNL     1       5.070   5.095  18.363  0.00  0.00    +0.000 A 
ATOM     11  C   UNL     1       5.934   5.819  19.367  0.00  0.00    +0.000 C 
ATOM     12  C   UNL     1       7.449   5.664  19.199  0.00  0.00    +0.000 C 
ATOM     13  O   UNL     1       7.866   4.682  18.256  0.00  0.00    +0.000 OA
ATOM     14  C   UNL     1       7.152   4.720  17.027  0.00  0.00    +0.000 C 
BRANCH   6  15
ATOM     15  C   UNL     1       1.454   3.825  17.958  0.00  0.00    +0.000 C 
ATOM     16  F   UNL     1       0.965   4.218  19.162  0.00  0.00    +0.000 F 
ATOM     17  F   UNL     1       0.655   4.409  17.024  0.00  0.00    +0.000 F 
ATOM     18  F   UNL     1       1.193   2.488  17.888  0.00  0.00    +0.000 F 
ENDBRANCH   6  15
ENDBRANCH   2   5
BRANCH   1  23
ATOM     19  C   UNL     1       0.718  10.156  19.957  0.00  0.00    +0.000 A 
ATOM     20  C   UNL     1       0.457   9.947  21.326  0.00  0.00    +0.000 A 
ATOM     21  C   UNL     1       0.839   8.773  21.966  0.00  0.00    +0.000 A 
ATOM     22  C   UNL     1       1.512   7.778  21.262  0.00  0.00    +0.000 A 
ATOM     23  C   UNL     1       1.808   7.950  19.909  0.00  0.00    +0.000 A 
ATOM     24  C   UNL     1       1.406   9.131  19.273  0.00  0.00    +0.000 A 
BRANCH  19  25
ATOM     25  C   UNL     1       0.268  11.492  19.199  0.00  0.00    +0.000 C 
ATOM     26  C   UNL     1      -0.738  11.348  18.021  0.00  0.00    +0.000 C 
ATOM     27  O   UNL     1      -1.717  12.184  18.675  0.00  0.00    +0.000 OA
ATOM     28  C   UNL     1      -0.900  12.281  19.856  0.00  0.00    +0.000 C 
BRANCH  25  29
ATOM     29  C   UNL     1       1.499  12.378  18.913  0.00  0.00    +0.000 C 
BRANCH  29  35
ATOM     30  C   UNL     1       1.090  15.525  18.850  0.00  0.00    +0.000 C 
ATOM     31  N   UNL     1       1.616  14.732  19.925  0.00  0.00    +0.000 N 
ATOM     32  C   UNL     1       2.056  15.225  21.116  0.00  0.00    +0.000 A 
ATOM     33  N   UNL     1       2.424  14.244  21.896  0.00  0.00    +0.000 NA
ATOM     34  N   UNL     1       2.259  13.074  21.192  0.00  0.00    +0.000 NA
ATOM     35  C   UNL     1       1.784  13.368  19.996  0.00  0.00    +0.000 A 
ENDBRANCH  29  35
ENDBRANCH  25  29
ENDBRANCH  19  25
ENDBRANCH   1  23
TORSDOF 6
ENDMDL
MODEL 3
REMARK VINA RESULT:      -8.2      0.914      1.103
REMARK  Name = 
REMARK  7 active torsions:
REMARK  status: ('A' for Active; 'I' for Inactive)
REMARK    1  A    between atoms: C_1  and  N_2
REMARK    2  A    between atoms: C_6  and  C_7
REMARK    3  A    between atoms: C_7  and  C_8
REMARK    4  A    between atoms: C_8  and  C_9
REMARK    5  A    between atoms: C_13  and  N_14
REMARK    6  A    between atoms: C_15  and  C_17
REMARK    7  A    between atoms: C_18  and  C_19
REMARK                            x       y       z     vdW  Elec       q    Type
REMARK                         _______ _______ _______ _____ _____    ______ ____
ROOT
ATOM      1  N   UNL     1       1.956   6.986  19.402  0.00  0.00    +0.000 N 
ATOM      2  C   UNL     1       2.475   5.796  19.879  0.00  0.00    +0.000 C 
ATOM      3  O   UNL     1       2.683   5.490  21.045  0.00  0.00    +0.000 OA
ATOM      4  H   UNL     1       1.881   7.120  18.402  0.00  0.00    +0.000 HD
ENDROOT
BRANCH   2   5
ATOM      5  C   UNL     1       2.865   4.833  18.816  0.00  0.00    +0.000 A 
ATOM      6  C   UNL     1       2.135   3.653  18.606  0.00  0.00    +0.000 A 
ATOM      7  C   UNL     1       2.445   2.875  17.476  0.00  0.00    +0.000 A 
ATOM      8  C   UNL     1       3.473   3.241  16.607  0.00  0.00    +0.000 A 
ATOM      9  C   UNL     1       4.260   4.367  16.876  0.00  0.00    +0.000 A 
ATOM     10  C   UNL     1       3.979   5.151  18.005  0.00  0.00    +0.000 A 
ATOM     11  C   UNL     1       4.912   6.287  18.349  0.00  0.00    +0.000 C 
ATOM     12  C   UNL     1       6.207   6.376  17.535  0.00  0.00    +0.000 C 
ATOM     13  O   UNL     1       6.486   5.257  16.701  0.00  0.00    +0.000 OA
ATOM     14  C   UNL     1       5.367   4.796  15.954  0.00  0.00    +0.000 C 
BRANCH   6  15
ATOM     15  C   UNL     1       1.059   3.163  19.546  0.00  0.00    +0.000 C 
ATOM     16  F   UNL     1       0.262   4.124  20.079  0.00  0.00    +0.000 F 
ATOM     17  F   UNL     1       0.221   2.283  18.933  0.00  0.00    +0.000 F 
ATOM     18  F   UNL     1       1.578   2.498  20.618  0.00  0.00    +0.000 F 
ENDBRANCH   6  15
ENDBRANCH   2   5
BRANCH   1  23
ATOM     19  C   UNL     1       0.695  10.381  20.228  0.00  0.00    +0.000 A 
ATOM     20  C   UNL     1       0.577  10.276  21.628  0.00  0.00    +0.000 A 
ATOM     21  C   UNL     1       0.886   9.095  22.295  0.00  0.00    +0.000 A 
ATOM     22  C   UNL     1       1.344   7.989  21.585  0.00  0.00    +0.000 A 
ATOM     23  C   UNL     1       1.494   8.055  20.199  0.00  0.00    +0.000 A 
ATOM     24  C   UNL     1       1.166   9.245  19.538  0.00  0.00    +0.000 A 
BRANCH  19  25
ATOM     25  C   UNL     1       0.323  11.725  19.442  0.00  0.00    +0.000 C 
ATOM     26  C   UNL     1      -0.701  11.618  18.276  0.00  0.00    +0.000 C 
ATOM     27  O   UNL     1      -1.619  12.530  18.918  0.00  0.00    +0.000 OA
ATOM     28  C   UNL     1      -0.786  12.603  20.090  0.00  0.00    +0.000 C 
BRANCH  25  29
ATOM     29  C   UNL     1       1.605  12.524  19.125  0.00  0.00    +0.000 C 
BRANCH  29  35
ATOM     30  C   UNL     1       1.155  15.664  19.005  0.00  0.00    +0.000 C 
ATOM     31  N   UNL     1       1.754  14.905  20.067  0.00  0.00    +0.000 N 
ATOM     32  C   UNL     1       2.257  15.434  21.216  0.00  0.00    +0.000 A 
ATOM     33  N   UNL     1       2.683  14.479  21.998  0.00  0.00    +0.000 NA
ATOM     34  N   UNL     1       2.491  13.289  21.335  0.00  0.00    +0.000 NA
ATOM     35  C   UNL     1       1.942  13.545  20.163  0.00  0.00    +0.000 A 
ENDBRANCH  29  35
ENDBRANCH  25  29
ENDBRANCH  19  25
ENDBRANCH   1  23
TORSDOF 6
ENDMDL
MODEL 4
REMARK VINA RESULT:      -8.1      0.951      1.057
REMARK  Name = 
REMARK  7 active torsions:
REMARK  status: ('A' for Active; 'I' for Inactive)
REMARK    1  A    between atoms: C_1  and  N_2
REMARK    2  A    between atoms: C_6  and  C_7
REMARK    3  A    between atoms: C_7  and  C_8
REMARK    4  A    between atoms: C_8  and  C_9
REMARK    5  A    between atoms: C_13  and  N_14
REMARK    6  A    between atoms: C_15  and  C_17
REMARK    7  A    between atoms: C_18  and  C_19
REMARK                            x       y       z     vdW  Elec       q    Type
REMARK                         _______ _______ _______ _____ _____    ______ ____
ROOT
ATOM      1  N   UNL     1       2.526   7.018  19.500  0.00  0.00    +0.000 N 
ATOM      2  C   UNL     1       2.687   6.972  18.127  0.00  0.00    +0.000 C 
ATOM      3  O   UNL     1       2.176   7.709  17.294  0.00  0.00    +0.000 OA
ATOM      4  H   UNL     1       2.977   6.311  20.067  0.00  0.00    +0.000 HD
ENDROOT
BRANCH   2   5
ATOM      5  C   UNL     1       3.538   5.850  17.651  0.00  0.00    +0.000 A 
ATOM      6  C   UNL     1       3.015   4.555  17.511  0.00  0.00    +0.000 A 
ATOM      7  C   UNL     1       3.818   3.580  16.890  0.00  0.00    +0.000 A 
ATOM      8  C   UNL     1       5.111   3.877  16.461  0.00  0.00    +0.000 A 
ATOM      9  C   UNL     1       5.661   5.144  16.691  0.00  0.00    +0.000 A 
ATOM     10  C   UNL     1       4.885   6.128  17.321  0.00  0.00    +0.000 A 
ATOM     11  C   UNL     1       5.532   7.445  17.675  0.00  0.00    +0.000 C 
ATOM     12  C   UNL     1       7.050   7.532  17.483  0.00  0.00    +0.000 C 
ATOM     13  O   UNL     1       7.705   6.299  17.205  0.00  0.00    +0.000 OA
ATOM     14  C   UNL     1       7.047   5.500  16.230  0.00  0.00    +0.000 C 
BRANCH   6  15
ATOM     15  C   UNL     1       1.651   4.151  18.018  0.00  0.00    +0.000 C 
ATOM     16  F   UNL     1       1.369   4.510  19.296  0.00  0.00    +0.000 F 
ATOM     17  F   UNL     1       0.656   4.682  17.254  0.00  0.00    +0.000 F 
ATOM     18  F   UNL     1       1.469   2.800  17.979  0.00  0.00    +0.000 F 
ENDBRANCH   6  15
ENDBRANCH   2   5
BRANCH   1  23
ATOM     19  C   UNL     1       0.607  10.144  20.081  0.00  0.00    +0.000 A 
ATOM     20  C   UNL     1       0.319  10.015  21.454  0.00  0.00    +0.000 A 
ATOM     21  C   UNL     1       0.731   8.902  22.180  0.00  0.00    +0.000 A 
ATOM     22  C   UNL     1       1.462   7.892  21.559  0.00  0.00    +0.000 A 
ATOM     23  C   UNL     1       1.786   7.989  20.205  0.00  0.00    +0.000 A 
ATOM     24  C   UNL     1       1.354   9.108  19.483  0.00  0.00    +0.000 A 
BRANCH  19  25
ATOM     25  C   UNL     1       0.123  11.408  19.226  0.00  0.00    +0.000 C 
ATOM     26  C   UNL     1      -0.841  11.145  18.034  0.00  0.00    +0.000 C 
ATOM     27  O   UNL     1      -1.873  11.978  18.606  0.00  0.00    +0.000 OA
ATOM     28  C   UNL     1      -1.095  12.186  19.799  0.00  0.00    +0.000 C 
BRANCH  25  29
ATOM     29  C   UNL     1       1.324  12.327  18.914  0.00  0.00    +0.000 C 
BRANCH  29  35
ATOM     30  C   UNL     1       0.667  15.432  18.901  0.00  0.00    +0.000 C 
ATOM     31  N   UNL     1       1.319  14.679  19.936  0.00  0.00    +0.000 N 
ATOM     32  C   UNL     1       1.791  15.202  21.101  0.00  0.00    +0.000 A 
ATOM     33  N   UNL     1       2.282  14.251  21.850  0.00  0.00    +0.000 NA
ATOM     34  N   UNL     1       2.166  13.074  21.148  0.00  0.00    +0.000 NA
ATOM     35  C   UNL     1       1.597  13.333  19.986  0.00  0.00    +0.000 A 
ENDBRANCH  29  35
ENDBRANCH  25  29
ENDBRANCH  19  25
ENDBRANCH   1  23
TORSDOF 6
ENDMDL
MODEL 5
REMARK VINA RESULT:      -7.9      2.231      3.026
REMARK  Name = 
REMARK  7 active torsions:
REMARK  status: ('A' for Active; 'I' for Inactive)
REMARK    1  A    between atoms: C_1  and  N_2
REMARK    2  A    between atoms: C_6  and  C_7
REMARK    3  A    between atoms: C_7  and  C_8
REMARK    4  A    between atoms: C_8  and  C_9
REMARK    5  A    between atoms: C_13  and  N_14
REMARK    6  A    between atoms: C_15  and  C_17
REMARK    7  A    between atoms: C_18  and  C_19
REMARK                            x       y       z     vdW  Elec       q    Type
REMARK                         _______ _______ _______ _____ _____    ______ ____
ROOT
ATOM      1  N   UNL     1       2.497   6.977  19.515  0.00  0.00    +0.000 N 
ATOM      2  C   UNL     1       2.573   6.828  18.142  0.00  0.00    +0.000 C 
ATOM      3  O   UNL     1       1.959   7.458  17.291  0.00  0.00    +0.000 OA
ATOM      4  H   UNL     1       3.031   6.350  20.103  0.00  0.00    +0.000 HD
ENDROOT
BRANCH   2   5
ATOM      5  C   UNL     1       3.467   5.727  17.697  0.00  0.00    +0.000 A 
ATOM      6  C   UNL     1       2.995   4.408  17.597  0.00  0.00    +0.000 A 
ATOM      7  C   UNL     1       3.836   3.448  17.004  0.00  0.00    +0.000 A 
ATOM      8  C   UNL     1       5.116   3.783  16.564  0.00  0.00    +0.000 A 
ATOM      9  C   UNL     1       5.615   5.077  16.756  0.00  0.00    +0.000 A 
ATOM     10  C   UNL     1       4.802   6.047  17.357  0.00  0.00    +0.000 A 
ATOM     11  C   UNL     1       5.396   7.399  17.671  0.00  0.00    +0.000 C 
ATOM     12  C   UNL     1       6.909   7.540  17.474  0.00  0.00    +0.000 C 
ATOM     13  O   UNL     1       7.613   6.327  17.231  0.00  0.00    +0.000 OA
ATOM     14  C   UNL     1       6.986   5.473  16.282  0.00  0.00    +0.000 C 
BRANCH   6  15
ATOM     15  C   UNL     1       1.649   3.966  18.118  0.00  0.00    +0.000 C 
ATOM     16  F   UNL     1       1.378   4.299  19.406  0.00  0.00    +0.000 F 
ATOM     17  F   UNL     1       0.630   4.485  17.378  0.00  0.00    +0.000 F 
ATOM     18  F   UNL     1       1.496   2.612  18.062  0.00  0.00    +0.000 F 
ENDBRANCH   6  15
ENDBRANCH   2   5
BRANCH   1  23
ATOM     19  C   UNL     1       0.979  10.294  20.214  0.00  0.00    +0.000 A 
ATOM     20  C   UNL     1       0.292  10.012  21.412  0.00  0.00    +0.000 A 
ATOM     21  C   UNL     1       0.307   8.741  21.975  0.00  0.00    +0.000 A 
ATOM     22  C   UNL     1       1.027   7.715  21.368  0.00  0.00    +0.000 A 
ATOM     23  C   UNL     1       1.738   7.954  20.191  0.00  0.00    +0.000 A 
ATOM     24  C   UNL     1       1.703   9.235  19.628  0.00  0.00    +0.000 A 
BRANCH  19  25
ATOM     25  C   UNL     1       0.955  11.746  19.542  0.00  0.00    +0.000 C 
ATOM     26  C   UNL     1       1.935  12.816  20.101  0.00  0.00    +0.000 C 
ATOM     27  O   UNL     1       2.594  12.968  18.825  0.00  0.00    +0.000 OA
ATOM     28  C   UNL     1       1.807  11.908  18.251  0.00  0.00    +0.000 C 
BRANCH  25  29
ATOM     29  C   UNL     1      -0.504  12.218  19.356  0.00  0.00    +0.000 C 
BRANCH  29  35
ATOM     30  C   UNL     1      -3.665  12.026  19.151  0.00  0.00    +0.000 C 
ATOM     31  N   UNL     1      -2.693  11.233  18.452  0.00  0.00    +0.000 N 
ATOM     32  C   UNL     1      -2.985  10.228  17.581  0.00  0.00    +0.000 A 
ATOM     33  N   UNL     1      -1.884   9.739  17.078  0.00  0.00    +0.000 NA
ATOM     34  N   UNL     1      -0.833  10.412  17.657  0.00  0.00    +0.000 NA
ATOM     35  C   UNL     1      -1.319  11.305  18.498  0.00  0.00    +0.000 A 
ENDBRANCH  29  35
ENDBRANCH  25  29
ENDBRANCH  19  25
ENDBRANCH   1  23
TORSDOF 6
ENDMDL
MODEL 6
REMARK VINA RESULT:      -7.9      1.490      1.897
REMARK  Name = 
REMARK  7 active torsions:
REMARK  status: ('A' for Active; 'I' for Inactive)
REMARK    1  A    between atoms: C_1  and  N_2
REMARK    2  A    between atoms: C_6  and  C_7
REMARK    3  A    between atoms: C_7  and  C_8
REMARK    4  A    between atoms: C_8  and  C_9
REMARK    5  A    between atoms: C_13  and  N_14
REMARK    6  A    between atoms: C_15  and  C_17
REMARK    7  A    between atoms: C_18  and  C_19
REMARK                            x       y       z     vdW  Elec       q    Type
REMARK                         _______ _______ _______ _____ _____    ______ ____
ROOT
ATOM      1  N   UNL     1       2.222   7.002  20.363  0.00  0.00    +0.000 N 
ATOM      2  C   UNL     1       1.734   5.753  20.023  0.00  0.00    +0.000 C 
ATOM      3  O   UNL     1       0.593   5.336  20.167  0.00  0.00    +0.000 OA
ATOM      4  H   UNL     1       3.206   7.194  20.228  0.00  0.00    +0.000 HD
ENDROOT
BRANCH   2   5
ATOM      5  C   UNL     1       2.762   4.826  19.480  0.00  0.00    +0.000 A 
ATOM      6  C   UNL     1       2.987   3.571  20.067  0.00  0.00    +0.000 A 
ATOM      7  C   UNL     1       3.843   2.673  19.403  0.00  0.00    +0.000 A 
ATOM      8  C   UNL     1       4.483   3.030  18.217  0.00  0.00    +0.000 A 
ATOM      9  C   UNL     1       4.331   4.318  17.689  0.00  0.00    +0.000 A 
ATOM     10  C   UNL     1       3.494   5.235  18.341  0.00  0.00    +0.000 A 
ATOM     11  C   UNL     1       3.439   6.655  17.831  0.00  0.00    +0.000 C 
ATOM     12  C   UNL     1       4.453   7.030  16.746  0.00  0.00    +0.000 C 
ATOM     13  O   UNL     1       5.473   6.067  16.501  0.00  0.00    +0.000 OA
ATOM     14  C   UNL     1       4.997   4.730  16.406  0.00  0.00    +0.000 C 
BRANCH   6  15
ATOM     15  C   UNL     1       2.380   3.150  21.385  0.00  0.00    +0.000 C 
ATOM     16  F   UNL     1       2.318   4.114  22.338  0.00  0.00    +0.000 F 
ATOM     17  F   UNL     1       1.105   2.700  21.228  0.00  0.00    +0.000 F 
ATOM     18  F   UNL     1       3.068   2.123  21.962  0.00  0.00    +0.000 F 
ENDBRANCH   6  15
ENDBRANCH   2   5
BRANCH   1  23
ATOM     19  C   UNL     1       0.301  10.181  20.379  0.00  0.00    +0.000 A 
ATOM     20  C   UNL     1      -0.057  10.255  21.740  0.00  0.00    +0.000 A 
ATOM     21  C   UNL     1       0.309   9.261  22.641  0.00  0.00    +0.000 A 
ATOM     22  C   UNL     1       1.062   8.171  22.214  0.00  0.00    +0.000 A 
ATOM     23  C   UNL     1       1.455   8.067  20.879  0.00  0.00    +0.000 A 
ATOM     24  C   UNL     1       1.068   9.067  19.979  0.00  0.00    +0.000 A 
BRANCH  19  25
ATOM     25  C   UNL     1      -0.130  11.305  19.324  0.00  0.00    +0.000 C 
ATOM     26  C   UNL     1      -1.005  10.863  18.117  0.00  0.00    +0.000 C 
ATOM     27  O   UNL     1      -2.080  11.750  18.493  0.00  0.00    +0.000 OA
ATOM     28  C   UNL     1      -1.391  12.135  19.696  0.00  0.00    +0.000 C 
BRANCH  25  29
ATOM     29  C   UNL     1       1.084  12.191  18.972  0.00  0.00    +0.000 C 
BRANCH  29  35
ATOM     30  C   UNL     1       0.359  15.281  18.920  0.00  0.00    +0.000 C 
ATOM     31  N   UNL     1       1.074  14.567  19.940  0.00  0.00    +0.000 N 
ATOM     32  C   UNL     1       1.588  15.126  21.069  0.00  0.00    +0.000 A 
ATOM     33  N   UNL     1       2.135  14.203  21.815  0.00  0.00    +0.000 NA
ATOM     34  N   UNL     1       2.013  13.008  21.146  0.00  0.00    +0.000 NA
ATOM     35  C   UNL     1       1.384  13.228  20.006  0.00  0.00    +0.000 A 
ENDBRANCH  29  35
ENDBRANCH  25  29
ENDBRANCH  19  25
ENDBRANCH   1  23
TORSDOF 6
ENDMDL
MODEL 7
REMARK VINA RESULT:      -7.9      2.465      3.254
REMARK  Name = 
REMARK  7 active torsions:
REMARK  status: ('A' for Active; 'I' for Inactive)
REMARK    1  A    between atoms: C_1  and  N_2
REMARK    2  A    between atoms: C_6  and  C_7
REMARK    3  A    between atoms: C_7  and  C_8
REMARK    4  A    between atoms: C_8  and  C_9
REMARK    5  A    between atoms: C_13  and  N_14
REMARK    6  A    between atoms: C_15  and  C_17
REMARK    7  A    between atoms: C_18  and  C_19
REMARK                            x       y       z     vdW  Elec       q    Type
REMARK                         _______ _______ _______ _____ _____    ______ ____
ROOT
ATOM      1  N   UNL     1       2.243   7.061  20.321  0.00  0.00    +0.000 N 
ATOM      2  C   UNL     1       2.291   6.452  19.080  0.00  0.00    +0.000 C 
ATOM      3  O   UNL     1       1.592   6.695  18.105  0.00  0.00    +0.000 OA
ATOM      4  H   UNL     1       2.856   6.725  21.053  0.00  0.00    +0.000 HD
ENDROOT
BRANCH   2   5
ATOM      5  C   UNL     1       3.277   5.344  18.984  0.00  0.00    +0.000 A 
ATOM      6  C   UNL     1       3.046   4.113  19.619  0.00  0.00    +0.000 A 
ATOM      7  C   UNL     1       3.927   3.051  19.344  0.00  0.00    +0.000 A 
ATOM      8  C   UNL     1       5.022   3.222  18.498  0.00  0.00    +0.000 A 
ATOM      9  C   UNL     1       5.302   4.478  17.946  0.00  0.00    +0.000 A 
ATOM     10  C   UNL     1       4.446   5.555  18.216  0.00  0.00    +0.000 A 
ATOM     11  C   UNL     1       4.829   6.928  17.717  0.00  0.00    +0.000 C 
ATOM     12  C   UNL     1       6.228   7.066  17.110  0.00  0.00    +0.000 C 
ATOM     13  O   UNL     1       7.087   5.945  17.285  0.00  0.00    +0.000 OA
ATOM     14  C   UNL     1       6.467   4.693  17.020  0.00  0.00    +0.000 C 
BRANCH   6  15
ATOM     15  C   UNL     1       1.921   3.883  20.599  0.00  0.00    +0.000 C 
ATOM     16  F   UNL     1       0.704   4.347  20.218  0.00  0.00    +0.000 F 
ATOM     17  F   UNL     1       1.748   2.558  20.861  0.00  0.00    +0.000 F 
ATOM     18  F   UNL     1       2.163   4.472  21.805  0.00  0.00    +0.000 F 
ENDBRANCH   6  15
ENDBRANCH   2   5
BRANCH   1  23
ATOM     19  C   UNL     1       0.773  10.469  20.172  0.00  0.00    +0.000 A 
ATOM     20  C   UNL     1      -0.150  10.394  21.234  0.00  0.00    +0.000 A 
ATOM     21  C   UNL     1      -0.306   9.231  21.979  0.00  0.00    +0.000 A 
ATOM     22  C   UNL     1       0.471   8.110  21.699  0.00  0.00    +0.000 A 
ATOM     23  C   UNL     1       1.412   8.146  20.668  0.00  0.00    +0.000 A 
ATOM     24  C   UNL     1       1.549   9.319  19.917  0.00  0.00    +0.000 A 
BRANCH  19  25
ATOM     25  C   UNL     1       0.950  11.793  19.291  0.00  0.00    +0.000 C 
ATOM     26  C   UNL     1       1.984  12.849  19.777  0.00  0.00    +0.000 C 
ATOM     27  O   UNL     1       2.757  12.740  18.562  0.00  0.00    +0.000 OA
ATOM     28  C   UNL     1       1.917  11.675  18.079  0.00  0.00    +0.000 C 
BRANCH  25  29
ATOM     29  C   UNL     1      -0.433  12.355  18.897  0.00  0.00    +0.000 C 
BRANCH  29  35
ATOM     30  C   UNL     1      -3.577  12.038  19.206  0.00  0.00    +0.000 C 
ATOM     31  N   UNL     1      -2.686  11.219  18.433  0.00  0.00    +0.000 N 
ATOM     32  C   UNL     1      -3.060  10.130  17.706  0.00  0.00    +0.000 A 
ATOM     33  N   UNL     1      -2.026   9.635  17.079  0.00  0.00    +0.000 NA
ATOM     34  N   UNL     1      -0.932  10.393  17.429  0.00  0.00    +0.000 NA
ATOM     35  C   UNL     1      -1.327  11.341  18.257  0.00  0.00    +0.000 A 
ENDBRANCH  29  35
ENDBRANCH  25  29
ENDBRANCH  19  25
ENDBRANCH   1  23
TORSDOF 6
ENDMDL
MODEL 8
REMARK VINA RESULT:      -7.8      2.400      3.310
REMARK  Name = 
REMARK  7 active torsions:
REMARK  status: ('A' for Active; 'I' for Inactive)
REMARK    1  A    between atoms: C_1  and  N_2
REMARK    2  A    between atoms: C_6  and  C_7
REMARK    3  A    between atoms: C_7  and  C_8
REMARK    4  A    between atoms: C_8  and  C_9
REMARK    5  A    between atoms: C_13  and  N_14
REMARK    6  A    between atoms: C_15  and  C_17
REMARK    7  A    between atoms: C_18  and  C_19
REMARK                            x       y       z     vdW  Elec       q    Type
REMARK                         _______ _______ _______ _____ _____    ______ ____
ROOT
ATOM      1  N   UNL     1       2.528   7.032  19.483  0.00  0.00    +0.000 N 
ATOM      2  C   UNL     1       2.634   6.903  18.110  0.00  0.00    +0.000 C 
ATOM      3  O   UNL     1       2.057   7.561  17.255  0.00  0.00    +0.000 OA
ATOM      4  H   UNL     1       3.033   6.384  20.075  0.00  0.00    +0.000 HD
ENDROOT
BRANCH   2   5
ATOM      5  C   UNL     1       3.512   5.787  17.671  0.00  0.00    +0.000 A 
ATOM      6  C   UNL     1       3.019   4.477  17.566  0.00  0.00    +0.000 A 
ATOM      7  C   UNL     1       3.847   3.503  16.977  0.00  0.00    +0.000 A 
ATOM      8  C   UNL     1       5.135   3.817  16.545  0.00  0.00    +0.000 A 
ATOM      9  C   UNL     1       5.655   5.102  16.741  0.00  0.00    +0.000 A 
ATOM     10  C   UNL     1       4.854   6.086  17.339  0.00  0.00    +0.000 A 
ATOM     11  C   UNL     1       5.470   7.427  17.658  0.00  0.00    +0.000 C 
ATOM     12  C   UNL     1       6.986   7.543  17.470  0.00  0.00    +0.000 C 
ATOM     13  O   UNL     1       7.671   6.318  17.231  0.00  0.00    +0.000 OA
ATOM     14  C   UNL     1       7.036   5.476  16.277  0.00  0.00    +0.000 C 
BRANCH   6  15
ATOM     15  C   UNL     1       1.663   4.056  18.078  0.00  0.00    +0.000 C 
ATOM     16  F   UNL     1       1.409   2.724  18.047  0.00  0.00    +0.000 F 
ATOM     17  F   UNL     1       1.475   4.440  19.371  0.00  0.00    +0.000 F 
ATOM     18  F   UNL     1       0.647   4.628  17.370  0.00  0.00    +0.000 F 
ENDBRANCH   6  15
ENDBRANCH   2   5
BRANCH   1  23
ATOM     19  C   UNL     1       0.336   9.998  19.926  0.00  0.00    +0.000 A 
ATOM     20  C   UNL     1       0.254  10.047  21.332  0.00  0.00    +0.000 A 
ATOM     21  C   UNL     1       0.893   9.103  22.128  0.00  0.00    +0.000 A 
ATOM     22  C   UNL     1       1.652   8.092  21.545  0.00  0.00    +0.000 A 
ATOM     23  C   UNL     1       1.777   8.017  20.157  0.00  0.00    +0.000 A 
ATOM     24  C   UNL     1       1.117   8.965  19.366  0.00  0.00    +0.000 A 
BRANCH  19  25
ATOM     25  C   UNL     1      -0.410  11.064  18.993  0.00  0.00    +0.000 C 
ATOM     26  C   UNL     1      -1.153  12.238  19.692  0.00  0.00    +0.000 C 
ATOM     27  O   UNL     1      -0.336  13.228  19.030  0.00  0.00    +0.000 OA
ATOM     28  C   UNL     1       0.478  12.207  18.426  0.00  0.00    +0.000 C 
BRANCH  25  29
ATOM     29  C   UNL     1      -1.214  10.333  17.895  0.00  0.00    +0.000 C 
BRANCH  29  35
ATOM     30  C   UNL     1      -2.864  10.632  15.200  0.00  0.00    +0.000 C 
ATOM     31  N   UNL     1      -3.274  11.008  16.524  0.00  0.00    +0.000 N 
ATOM     32  C   UNL     1      -4.465  11.589  16.836  0.00  0.00    +0.000 A 
ATOM     33  N   UNL     1      -4.553  11.758  18.129  0.00  0.00    +0.000 NA
ATOM     34  N   UNL     1      -3.377  11.312  18.683  0.00  0.00    +0.000 NA
ATOM     35  C   UNL     1      -2.597  10.871  17.714  0.00  0.00    +0.000 A 
ENDBRANCH  29  35
ENDBRANCH  25  29
ENDBRANCH  19  25
ENDBRANCH   1  23
TORSDOF 6
ENDMDL
MODEL 9
REMARK VINA RESULT:      -7.8      2.529      3.410
REMARK  Name = 
REMARK  7 active torsions:
REMARK  status: ('A' for Active; 'I' for Inactive)
REMARK    1  A    between atoms: C_1  and  N_2
REMARK    2  A    between atoms: C_6  and  C_7
REMARK    3  A    between atoms: C_7  and  C_8
REMARK    4  A    between atoms: C_8  and  C_9
REMARK    5  A    between atoms: C_13  and  N_14
REMARK    6  A    between atoms: C_15  and  C_17
REMARK    7  A    between atoms: C_18  and  C_19
REMARK                            x       y       z     vdW  Elec       q    Type
REMARK                         _______ _______ _______ _____ _____    ______ ____
ROOT
ATOM      1  N   UNL     1       2.151   6.749  19.483  0.00  0.00    +0.000 N 
ATOM      2  C   UNL     1       2.507   5.539  20.050  0.00  0.00    +0.000 C 
ATOM      3  O   UNL     1       2.470   5.233  21.234  0.00  0.00    +0.000 OA
ATOM      4  H   UNL     1       2.278   6.877  18.487  0.00  0.00    +0.000 HD
ENDROOT
BRANCH   2   5
ATOM      5  C   UNL     1       3.045   4.548  19.081  0.00  0.00    +0.000 A 
ATOM      6  C   UNL     1       2.287   3.432  18.691  0.00  0.00    +0.000 A 
ATOM      7  C   UNL     1       2.778   2.633  17.642  0.00  0.00    +0.000 A 
ATOM      8  C   UNL     1       3.999   2.913  17.031  0.00  0.00    +0.000 A 
ATOM      9  C   UNL     1       4.795   3.970  17.490  0.00  0.00    +0.000 A 
ATOM     10  C   UNL     1       4.334   4.772  18.544  0.00  0.00    +0.000 A 
ATOM     11  C   UNL     1       5.256   5.826  19.109  0.00  0.00    +0.000 C 
ATOM     12  C   UNL     1       6.702   5.808  18.604  0.00  0.00    +0.000 C 
ATOM     13  O   UNL     1       7.069   4.671  17.832  0.00  0.00    +0.000 OA
ATOM     14  C   UNL     1       6.111   4.306  16.845  0.00  0.00    +0.000 C 
BRANCH   6  15
ATOM     15  C   UNL     1       0.993   3.033  19.359  0.00  0.00    +0.000 C 
ATOM     16  F   UNL     1       0.188   2.212  18.638  0.00  0.00    +0.000 F 
ATOM     17  F   UNL     1       1.216   2.392  20.539  0.00  0.00    +0.000 F 
ATOM     18  F   UNL     1       0.218   4.113  19.663  0.00  0.00    +0.000 F 
ENDBRANCH   6  15
ENDBRANCH   2   5
BRANCH   1  23
ATOM     19  C   UNL     1       0.241   9.890  20.012  0.00  0.00    +0.000 A 
ATOM     20  C   UNL     1       0.448  10.085  21.392  0.00  0.00    +0.000 A 
ATOM     21  C   UNL     1       1.189   9.183  22.149  0.00  0.00    +0.000 A 
ATOM     22  C   UNL     1       1.764   8.068  21.544  0.00  0.00    +0.000 A 
ATOM     23  C   UNL     1       1.600   7.847  20.176  0.00  0.00    +0.000 A 
ATOM     24  C   UNL     1       0.840   8.754  19.429  0.00  0.00    +0.000 A 
BRANCH  19  25
ATOM     25  C   UNL     1      -0.627  10.906  19.131  0.00  0.00    +0.000 C 
ATOM     26  C   UNL     1      -1.390  12.037  19.878  0.00  0.00    +0.000 C 
ATOM     27  O   UNL     1      -0.679  13.072  19.164  0.00  0.00    +0.000 OA
ATOM     28  C   UNL     1       0.153  12.098  18.507  0.00  0.00    +0.000 C 
BRANCH  25  29
ATOM     29  C   UNL     1      -1.457  10.126  18.088  0.00  0.00    +0.000 C 
BRANCH  29  35
ATOM     30  C   UNL     1      -2.801  10.542  15.243  0.00  0.00    +0.000 C 
ATOM     31  N   UNL     1      -3.311  10.952  16.521  0.00  0.00    +0.000 N 
ATOM     32  C   UNL     1      -4.480  11.624  16.716  0.00  0.00    +0.000 A 
ATOM     33  N   UNL     1      -4.684  11.803  17.993  0.00  0.00    +0.000 NA
ATOM     34  N   UNL     1      -3.606  11.269  18.661  0.00  0.00    +0.000 NA
ATOM     35  C   UNL     1      -2.770  10.767  17.772  0.00  0.00    +0.000 A 
ENDBRANCH  29  35
ENDBRANCH  25  29
ENDBRANCH  19  25
ENDBRANCH   1  23
TORSDOF 6
ENDMDL
