MODEL 1
REMARK VINA RESULT:      -8.4      0.000      0.000
REMARK  Name = 
REMARK  5 active torsions:
REMARK  status: ('A' for Active; 'I' for Inactive)
REMARK    1  A    between atoms: C_2  and  C_17
REMARK    2  A    between atoms: N_3  and  C_4
REMARK    3  A    between atoms: C_4  and  C_5
REMARK    4  A    between atoms: C_5  and  O_6
REMARK    5  A    between atoms: O_6  and  C_7
REMARK                            x       y       z     vdW  Elec       q    Type
REMARK                         _______ _______ _______ _____ _____    ______ ____
ROOT
ATOM      1  O   UNL     1       5.689   5.485  19.348  0.00  0.00    +0.000 OA
ATOM      2  C   UNL     1       5.137   4.914  18.413  0.00  0.00    +0.000 C 
ATOM      3  N   UNL     1       3.940   4.252  18.553  0.00  0.00    +0.000 N 
ATOM      4  H   UNL     1       3.604   3.699  17.763  0.00  0.00    +0.000 HD
ENDROOT
BRANCH   2   5
ATOM      5  C   UNL     1       5.731   4.896  17.047  0.00  0.00    +0.000 A 
ATOM      6  C   UNL     1       6.870   5.572  16.840  0.00  0.00    +0.000 A 
ATOM      7  N   UNL     1       7.545   5.656  15.653  0.00  0.00    +0.000 NA
ATOM      8  C   UNL     1       7.050   5.012  14.642  0.00  0.00    +0.000 A 
ATOM      9  C   UNL     1       7.763   5.065  13.336  0.00  0.00    +0.000 A 
ATOM     10  C   UNL     1       7.279   4.396  12.283  0.00  0.00    +0.000 A 
ATOM     11  C   UNL     1       6.068   3.628  12.402  0.00  0.00    +0.000 A 
ATOM     12  C   UNL     1       5.416   3.587  13.571  0.00  0.00    +0.000 A 
ATOM     13  N   UNL     1       5.880   4.263  14.695  0.00  0.00    +0.000 N 
ATOM     14  C   UNL     1       5.157   4.183  15.882  0.00  0.00    +0.000 A 
ATOM     15  O   UNL     1       4.096   3.563  16.003  0.00  0.00    +0.000 OA
ENDBRANCH   2   5
BRANCH   3  16
ATOM     16  C   UNL     1       3.280   4.110  19.839  0.00  0.00    +0.000 C 
BRANCH  16  17
ATOM     17  C   UNL     1       2.038   4.992  19.951  0.00  0.00    +0.000 C 
BRANCH  17  18
ATOM     18  O   UNL     1       2.415   6.265  20.477  0.00  0.00    +0.000 OA
BRANCH  18  19
ATOM     19  C   UNL     1       2.122   7.374  19.717  0.00  0.00    +0.000 A 
ATOM     20  C   UNL     1       2.547   7.544  18.393  0.00  0.00    +0.000 A 
ATOM     21  C   UNL     1       2.197   8.687  17.678  0.00  0.00    +0.000 A 
ATOM     22  C   UNL     1       1.416   9.671  18.275  0.00  0.00    +0.000 A 
ATOM     23  C   UNL     1       0.977   9.532  19.598  0.00  0.00    +0.000 A 
ATOM     24  C   UNL     1       0.180  10.529  20.187  0.00  0.00    +0.000 A 
ATOM     25  C   UNL     1      -0.264  10.406  21.503  0.00  0.00    +0.000 A 
ATOM     26  C   UNL     1       0.090   9.290  22.249  0.00  0.00    +0.000 A 
ATOM     27  C   UNL     1       0.880   8.289  21.676  0.00  0.00    +0.000 A 
ATOM     28  C   UNL     1       1.335   8.380  20.341  0.00  0.00    +0.000 A 
ENDBRANCH  18  19
ENDBRANCH  17  18
ENDBRANCH  16  17
ENDBRANCH   3  16
TORSDOF 5
ENDMDL
MODEL 2
REMARK VINA RESULT:      -8.3      5.241      7.502
REMARK  Name = 
REMARK  5 active torsions:
REMARK  status: ('A' for Active; 'I' for Inactive)
REMARK    1  A    between atoms: C_2  and  C_17
REMARK    2  A    between atoms: N_3  and  C_4
REMARK    3  A    between atoms: C_4  and  C_5
REMARK    4  A    between atoms: C_5  and  O_6
REMARK    5  A    between atoms: O_6  and  C_7
REMARK                            x       y       z     vdW  Elec       q    Type
REMARK                         _______ _______ _______ _____ _____    ______ ____
ROOT
ATOM      1  O   UNL     1       5.687   6.806  16.173  0.00  0.00    +0.000 OA
ATOM      2  C   UNL     1       5.721   6.624  17.386  0.00  0.00    +0.000 C 
ATOM      3  N   UNL     1       6.781   7.026  18.164  0.00  0.00    +0.000 N 
ATOM      4  H   UNL     1       6.795   6.733  19.142  0.00  0.00    +0.000 HD
ENDROOT
BRANCH   2   5
ATOM      5  C   UNL     1       4.607   5.948  18.108  0.00  0.00    +0.000 A 
ATOM      6  C   UNL     1       3.375   6.466  18.004  0.00  0.00    +0.000 A 
ATOM      7  N   UNL     1       2.247   5.970  18.598  0.00  0.00    +0.000 NA
ATOM      8  C   UNL     1       2.376   4.894  19.311  0.00  0.00    +0.000 A 
ATOM      9  C   UNL     1       1.169   4.313  19.961  0.00  0.00    +0.000 A 
ATOM     10  C   UNL     1       1.275   3.195  20.689  0.00  0.00    +0.000 A 
ATOM     11  C   UNL     1       2.552   2.552  20.852  0.00  0.00    +0.000 A 
ATOM     12  C   UNL     1       3.643   3.076  20.281  0.00  0.00    +0.000 A 
ATOM     13  N   UNL     1       3.584   4.236  19.513  0.00  0.00    +0.000 N 
ATOM     14  C   UNL     1       4.752   4.733  18.944  0.00  0.00    +0.000 A 
ATOM     15  O   UNL     1       5.867   4.224  19.098  0.00  0.00    +0.000 OA
ENDBRANCH   2   5
BRANCH   3  16
ATOM     16  C   UNL     1       7.977   7.623  17.594  0.00  0.00    +0.000 C 
BRANCH  16  17
ATOM     17  C   UNL     1       8.023   9.135  17.804  0.00  0.00    +0.000 C 
BRANCH  17  18
ATOM     18  O   UNL     1       8.879   9.427  18.910  0.00  0.00    +0.000 OA
BRANCH  18  19
ATOM     19  C   UNL     1       9.554  10.626  18.886  0.00  0.00    +0.000 A 
ATOM     20  C   UNL     1      10.287  11.083  17.783  0.00  0.00    +0.000 A 
ATOM     21  C   UNL     1      10.932  12.317  17.825  0.00  0.00    +0.000 A 
ATOM     22  C   UNL     1      10.849  13.110  18.965  0.00  0.00    +0.000 A 
ATOM     23  C   UNL     1      10.125  12.680  20.085  0.00  0.00    +0.000 A 
ATOM     24  C   UNL     1      10.040  13.493  21.228  0.00  0.00    +0.000 A 
ATOM     25  C   UNL     1       9.325  13.079  22.351  0.00  0.00    +0.000 A 
ATOM     26  C   UNL     1       8.693  11.843  22.349  0.00  0.00    +0.000 A 
ATOM     27  C   UNL     1       8.767  11.024  21.218  0.00  0.00    +0.000 A 
ATOM     28  C   UNL     1       9.474  11.421  20.061  0.00  0.00    +0.000 A 
ENDBRANCH  18  19
ENDBRANCH  17  18
ENDBRANCH  16  17
ENDBRANCH   3  16
TORSDOF 5
ENDMDL
MODEL 3
REMARK VINA RESULT:      -8.1      5.736      8.012
REMARK  Name = 
REMARK  5 active torsions:
REMARK  status: ('A' for Active; 'I' for Inactive)
REMARK    1  A    between atoms: C_2  and  C_17
REMARK    2  A    between atoms: N_3  and  C_4
REMARK    3  A    between atoms: C_4  and  C_5
REMARK    4  A    between atoms: C_5  and  O_6
REMARK    5  A    between atoms: O_6  and  C_7
REMARK                            x       y       z     vdW  Elec       q    Type
REMARK                         _______ _______ _______ _____ _____    ______ ____
ROOT
ATOM      1  O   UNL     1       7.380   6.371  16.071  0.00  0.00    +0.000 OA
ATOM      2  C   UNL     1       6.924   6.592  17.189  0.00  0.00    +0.000 C 
ATOM      3  N   UNL     1       7.306   7.677  17.942  0.00  0.00    +0.000 N 
ATOM      4  H   UNL     1       6.978   7.728  18.908  0.00  0.00    +0.000 HD
ENDROOT
BRANCH   2   5
ATOM      5  C   UNL     1       5.917   5.691  17.816  0.00  0.00    +0.000 A 
ATOM      6  C   UNL     1       6.353   4.718  18.628  0.00  0.00    +0.000 A 
ATOM      7  N   UNL     1       5.566   3.810  19.282  0.00  0.00    +0.000 NA
ATOM      8  C   UNL     1       4.283   3.910  19.116  0.00  0.00    +0.000 A 
ATOM      9  C   UNL     1       3.390   2.951  19.824  0.00  0.00    +0.000 A 
ATOM     10  C   UNL     1       2.062   3.044  19.680  0.00  0.00    +0.000 A 
ATOM     11  C   UNL     1       1.491   4.062  18.840  0.00  0.00    +0.000 A 
ATOM     12  C   UNL     1       2.289   4.919  18.192  0.00  0.00    +0.000 A 
ATOM     13  N   UNL     1       3.675   4.866  18.310  0.00  0.00    +0.000 N 
ATOM     14  C   UNL     1       4.452   5.783  17.611  0.00  0.00    +0.000 A 
ATOM     15  O   UNL     1       3.992   6.644  16.854  0.00  0.00    +0.000 OA
ENDBRANCH   2   5
BRANCH   3  16
ATOM     16  C   UNL     1       8.340   8.599  17.503  0.00  0.00    +0.000 C 
BRANCH  16  17
ATOM     17  C   UNL     1       8.327   9.901  18.301  0.00  0.00    +0.000 C 
BRANCH  17  18
ATOM     18  O   UNL     1       9.453   9.920  19.181  0.00  0.00    +0.000 OA
BRANCH  18  19
ATOM     19  C   UNL     1       9.690  11.084  19.876  0.00  0.00    +0.000 A 
ATOM     20  C   UNL     1       9.139  11.366  21.132  0.00  0.00    +0.000 A 
ATOM     21  C   UNL     1       9.437  12.560  21.784  0.00  0.00    +0.000 A 
ATOM     22  C   UNL     1      10.292  13.484  21.192  0.00  0.00    +0.000 A 
ATOM     23  C   UNL     1      10.859  13.232  19.935  0.00  0.00    +0.000 A 
ATOM     24  C   UNL     1      11.728  14.168  19.351  0.00  0.00    +0.000 A 
ATOM     25  C   UNL     1      12.299  13.934  18.101  0.00  0.00    +0.000 A 
ATOM     26  C   UNL     1      12.000  12.764  17.415  0.00  0.00    +0.000 A 
ATOM     27  C   UNL     1      11.138  11.822  17.985  0.00  0.00    +0.000 A 
ATOM     28  C   UNL     1      10.554  12.027  19.255  0.00  0.00    +0.000 A 
ENDBRANCH  18  19
ENDBRANCH  17  18
ENDBRANCH  16  17
ENDBRANCH   3  16
TORSDOF 5
ENDMDL
MODEL 4
REMARK VINA RESULT:      -8.1      2.316      7.408
REMARK  Name = 
REMARK  5 active torsions:
REMARK  status: ('A' for Active; 'I' for Inactive)
REMARK    1  A    between atoms: C_2  and  C_17
REMARK    2  A    between atoms: N_3  and  C_4
REMARK    3  A    between atoms: C_4  and  C_5
REMARK    4  A    between atoms: C_5  and  O_6
REMARK    5  A    between atoms: O_6  and  C_7
REMARK                            x       y       z     vdW  Elec       q    Type
REMARK                         _______ _______ _______ _____ _____    ______ ____
ROOT
ATOM      1  O   UNL     1       2.395   4.440  21.583  0.00  0.00    +0.000 OA
ATOM      2  C   UNL     1       2.017   4.866  20.497  0.00  0.00    +0.000 C 
ATOM      3  N   UNL     1       1.801   4.045  19.415  0.00  0.00    +0.000 N 
ATOM      4  H   UNL     1       1.607   4.484  18.513  0.00  0.00    +0.000 HD
ENDROOT
BRANCH   2   5
ATOM      5  C   UNL     1       1.763   6.316  20.270  0.00  0.00    +0.000 A 
ATOM      6  C   UNL     1       1.156   7.014  21.241  0.00  0.00    +0.000 A 
ATOM      7  N   UNL     1       0.853   8.348  21.196  0.00  0.00    +0.000 NA
ATOM      8  C   UNL     1       1.196   8.998  20.127  0.00  0.00    +0.000 A 
ATOM      9  C   UNL     1       0.898  10.455  20.045  0.00  0.00    +0.000 A 
ATOM     10  C   UNL     1       1.256  11.151  18.960  0.00  0.00    +0.000 A 
ATOM     11  C   UNL     1       1.924  10.498  17.866  0.00  0.00    +0.000 A 
ATOM     12  C   UNL     1       2.185   9.186  17.928  0.00  0.00    +0.000 A 
ATOM     13  N   UNL     1       1.834   8.420  19.036  0.00  0.00    +0.000 N 
ATOM     14  C   UNL     1       2.130   7.060  19.043  0.00  0.00    +0.000 A 
ATOM     15  O   UNL     1       2.669   6.466  18.103  0.00  0.00    +0.000 OA
ENDBRANCH   2   5
BRANCH   3  16
ATOM     16  C   UNL     1       2.085   2.621  19.455  0.00  0.00    +0.000 C 
BRANCH  16  17
ATOM     17  C   UNL     1       3.478   2.296  18.919  0.00  0.00    +0.000 C 
BRANCH  17  18
ATOM     18  O   UNL     1       3.765   3.156  17.815  0.00  0.00    +0.000 OA
BRANCH  18  19
ATOM     19  C   UNL     1       4.881   3.956  17.912  0.00  0.00    +0.000 A 
ATOM     20  C   UNL     1       5.366   4.469  19.122  0.00  0.00    +0.000 A 
ATOM     21  C   UNL     1       6.512   5.259  19.147  0.00  0.00    +0.000 A 
ATOM     22  C   UNL     1       7.189   5.545  17.965  0.00  0.00    +0.000 A 
ATOM     23  C   UNL     1       6.728   5.049  16.738  0.00  0.00    +0.000 A 
ATOM     24  C   UNL     1       7.424   5.336  15.552  0.00  0.00    +0.000 A 
ATOM     25  C   UNL     1       6.978   4.851  14.324  0.00  0.00    +0.000 A 
ATOM     26  C   UNL     1       5.824   4.081  14.264  0.00  0.00    +0.000 A 
ATOM     27  C   UNL     1       5.121   3.786  15.437  0.00  0.00    +0.000 A 
ATOM     28  C   UNL     1       5.556   4.253  16.698  0.00  0.00    +0.000 A 
ENDBRANCH  18  19
ENDBRANCH  17  18
ENDBRANCH  16  17
ENDBRANCH   3  16
TORSDOF 5
ENDMDL
MODEL 5
REMARK VINA RESULT:      -8.0      2.686      4.536
REMARK  Name = 
REMARK  5 active torsions:
REMARK  status: ('A' for Active; 'I' for Inactive)
REMARK    1  A    between atoms: C_2  and  C_17
REMARK    2  A    between atoms: N_3  and  C_4
REMARK    3  A    between atoms: C_4  and  C_5
REMARK    4  A    between atoms: C_5  and  O_6
REMARK    5  A    between atoms: O_6  and  C_7
REMARK                            x       y       z     vdW  Elec       q    Type
REMARK                         _______ _______ _______ _____ _____    ______ ____
ROOT
ATOM      1  O   UNL     1       1.388   5.394  20.657  0.00  0.00    +0.000 OA
ATOM      2  C   UNL     1       2.140   6.116  20.010  0.00  0.00    +0.000 C 
ATOM      3  N   UNL     1       2.175   7.481  20.172  0.00  0.00    +0.000 N 
ATOM      4  H   UNL     1       2.735   8.026  19.515  0.00  0.00    +0.000 HD
ENDROOT
BRANCH   2   5
ATOM      5  C   UNL     1       3.077   5.561  18.994  0.00  0.00    +0.000 A 
ATOM      6  C   UNL     1       3.424   4.269  19.089  0.00  0.00    +0.000 A 
ATOM      7  N   UNL     1       4.267   3.605  18.241  0.00  0.00    +0.000 NA
ATOM      8  C   UNL     1       4.761   4.277  17.248  0.00  0.00    +0.000 A 
ATOM      9  C   UNL     1       5.671   3.586  16.292  0.00  0.00    +0.000 A 
ATOM     10  C   UNL     1       6.181   4.255  15.251  0.00  0.00    +0.000 A 
ATOM     11  C   UNL     1       5.860   5.643  15.052  0.00  0.00    +0.000 A 
ATOM     12  C   UNL     1       5.052   6.274  15.914  0.00  0.00    +0.000 A 
ATOM     13  N   UNL     1       4.495   5.621  17.010  0.00  0.00    +0.000 N 
ATOM     14  C   UNL     1       3.664   6.329  17.871  0.00  0.00    +0.000 A 
ATOM     15  O   UNL     1       3.401   7.530  17.746  0.00  0.00    +0.000 OA
ENDBRANCH   2   5
BRANCH   3  16
ATOM     16  C   UNL     1       1.264   8.178  21.064  0.00  0.00    +0.000 C 
BRANCH  16  17
ATOM     17  C   UNL     1       1.088   9.645  20.677  0.00  0.00    +0.000 C 
BRANCH  17  18
ATOM     18  O   UNL     1       0.211   9.730  19.553  0.00  0.00    +0.000 OA
BRANCH  18  19
ATOM     19  C   UNL     1      -0.844  10.609  19.642  0.00  0.00    +0.000 A 
ATOM     20  C   UNL     1      -1.061  11.454  20.737  0.00  0.00    +0.000 A 
ATOM     21  C   UNL     1      -2.143  12.331  20.750  0.00  0.00    +0.000 A 
ATOM     22  C   UNL     1      -3.018  12.377  19.670  0.00  0.00    +0.000 A 
ATOM     23  C   UNL     1      -2.830  11.542  18.560  0.00  0.00    +0.000 A 
ATOM     24  C   UNL     1      -3.714  11.604  17.470  0.00  0.00    +0.000 A 
ATOM     25  C   UNL     1      -3.541  10.779  16.359  0.00  0.00    +0.000 A 
ATOM     26  C   UNL     1      -2.486   9.877  16.327  0.00  0.00    +0.000 A 
ATOM     27  C   UNL     1      -1.597   9.806  17.404  0.00  0.00    +0.000 A 
ATOM     28  C   UNL     1      -1.739  10.637  18.538  0.00  0.00    +0.000 A 
ENDBRANCH  18  19
ENDBRANCH  17  18
ENDBRANCH  16  17
ENDBRANCH   3  16
TORSDOF 5
ENDMDL
MODEL 6
REMARK VINA RESULT:      -8.0      5.681      7.536
REMARK  Name = 
REMARK  5 active torsions:
REMARK  status: ('A' for Active; 'I' for Inactive)
REMARK    1  A    between atoms: C_2  and  C_17
REMARK    2  A    between atoms: N_3  and  C_4
REMARK    3  A    between atoms: C_4  and  C_5
REMARK    4  A    between atoms: C_5  and  O_6
REMARK    5  A    between atoms: O_6  and  C_7
REMARK                            x       y       z     vdW  Elec       q    Type
REMARK                         _______ _______ _______ _____ _____    ______ ____
ROOT
ATOM      1  O   UNL     1       7.455   6.047  16.206  0.00  0.00    +0.000 OA
ATOM      2  C   UNL     1       6.920   6.326  17.275  0.00  0.00    +0.000 C 
ATOM      3  N   UNL     1       7.259   7.443  18.002  0.00  0.00    +0.000 N 
ATOM      4  H   UNL     1       6.861   7.543  18.937  0.00  0.00    +0.000 HD
ENDROOT
BRANCH   2   5
ATOM      5  C   UNL     1       5.858   5.466  17.866  0.00  0.00    +0.000 A 
ATOM      6  C   UNL     1       6.229   4.458  18.668  0.00  0.00    +0.000 A 
ATOM      7  N   UNL     1       5.385   3.580  19.291  0.00  0.00    +0.000 NA
ATOM      8  C   UNL     1       4.112   3.747  19.104  0.00  0.00    +0.000 A 
ATOM      9  C   UNL     1       3.158   2.822  19.778  0.00  0.00    +0.000 A 
ATOM     10  C   UNL     1       1.840   2.984  19.612  0.00  0.00    +0.000 A 
ATOM     11  C   UNL     1       1.337   4.045  18.782  0.00  0.00    +0.000 A 
ATOM     12  C   UNL     1       2.189   4.873  18.164  0.00  0.00    +0.000 A 
ATOM     13  N   UNL     1       3.568   4.747  18.306  0.00  0.00    +0.000 N 
ATOM     14  C   UNL     1       4.403   5.637  17.638  0.00  0.00    +0.000 A 
ATOM     15  O   UNL     1       4.001   6.533  16.890  0.00  0.00    +0.000 OA
ENDBRANCH   2   5
BRANCH   3  16
ATOM     16  C   UNL     1       8.334   8.332  17.598  0.00  0.00    +0.000 C 
BRANCH  16  17
ATOM     17  C   UNL     1       8.137   9.752  18.125  0.00  0.00    +0.000 C 
BRANCH  17  18
ATOM     18  O   UNL     1       9.151  10.038  19.090  0.00  0.00    +0.000 OA
BRANCH  18  19
ATOM     19  C   UNL     1       9.893  11.182  18.904  0.00  0.00    +0.000 A 
ATOM     20  C   UNL     1      10.652  11.438  17.755  0.00  0.00    +0.000 A 
ATOM     21  C   UNL     1      11.366  12.627  17.629  0.00  0.00    +0.000 A 
ATOM     22  C   UNL     1      11.328  13.575  18.646  0.00  0.00    +0.000 A 
ATOM     23  C   UNL     1      10.579  13.348  19.809  0.00  0.00    +0.000 A 
ATOM     24  C   UNL     1      10.540  14.317  20.826  0.00  0.00    +0.000 A 
ATOM     25  C   UNL     1       9.802  14.106  21.990  0.00  0.00    +0.000 A 
ATOM     26  C   UNL     1       9.100  12.919  22.155  0.00  0.00    +0.000 A 
ATOM     27  C   UNL     1       9.128  11.946  21.151  0.00  0.00    +0.000 A 
ATOM     28  C   UNL     1       9.858  12.137  19.955  0.00  0.00    +0.000 A 
ENDBRANCH  18  19
ENDBRANCH  17  18
ENDBRANCH  16  17
ENDBRANCH   3  16
TORSDOF 5
ENDMDL
MODEL 7
REMARK VINA RESULT:      -8.0      5.262      7.592
REMARK  Name = 
REMARK  5 active torsions:
REMARK  status: ('A' for Active; 'I' for Inactive)
REMARK    1  A    between atoms: C_2  and  C_17
REMARK    2  A    between atoms: N_3  and  C_4
REMARK    3  A    between atoms: C_4  and  C_5
REMARK    4  A    between atoms: C_5  and  O_6
REMARK    5  A    between atoms: O_6  and  C_7
REMARK                            x       y       z     vdW  Elec       q    Type
REMARK                         _______ _______ _______ _____ _____    ______ ____
ROOT
ATOM      1  O   UNL     1       5.625   6.836  15.905  0.00  0.00    +0.000 OA
ATOM      2  C   UNL     1       5.640   6.746  17.128  0.00  0.00    +0.000 C 
ATOM      3  N   UNL     1       6.611   7.336  17.902  0.00  0.00    +0.000 N 
ATOM      4  H   UNL     1       6.628   7.116  18.899  0.00  0.00    +0.000 HD
ENDROOT
BRANCH   2   5
ATOM      5  C   UNL     1       4.597   5.983  17.869  0.00  0.00    +0.000 A 
ATOM      6  C   UNL     1       3.331   6.422  17.816  0.00  0.00    +0.000 A 
ATOM      7  N   UNL     1       2.257   5.840  18.433  0.00  0.00    +0.000 NA
ATOM      8  C   UNL     1       2.480   4.760  19.117  0.00  0.00    +0.000 A 
ATOM      9  C   UNL     1       1.335   4.087  19.791  0.00  0.00    +0.000 A 
ATOM     10  C   UNL     1       1.537   2.962  20.488  0.00  0.00    +0.000 A 
ATOM     11  C   UNL     1       2.857   2.401  20.596  0.00  0.00    +0.000 A 
ATOM     12  C   UNL     1       3.893   3.008  20.003  0.00  0.00    +0.000 A 
ATOM     13  N   UNL     1       3.733   4.178  19.264  0.00  0.00    +0.000 N 
ATOM     14  C   UNL     1       4.848   4.763  18.671  0.00  0.00    +0.000 A 
ATOM     15  O   UNL     1       5.997   4.324  18.778  0.00  0.00    +0.000 OA
ENDBRANCH   2   5
BRANCH   3  16
ATOM     16  C   UNL     1       7.740   8.042  17.321  0.00  0.00    +0.000 C 
BRANCH  16  17
ATOM     17  C   UNL     1       8.414   8.976  18.323  0.00  0.00    +0.000 C 
BRANCH  17  18
ATOM     18  O   UNL     1       8.435  10.300  17.786  0.00  0.00    +0.000 OA
BRANCH  18  19
ATOM     19  C   UNL     1       9.238  11.224  18.417  0.00  0.00    +0.000 A 
ATOM     20  C   UNL     1      10.374  10.885  19.162  0.00  0.00    +0.000 A 
ATOM     21  C   UNL     1      11.150  11.876  19.760  0.00  0.00    +0.000 A 
ATOM     22  C   UNL     1      10.802  13.215  19.617  0.00  0.00    +0.000 A 
ATOM     23  C   UNL     1       9.669  13.586  18.879  0.00  0.00    +0.000 A 
ATOM     24  C   UNL     1       9.333  14.943  18.734  0.00  0.00    +0.000 A 
ATOM     25  C   UNL     1       8.209  15.328  18.004  0.00  0.00    +0.000 A 
ATOM     26  C   UNL     1       7.403  14.362  17.418  0.00  0.00    +0.000 A 
ATOM     27  C   UNL     1       7.726  13.008  17.553  0.00  0.00    +0.000 A 
ATOM     28  C   UNL     1       8.865  12.587  18.276  0.00  0.00    +0.000 A 
ENDBRANCH  18  19
ENDBRANCH  17  18
ENDBRANCH  16  17
ENDBRANCH   3  16
TORSDOF 5
ENDMDL
MODEL 8
REMARK VINA RESULT:      -7.9      2.899      9.088
REMARK  Name = 
REMARK  5 active torsions:
REMARK  status: ('A' for Active; 'I' for Inactive)
REMARK    1  A    between atoms: C_2  and  C_17
REMARK    2  A    between atoms: N_3  and  C_4
REMARK    3  A    between atoms: C_4  and  C_5
REMARK    4  A    between atoms: C_5  and  O_6
REMARK    5  A    between atoms: O_6  and  C_7
REMARK                            x       y       z     vdW  Elec       q    Type
REMARK                         _______ _______ _______ _____ _____    ______ ____
ROOT
ATOM      1  O   UNL     1       2.377   9.187  17.523  0.00  0.00    +0.000 OA
ATOM      2  C   UNL     1       1.778   8.781  18.514  0.00  0.00    +0.000 C 
ATOM      3  N   UNL     1       1.927   7.502  18.995  0.00  0.00    +0.000 N 
ATOM      4  H   UNL     1       1.306   7.198  19.747  0.00  0.00    +0.000 HD
ENDROOT
BRANCH   2   5
ATOM      5  C   UNL     1       0.838   9.653  19.272  0.00  0.00    +0.000 A 
ATOM      6  C   UNL     1       0.123  10.559  18.591  0.00  0.00    +0.000 A 
ATOM      7  N   UNL     1      -0.783  11.431  19.131  0.00  0.00    +0.000 NA
ATOM      8  C   UNL     1      -0.980  11.365  20.411  0.00  0.00    +0.000 A 
ATOM      9  C   UNL     1      -1.970  12.287  21.035  0.00  0.00    +0.000 A 
ATOM     10  C   UNL     1      -2.201  12.227  22.352  0.00  0.00    +0.000 A 
ATOM     11  C   UNL     1      -1.494  11.279  23.172  0.00  0.00    +0.000 A 
ATOM     12  C   UNL     1      -0.594  10.456  22.619  0.00  0.00    +0.000 A 
ATOM     13  N   UNL     1      -0.320  10.479  21.254  0.00  0.00    +0.000 N 
ATOM     14  C   UNL     1       0.626   9.599  20.737  0.00  0.00    +0.000 A 
ATOM     15  O   UNL     1       1.274   8.802  21.422  0.00  0.00    +0.000 OA
ENDBRANCH   2   5
BRANCH   3  16
ATOM     16  C   UNL     1       2.743   6.510  18.316  0.00  0.00    +0.000 C 
BRANCH  16  17
ATOM     17  C   UNL     1       2.791   5.186  19.075  0.00  0.00    +0.000 C 
BRANCH  17  18
ATOM     18  O   UNL     1       3.712   4.308  18.425  0.00  0.00    +0.000 OA
BRANCH  18  19
ATOM     19  C   UNL     1       5.014   4.738  18.304  0.00  0.00    +0.000 A 
ATOM     20  C   UNL     1       5.783   5.200  19.380  0.00  0.00    +0.000 A 
ATOM     21  C   UNL     1       7.102   5.604  19.185  0.00  0.00    +0.000 A 
ATOM     22  C   UNL     1       7.668   5.550  17.916  0.00  0.00    +0.000 A 
ATOM     23  C   UNL     1       6.924   5.095  16.818  0.00  0.00    +0.000 A 
ATOM     24  C   UNL     1       7.509   5.036  15.542  0.00  0.00    +0.000 A 
ATOM     25  C   UNL     1       6.782   4.587  14.441  0.00  0.00    +0.000 A 
ATOM     26  C   UNL     1       5.458   4.201  14.599  0.00  0.00    +0.000 A 
ATOM     27  C   UNL     1       4.862   4.253  15.863  0.00  0.00    +0.000 A 
ATOM     28  C   UNL     1       5.577   4.692  17.001  0.00  0.00    +0.000 A 
ENDBRANCH  18  19
ENDBRANCH  17  18
ENDBRANCH  16  17
ENDBRANCH   3  16
TORSDOF 5
ENDMDL
MODEL 9
REMARK VINA RESULT:      -7.8      5.388      7.292
REMARK  Name = 
REMARK  5 active torsions:
REMARK  status: ('A' for Active; 'I' for Inactive)
REMARK    1  A    between atoms: C_2  and  C_17
REMARK    2  A    between atoms: N_3  and  C_4
REMARK    3  A    between atoms: C_4  and  C_5
REMARK    4  A    between atoms: C_5  and  O_6
REMARK    5  A    between atoms: O_6  and  C_7
REMARK                            x       y       z     vdW  Elec       q    Type
REMARK                         _______ _______ _______ _____ _____    ______ ____
ROOT
ATOM      1  O   UNL     1       7.545   5.554  19.300  0.00  0.00    +0.000 OA
ATOM      2  C   UNL     1       6.694   5.996  18.535  0.00  0.00    +0.000 C 
ATOM      3  N   UNL     1       6.938   7.051  17.687  0.00  0.00    +0.000 N 
ATOM      4  H   UNL     1       6.148   7.441  17.171  0.00  0.00    +0.000 HD
ENDROOT
BRANCH   2   5
ATOM      5  C   UNL     1       5.323   5.417  18.470  0.00  0.00    +0.000 A 
ATOM      6  C   UNL     1       4.367   6.116  17.843  0.00  0.00    +0.000 A 
ATOM      7  N   UNL     1       3.063   5.729  17.692  0.00  0.00    +0.000 NA
ATOM      8  C   UNL     1       2.726   4.577  18.184  0.00  0.00    +0.000 A 
ATOM      9  C   UNL     1       1.319   4.112  18.027  0.00  0.00    +0.000 A 
ATOM     10  C   UNL     1       0.952   2.920  18.512  0.00  0.00    +0.000 A 
ATOM     11  C   UNL     1       1.906   2.086  19.192  0.00  0.00    +0.000 A 
ATOM     12  C   UNL     1       3.169   2.503  19.347  0.00  0.00    +0.000 A 
ATOM     13  N   UNL     1       3.601   3.733  18.858  0.00  0.00    +0.000 N 
ATOM     14  C   UNL     1       4.925   4.113  19.051  0.00  0.00    +0.000 A 
ATOM     15  O   UNL     1       5.756   3.434  19.662  0.00  0.00    +0.000 OA
ENDBRANCH   2   5
BRANCH   3  16
ATOM     16  C   UNL     1       8.198   7.774  17.694  0.00  0.00    +0.000 C 
BRANCH  16  17
ATOM     17  C   UNL     1       8.014   9.248  18.045  0.00  0.00    +0.000 C 
BRANCH  17  18
ATOM     18  O   UNL     1       8.955   9.608  19.059  0.00  0.00    +0.000 OA
BRANCH  18  19
ATOM     19  C   UNL     1       9.616  10.806  18.909  0.00  0.00    +0.000 A 
ATOM     20  C   UNL     1      10.299  11.176  17.744  0.00  0.00    +0.000 A 
ATOM     21  C   UNL     1      10.933  12.414  17.658  0.00  0.00    +0.000 A 
ATOM     22  C   UNL     1      10.889  13.296  18.732  0.00  0.00    +0.000 A 
ATOM     23  C   UNL     1      10.215  12.954  19.913  0.00  0.00    +0.000 A 
ATOM     24  C   UNL     1      10.170  13.857  20.989  0.00  0.00    +0.000 A 
ATOM     25  C   UNL     1       9.505  13.531  22.170  0.00  0.00    +0.000 A 
ATOM     26  C   UNL     1       8.886  12.295  22.295  0.00  0.00    +0.000 A 
ATOM     27  C   UNL     1       8.922  11.387  21.232  0.00  0.00    +0.000 A 
ATOM     28  C   UNL     1       9.577  11.693  20.018  0.00  0.00    +0.000 A 
ENDBRANCH  18  19
ENDBRANCH  17  18
ENDBRANCH  16  17
ENDBRANCH   3  16
TORSDOF 5
ENDMDL
