MODEL 1
REMARK VINA RESULT:      -8.8      0.000      0.000
REMARK  Name = 
REMARK  5 active torsions:
REMARK  status: ('A' for Active; 'I' for Inactive)
REMARK    1  A    between atoms: C_7  and  S_8
REMARK    2  A    between atoms: S_8  and  N_11
REMARK    3  A    between atoms: N_11  and  C_12
REMARK    4  A    between atoms: C_17  and  O_18
REMARK    5  A    between atoms: O_18  and  C_19
REMARK                            x       y       z     vdW  Elec       q    Type
REMARK                         _______ _______ _______ _____ _____    ______ ____
ROOT
ATOM      1  S   UNL     1       2.817   6.999  18.519  0.00  0.00    +0.000 S 
ATOM      2  O   UNL     1       1.966   6.194  17.667  0.00  0.00    +0.000 OA
ATOM      3  O   UNL     1       4.011   7.635  17.994  0.00  0.00    +0.000 OA
ENDROOT
BRANCH   1  10
ATOM      4  O   UNL     1      -1.877  12.192  22.455  0.00  0.00    +0.000 OA
ATOM      5  C   UNL     1      -1.112  11.312  22.069  0.00  0.00    +0.000 C 
ATOM      6  C   UNL     1      -0.499  10.304  23.013  0.00  0.00    +0.000 C 
ATOM      7  C   UNL     1      -0.264   8.963  22.338  0.00  0.00    +0.000 C 
ATOM      8  C   UNL     1       0.438   9.140  21.019  0.00  0.00    +0.000 A 
ATOM      9  C   UNL     1       1.260   8.134  20.493  0.00  0.00    +0.000 A 
ATOM     10  C   UNL     1       1.821   8.298  19.223  0.00  0.00    +0.000 A 
ATOM     11  C   UNL     1       1.527   9.431  18.454  0.00  0.00    +0.000 A 
ATOM     12  C   UNL     1       0.695  10.426  18.971  0.00  0.00    +0.000 A 
ATOM     13  C   UNL     1       0.166  10.284  20.255  0.00  0.00    +0.000 A 
ATOM     14  N   UNL     1      -0.670  11.278  20.773  0.00  0.00    +0.000 N 
ATOM     15  H   UNL     1      -0.988  12.036  20.181  0.00  0.00    +0.000 HD
ENDBRANCH   1  10
BRANCH   1  16
ATOM     16  N   UNL     1       3.297   6.116  19.889  0.00  0.00    +0.000 N 
ATOM     17  H   UNL     1       3.054   6.624  20.739  0.00  0.00    +0.000 HD
BRANCH  16  18
ATOM     18  C   UNL     1       2.912   4.734  19.963  0.00  0.00    +0.000 A 
ATOM     19  C   UNL     1       1.567   4.438  20.210  0.00  0.00    +0.000 A 
ATOM     20  C   UNL     1       1.120   3.116  20.190  0.00  0.00    +0.000 A 
ATOM     21  C   UNL     1       2.026   2.078  19.992  0.00  0.00    +0.000 A 
ATOM     22  C   UNL     1       3.379   2.364  19.818  0.00  0.00    +0.000 A 
ATOM     23  C   UNL     1       3.826   3.694  19.744  0.00  0.00    +0.000 A 
BRANCH  23  24
ATOM     24  O   UNL     1       5.139   4.032  19.461  0.00  0.00    +0.000 OA
BRANCH  24  25
ATOM     25  C   UNL     1       5.488   4.209  18.138  0.00  0.00    +0.000 A 
ATOM     26  C   UNL     1       4.603   3.952  17.084  0.00  0.00    +0.000 A 
ATOM     27  C   UNL     1       5.044   4.044  15.764  0.00  0.00    +0.000 A 
ATOM     28  C   UNL     1       6.347   4.456  15.494  0.00  0.00    +0.000 A 
ATOM     29  C   UNL     1       7.206   4.792  16.543  0.00  0.00    +0.000 A 
ATOM     30  C   UNL     1       6.777   4.670  17.868  0.00  0.00    +0.000 A 
ENDBRANCH  24  25
ENDBRANCH  23  24
ENDBRANCH  16  18
ENDBRANCH   1  16
TORSDOF 5
ENDMDL
MODEL 2
REMARK VINA RESULT:      -8.8      2.518      4.767
REMARK  Name = 
REMARK  5 active torsions:
REMARK  status: ('A' for Active; 'I' for Inactive)
REMARK    1  A    between atoms: C_7  and  S_8
REMARK    2  A    between atoms: S_8  and  N_11
REMARK    3  A    between atoms: N_11  and  C_12
REMARK    4  A    between atoms: C_17  and  O_18
REMARK    5  A    between atoms: O_18  and  C_19
REMARK                            x       y       z     vdW  Elec       q    Type
REMARK                         _______ _______ _______ _____ _____    ______ ____
ROOT
ATOM      1  S   UNL     1       4.070   3.142  18.682  0.00  0.00    +0.000 S 
ATOM      2  O   UNL     1       4.816   2.695  19.839  0.00  0.00    +0.000 OA
ATOM      3  O   UNL     1       3.068   2.292  18.066  0.00  0.00    +0.000 OA
ENDROOT
BRANCH   1  10
ATOM      4  O   UNL     1       0.758  10.380  19.757  0.00  0.00    +0.000 OA
ATOM      5  C   UNL     1       1.245   9.324  19.362  0.00  0.00    +0.000 C 
ATOM      6  C   UNL     1       1.494   9.047  17.897  0.00  0.00    +0.000 C 
ATOM      7  C   UNL     1       2.702   8.150  17.685  0.00  0.00    +0.000 C 
ATOM      8  C   UNL     1       2.638   6.942  18.581  0.00  0.00    +0.000 A 
ATOM      9  C   UNL     1       3.247   5.734  18.214  0.00  0.00    +0.000 A 
ATOM     10  C   UNL     1       3.245   4.663  19.112  0.00  0.00    +0.000 A 
ATOM     11  C   UNL     1       2.689   4.803  20.390  0.00  0.00    +0.000 A 
ATOM     12  C   UNL     1       2.096   6.012  20.762  0.00  0.00    +0.000 A 
ATOM     13  C   UNL     1       2.061   7.070  19.852  0.00  0.00    +0.000 A 
ATOM     14  N   UNL     1       1.471   8.282  20.224  0.00  0.00    +0.000 N 
ATOM     15  H   UNL     1       1.180   8.436  21.181  0.00  0.00    +0.000 HD
ENDBRANCH   1  10
BRANCH   1  16
ATOM     16  N   UNL     1       5.123   3.631  17.442  0.00  0.00    +0.000 N 
ATOM     17  H   UNL     1       4.610   3.751  16.569  0.00  0.00    +0.000 HD
BRANCH  16  18
ATOM     18  C   UNL     1       5.997   4.741  17.706  0.00  0.00    +0.000 A 
ATOM     19  C   UNL     1       6.727   4.735  18.898  0.00  0.00    +0.000 A 
ATOM     20  C   UNL     1       7.666   5.735  19.157  0.00  0.00    +0.000 A 
ATOM     21  C   UNL     1       7.829   6.785  18.258  0.00  0.00    +0.000 A 
ATOM     22  C   UNL     1       7.050   6.834  17.102  0.00  0.00    +0.000 A 
ATOM     23  C   UNL     1       6.170   5.786  16.787  0.00  0.00    +0.000 A 
BRANCH  23  24
ATOM     24  O   UNL     1       5.459   5.732  15.600  0.00  0.00    +0.000 OA
BRANCH  24  25
ATOM     25  C   UNL     1       6.056   5.119  14.518  0.00  0.00    +0.000 A 
ATOM     26  C   UNL     1       7.320   5.491  14.044  0.00  0.00    +0.000 A 
ATOM     27  C   UNL     1       7.827   4.912  12.881  0.00  0.00    +0.000 A 
ATOM     28  C   UNL     1       7.105   3.916  12.229  0.00  0.00    +0.000 A 
ATOM     29  C   UNL     1       5.881   3.487  12.747  0.00  0.00    +0.000 A 
ATOM     30  C   UNL     1       5.355   4.087  13.894  0.00  0.00    +0.000 A 
ENDBRANCH  24  25
ENDBRANCH  23  24
ENDBRANCH  16  18
ENDBRANCH   1  16
TORSDOF 5
ENDMDL
MODEL 3
REMARK VINA RESULT:      -8.7      1.090      1.501
REMARK  Name = 
REMARK  5 active torsions:
REMARK  status: ('A' for Active; 'I' for Inactive)
REMARK    1  A    between atoms: C_7  and  S_8
REMARK    2  A    between atoms: S_8  and  N_11
REMARK    3  A    between atoms: N_11  and  C_12
REMARK    4  A    between atoms: C_17  and  O_18
REMARK    5  A    between atoms: O_18  and  C_19
REMARK                            x       y       z     vdW  Elec       q    Type
REMARK                         _______ _______ _______ _____ _____    ______ ____
ROOT
ATOM      1  S   UNL     1       3.003   6.885  18.516  0.00  0.00    +0.000 S 
ATOM      2  O   UNL     1       3.803   7.416  17.432  0.00  0.00    +0.000 OA
ATOM      3  O   UNL     1       3.628   6.294  19.685  0.00  0.00    +0.000 OA
ENDROOT
BRANCH   1  10
ATOM      4  O   UNL     1      -1.910  12.177  22.033  0.00  0.00    +0.000 OA
ATOM      5  C   UNL     1      -1.104  11.305  21.717  0.00  0.00    +0.000 C 
ATOM      6  C   UNL     1      -0.426  10.422  22.740  0.00  0.00    +0.000 C 
ATOM      7  C   UNL     1      -0.130   9.038  22.189  0.00  0.00    +0.000 C 
ATOM      8  C   UNL     1       0.546   9.126  20.847  0.00  0.00    +0.000 A 
ATOM      9  C   UNL     1       1.413   8.119  20.403  0.00  0.00    +0.000 A 
ATOM     10  C   UNL     1       1.949   8.192  19.114  0.00  0.00    +0.000 A 
ATOM     11  C   UNL     1       1.586   9.231  18.248  0.00  0.00    +0.000 A 
ATOM     12  C   UNL     1       0.709  10.226  18.684  0.00  0.00    +0.000 A 
ATOM     13  C   UNL     1       0.205  10.178  19.985  0.00  0.00    +0.000 A 
ATOM     14  N   UNL     1      -0.676  11.172  20.422  0.00  0.00    +0.000 N 
ATOM     15  H   UNL     1      -1.042  11.854  19.769  0.00  0.00    +0.000 HD
ENDBRANCH   1  10
BRANCH   1  16
ATOM     16  N   UNL     1       1.886   5.746  17.932  0.00  0.00    +0.000 N 
ATOM     17  H   UNL     1       1.886   5.742  16.913  0.00  0.00    +0.000 HD
BRANCH  16  18
ATOM     18  C   UNL     1       1.944   4.416  18.473  0.00  0.00    +0.000 A 
ATOM     19  C   UNL     1       1.211   4.144  19.633  0.00  0.00    +0.000 A 
ATOM     20  C   UNL     1       1.150   2.845  20.141  0.00  0.00    +0.000 A 
ATOM     21  C   UNL     1       1.876   1.825  19.534  0.00  0.00    +0.000 A 
ATOM     22  C   UNL     1       2.667   2.107  18.420  0.00  0.00    +0.000 A 
ATOM     23  C   UNL     1       2.664   3.388  17.846  0.00  0.00    +0.000 A 
BRANCH  23  24
ATOM     24  O   UNL     1       3.341   3.690  16.676  0.00  0.00    +0.000 OA
BRANCH  24  25
ATOM     25  C   UNL     1       4.684   3.990  16.767  0.00  0.00    +0.000 A 
ATOM     26  C   UNL     1       5.347   4.113  17.995  0.00  0.00    +0.000 A 
ATOM     27  C   UNL     1       6.679   4.525  18.031  0.00  0.00    +0.000 A 
ATOM     28  C   UNL     1       7.369   4.749  16.841  0.00  0.00    +0.000 A 
ATOM     29  C   UNL     1       6.732   4.548  15.615  0.00  0.00    +0.000 A 
ATOM     30  C   UNL     1       5.388   4.166  15.576  0.00  0.00    +0.000 A 
ENDBRANCH  24  25
ENDBRANCH  23  24
ENDBRANCH  16  18
ENDBRANCH   1  16
TORSDOF 5
ENDMDL
MODEL 4
REMARK VINA RESULT:      -8.3      1.265      2.133
REMARK  Name = 
REMARK  5 active torsions:
REMARK  status: ('A' for Active; 'I' for Inactive)
REMARK    1  A    between atoms: C_7  and  S_8
REMARK    2  A    between atoms: S_8  and  N_11
REMARK    3  A    between atoms: N_11  and  C_12
REMARK    4  A    between atoms: C_17  and  O_18
REMARK    5  A    between atoms: O_18  and  C_19
REMARK                            x       y       z     vdW  Elec       q    Type
REMARK                         _______ _______ _______ _____ _____    ______ ____
ROOT
ATOM      1  S   UNL     1       2.933   6.896  18.621  0.00  0.00    +0.000 S 
ATOM      2  O   UNL     1       3.623   7.627  17.578  0.00  0.00    +0.000 OA
ATOM      3  O   UNL     1       3.672   6.211  19.665  0.00  0.00    +0.000 OA
ENDROOT
BRANCH   1  10
ATOM      4  O   UNL     1      -1.943  12.589  21.504  0.00  0.00    +0.000 OA
ATOM      5  C   UNL     1      -1.271  11.795  20.851  0.00  0.00    +0.000 C 
ATOM      6  C   UNL     1      -1.231  11.821  19.341  0.00  0.00    +0.000 C 
ATOM      7  C   UNL     1       0.113  11.363  18.800  0.00  0.00    +0.000 C 
ATOM      8  C   UNL     1       0.541  10.073  19.446  0.00  0.00    +0.000 A 
ATOM      9  C   UNL     1       1.374   9.167  18.776  0.00  0.00    +0.000 A 
ATOM     10  C   UNL     1       1.825   8.024  19.443  0.00  0.00    +0.000 A 
ATOM     11  C   UNL     1       1.496   7.806  20.787  0.00  0.00    +0.000 A 
ATOM     12  C   UNL     1       0.680   8.717  21.460  0.00  0.00    +0.000 A 
ATOM     13  C   UNL     1       0.195   9.837  20.784  0.00  0.00    +0.000 A 
ATOM     14  N   UNL     1      -0.620  10.753  21.458  0.00  0.00    +0.000 N 
ATOM     15  H   UNL     1      -0.760  10.672  22.458  0.00  0.00    +0.000 HD
ENDBRANCH   1  10
BRANCH   1  16
ATOM     16  N   UNL     1       1.869   5.756  17.948  0.00  0.00    +0.000 N 
ATOM     17  H   UNL     1       1.894   5.807  16.930  0.00  0.00    +0.000 HD
BRANCH  16  18
ATOM     18  C   UNL     1       1.958   4.400  18.418  0.00  0.00    +0.000 A 
ATOM     19  C   UNL     1       1.228   4.049  19.558  0.00  0.00    +0.000 A 
ATOM     20  C   UNL     1       1.197   2.724  19.996  0.00  0.00    +0.000 A 
ATOM     21  C   UNL     1       1.951   1.757  19.340  0.00  0.00    +0.000 A 
ATOM     22  C   UNL     1       2.738   2.116  18.247  0.00  0.00    +0.000 A 
ATOM     23  C   UNL     1       2.706   3.426  17.741  0.00  0.00    +0.000 A 
BRANCH  23  24
ATOM     24  O   UNL     1       3.380   3.806  16.593  0.00  0.00    +0.000 OA
BRANCH  24  25
ATOM     25  C   UNL     1       4.733   4.058  16.692  0.00  0.00    +0.000 A 
ATOM     26  C   UNL     1       5.384   4.201  17.924  0.00  0.00    +0.000 A 
ATOM     27  C   UNL     1       6.730   4.563  17.964  0.00  0.00    +0.000 A 
ATOM     28  C   UNL     1       7.443   4.717  16.777  0.00  0.00    +0.000 A 
ATOM     29  C   UNL     1       6.815   4.495  15.550  0.00  0.00    +0.000 A 
ATOM     30  C   UNL     1       5.458   4.163  15.506  0.00  0.00    +0.000 A 
ENDBRANCH  24  25
ENDBRANCH  23  24
ENDBRANCH  16  18
ENDBRANCH   1  16
TORSDOF 5
ENDMDL
MODEL 5
REMARK VINA RESULT:      -8.3      0.854      1.265
REMARK  Name = 
REMARK  5 active torsions:
REMARK  status: ('A' for Active; 'I' for Inactive)
REMARK    1  A    between atoms: C_7  and  S_8
REMARK    2  A    between atoms: S_8  and  N_11
REMARK    3  A    between atoms: N_11  and  C_12
REMARK    4  A    between atoms: C_17  and  O_18
REMARK    5  A    between atoms: O_18  and  C_19
REMARK                            x       y       z     vdW  Elec       q    Type
REMARK                         _______ _______ _______ _____ _____    ______ ____
ROOT
ATOM      1  S   UNL     1       2.301   7.622  18.602  0.00  0.00    +0.000 S 
ATOM      2  O   UNL     1       1.555   6.745  17.723  0.00  0.00    +0.000 OA
ATOM      3  O   UNL     1       3.519   8.270  18.151  0.00  0.00    +0.000 OA
ENDROOT
BRANCH   1  10
ATOM      4  O   UNL     1      -2.605  13.024  21.956  0.00  0.00    +0.000 OA
ATOM      5  C   UNL     1      -1.763  12.179  21.661  0.00  0.00    +0.000 C 
ATOM      6  C   UNL     1      -0.856  11.547  22.692  0.00  0.00    +0.000 C 
ATOM      7  C   UNL     1      -0.494  10.117  22.330  0.00  0.00    +0.000 C 
ATOM      8  C   UNL     1      -0.028  10.026  20.901  0.00  0.00    +0.000 A 
ATOM      9  C   UNL     1       0.870   9.031  20.494  0.00  0.00    +0.000 A 
ATOM     10  C   UNL     1       1.207   8.921  19.141  0.00  0.00    +0.000 A 
ATOM     11  C   UNL     1       0.616   9.760  18.188  0.00  0.00    +0.000 A 
ATOM     12  C   UNL     1      -0.292  10.741  18.592  0.00  0.00    +0.000 A 
ATOM     13  C   UNL     1      -0.599  10.879  19.947  0.00  0.00    +0.000 A 
ATOM     14  N   UNL     1      -1.511  11.858  20.353  0.00  0.00    +0.000 N 
ATOM     15  H   UNL     1      -2.037  12.383  19.664  0.00  0.00    +0.000 HD
ENDBRANCH   1  10
BRANCH   1  16
ATOM     16  N   UNL     1       2.681   6.830  20.056  0.00  0.00    +0.000 N 
ATOM     17  H   UNL     1       2.116   7.202  20.819  0.00  0.00    +0.000 HD
BRANCH  16  18
ATOM     18  C   UNL     1       2.692   5.393  20.051  0.00  0.00    +0.000 A 
ATOM     19  C   UNL     1       1.512   4.724  20.394  0.00  0.00    +0.000 A 
ATOM     20  C   UNL     1       1.438   3.333  20.306  0.00  0.00    +0.000 A 
ATOM     21  C   UNL     1       2.563   2.598  19.943  0.00  0.00    +0.000 A 
ATOM     22  C   UNL     1       3.762   3.255  19.672  0.00  0.00    +0.000 A 
ATOM     23  C   UNL     1       3.823   4.658  19.667  0.00  0.00    +0.000 A 
BRANCH  23  24
ATOM     24  O   UNL     1       4.957   5.361  19.295  0.00  0.00    +0.000 OA
BRANCH  24  25
ATOM     25  C   UNL     1       5.529   5.065  18.075  0.00  0.00    +0.000 A 
ATOM     26  C   UNL     1       6.869   4.680  17.945  0.00  0.00    +0.000 A 
ATOM     27  C   UNL     1       7.423   4.498  16.678  0.00  0.00    +0.000 A 
ATOM     28  C   UNL     1       6.624   4.634  15.545  0.00  0.00    +0.000 A 
ATOM     29  C   UNL     1       5.268   4.938  15.677  0.00  0.00    +0.000 A 
ATOM     30  C   UNL     1       4.717   5.152  16.944  0.00  0.00    +0.000 A 
ENDBRANCH  24  25
ENDBRANCH  23  24
ENDBRANCH  16  18
ENDBRANCH   1  16
TORSDOF 5
ENDMDL
MODEL 6
REMARK VINA RESULT:      -8.3      0.740      1.545
REMARK  Name = 
REMARK  5 active torsions:
REMARK  status: ('A' for Active; 'I' for Inactive)
REMARK    1  A    between atoms: C_7  and  S_8
REMARK    2  A    between atoms: S_8  and  N_11
REMARK    3  A    between atoms: N_11  and  C_12
REMARK    4  A    between atoms: C_17  and  O_18
REMARK    5  A    between atoms: O_18  and  C_19
REMARK                            x       y       z     vdW  Elec       q    Type
REMARK                         _______ _______ _______ _____ _____    ______ ____
ROOT
ATOM      1  S   UNL     1       2.831   6.928  18.574  0.00  0.00    +0.000 S 
ATOM      2  O   UNL     1       1.995   6.174  17.664  0.00  0.00    +0.000 OA
ATOM      3  O   UNL     1       3.986   7.663  18.091  0.00  0.00    +0.000 OA
ENDROOT
BRANCH   1  10
ATOM      4  O   UNL     1      -1.728  12.834  21.548  0.00  0.00    +0.000 OA
ATOM      5  C   UNL     1      -1.114  12.003  20.883  0.00  0.00    +0.000 C 
ATOM      6  C   UNL     1      -1.153  11.987  19.372  0.00  0.00    +0.000 C 
ATOM      7  C   UNL     1       0.147  11.477  18.774  0.00  0.00    +0.000 C 
ATOM      8  C   UNL     1       0.574  10.193  19.434  0.00  0.00    +0.000 A 
ATOM      9  C   UNL     1       1.344   9.246  18.746  0.00  0.00    +0.000 A 
ATOM     10  C   UNL     1       1.799   8.109  19.421  0.00  0.00    +0.000 A 
ATOM     11  C   UNL     1       1.537   7.936  20.786  0.00  0.00    +0.000 A 
ATOM     12  C   UNL     1       0.783   8.888  21.475  0.00  0.00    +0.000 A 
ATOM     13  C   UNL     1       0.293  10.004  20.794  0.00  0.00    +0.000 A 
ATOM     14  N   UNL     1      -0.459  10.959  21.484  0.00  0.00    +0.000 N 
ATOM     15  H   UNL     1      -0.548  10.909  22.491  0.00  0.00    +0.000 HD
ENDBRANCH   1  10
BRANCH   1  16
ATOM     16  N   UNL     1       3.379   5.939  19.842  0.00  0.00    +0.000 N 
ATOM     17  H   UNL     1       3.193   6.382  20.741  0.00  0.00    +0.000 HD
BRANCH  16  18
ATOM     18  C   UNL     1       2.981   4.559  19.833  0.00  0.00    +0.000 A 
ATOM     19  C   UNL     1       1.635   4.260  20.070  0.00  0.00    +0.000 A 
ATOM     20  C   UNL     1       1.175   2.946  19.971  0.00  0.00    +0.000 A 
ATOM     21  C   UNL     1       2.069   1.914  19.704  0.00  0.00    +0.000 A 
ATOM     22  C   UNL     1       3.424   2.198  19.539  0.00  0.00    +0.000 A 
ATOM     23  C   UNL     1       3.883   3.525  19.545  0.00  0.00    +0.000 A 
BRANCH  23  24
ATOM     24  O   UNL     1       5.198   3.868  19.275  0.00  0.00    +0.000 OA
BRANCH  24  25
ATOM     25  C   UNL     1       5.499   4.322  18.008  0.00  0.00    +0.000 A 
ATOM     26  C   UNL     1       4.791   3.911  16.872  0.00  0.00    +0.000 A 
ATOM     27  C   UNL     1       5.208   4.317  15.605  0.00  0.00    +0.000 A 
ATOM     28  C   UNL     1       6.288   5.187  15.475  0.00  0.00    +0.000 A 
ATOM     29  C   UNL     1       6.944   5.663  16.612  0.00  0.00    +0.000 A 
ATOM     30  C   UNL     1       6.549   5.232  17.882  0.00  0.00    +0.000 A 
ENDBRANCH  24  25
ENDBRANCH  23  24
ENDBRANCH  16  18
ENDBRANCH   1  16
TORSDOF 5
ENDMDL
MODEL 7
REMARK VINA RESULT:      -8.3      2.479      4.545
REMARK  Name = 
REMARK  5 active torsions:
REMARK  status: ('A' for Active; 'I' for Inactive)
REMARK    1  A    between atoms: C_7  and  S_8
REMARK    2  A    between atoms: S_8  and  N_11
REMARK    3  A    between atoms: N_11  and  C_12
REMARK    4  A    between atoms: C_17  and  O_18
REMARK    5  A    between atoms: O_18  and  C_19
REMARK                            x       y       z     vdW  Elec       q    Type
REMARK                         _______ _______ _______ _____ _____    ______ ____
ROOT
ATOM      1  S   UNL     1       2.909   2.869  17.840  0.00  0.00    +0.000 S 
ATOM      2  O   UNL     1       2.405   1.744  18.599  0.00  0.00    +0.000 OA
ATOM      3  O   UNL     1       2.516   3.072  16.458  0.00  0.00    +0.000 OA
ENDROOT
BRANCH   1  10
ATOM      4  O   UNL     1       1.219  10.095  20.911  0.00  0.00    +0.000 OA
ATOM      5  C   UNL     1       1.417   9.089  20.235  0.00  0.00    +0.000 C 
ATOM      6  C   UNL     1       1.281   9.087  18.729  0.00  0.00    +0.000 C 
ATOM      7  C   UNL     1       2.237   8.107  18.073  0.00  0.00    +0.000 C 
ATOM      8  C   UNL     1       2.168   6.759  18.740  0.00  0.00    +0.000 A 
ATOM      9  C   UNL     1       2.462   5.585  18.035  0.00  0.00    +0.000 A 
ATOM     10  C   UNL     1       2.476   4.362  18.712  0.00  0.00    +0.000 A 
ATOM     11  C   UNL     1       2.252   4.308  20.094  0.00  0.00    +0.000 A 
ATOM     12  C   UNL     1       1.975   5.481  20.800  0.00  0.00    +0.000 A 
ATOM     13  C   UNL     1       1.920   6.697  20.119  0.00  0.00    +0.000 A 
ATOM     14  N   UNL     1       1.646   7.873  20.825  0.00  0.00    +0.000 N 
ATOM     15  H   UNL     1       1.607   7.863  21.836  0.00  0.00    +0.000 HD
ENDBRANCH   1  10
BRANCH   1  16
ATOM     16  N   UNL     1       4.607   2.901  17.872  0.00  0.00    +0.000 N 
ATOM     17  H   UNL     1       4.986   2.242  17.192  0.00  0.00    +0.000 HD
BRANCH  16  18
ATOM     18  C   UNL     1       5.254   4.181  17.794  0.00  0.00    +0.000 A 
ATOM     19  C   UNL     1       5.760   4.737  18.974  0.00  0.00    +0.000 A 
ATOM     20  C   UNL     1       6.487   5.928  18.939  0.00  0.00    +0.000 A 
ATOM     21  C   UNL     1       6.651   6.607  17.736  0.00  0.00    +0.000 A 
ATOM     22  C   UNL     1       6.085   6.096  16.569  0.00  0.00    +0.000 A 
ATOM     23  C   UNL     1       5.432   4.853  16.576  0.00  0.00    +0.000 A 
BRANCH  23  24
ATOM     24  O   UNL     1       4.952   4.248  15.426  0.00  0.00    +0.000 OA
BRANCH  24  25
ATOM     25  C   UNL     1       5.768   4.235  14.314  0.00  0.00    +0.000 A 
ATOM     26  C   UNL     1       6.995   4.910  14.273  0.00  0.00    +0.000 A 
ATOM     27  C   UNL     1       7.728   4.954  13.088  0.00  0.00    +0.000 A 
ATOM     28  C   UNL     1       7.271   4.269  11.963  0.00  0.00    +0.000 A 
ATOM     29  C   UNL     1       6.089   3.529  12.027  0.00  0.00    +0.000 A 
ATOM     30  C   UNL     1       5.336   3.509  13.205  0.00  0.00    +0.000 A 
ENDBRANCH  24  25
ENDBRANCH  23  24
ENDBRANCH  16  18
ENDBRANCH   1  16
TORSDOF 5
ENDMDL
MODEL 8
REMARK VINA RESULT:      -8.1      2.348      4.005
REMARK  Name = 
REMARK  5 active torsions:
REMARK  status: ('A' for Active; 'I' for Inactive)
REMARK    1  A    between atoms: C_7  and  S_8
REMARK    2  A    between atoms: S_8  and  N_11
REMARK    3  A    between atoms: N_11  and  C_12
REMARK    4  A    between atoms: C_17  and  O_18
REMARK    5  A    between atoms: O_18  and  C_19
REMARK                            x       y       z     vdW  Elec       q    Type
REMARK                         _______ _______ _______ _____ _____    ______ ____
ROOT
ATOM      1  S   UNL     1       2.735   4.219  18.374  0.00  0.00    +0.000 S 
ATOM      2  O   UNL     1       3.436   3.506  19.421  0.00  0.00    +0.000 OA
ATOM      3  O   UNL     1       1.581   3.635  17.717  0.00  0.00    +0.000 OA
ENDROOT
BRANCH   1  10
ATOM      4  O   UNL     1       0.661  11.687  20.482  0.00  0.00    +0.000 OA
ATOM      5  C   UNL     1       0.936  10.620  19.938  0.00  0.00    +0.000 C 
ATOM      6  C   UNL     1       0.943  10.456  18.436  0.00  0.00    +0.000 C 
ATOM      7  C   UNL     1       1.972   9.435  17.980  0.00  0.00    +0.000 C 
ATOM      8  C   UNL     1       1.858   8.164  18.779  0.00  0.00    +0.000 A 
ATOM      9  C   UNL     1       2.234   6.929  18.234  0.00  0.00    +0.000 A 
ATOM     10  C   UNL     1       2.201   5.785  19.037  0.00  0.00    +0.000 A 
ATOM     11  C   UNL     1       1.848   5.872  20.390  0.00  0.00    +0.000 A 
ATOM     12  C   UNL     1       1.489   7.106  20.937  0.00  0.00    +0.000 A 
ATOM     13  C   UNL     1       1.482   8.242  20.127  0.00  0.00    +0.000 A 
ATOM     14  N   UNL     1       1.126   9.479  20.674  0.00  0.00    +0.000 N 
ATOM     15  H   UNL     1       0.991   9.575  21.673  0.00  0.00    +0.000 HD
ENDBRANCH   1  10
BRANCH   1  16
ATOM     16  N   UNL     1       3.811   4.686  17.144  0.00  0.00    +0.000 N 
ATOM     17  H   UNL     1       3.450   5.502  16.650  0.00  0.00    +0.000 HD
BRANCH  16  18
ATOM     18  C   UNL     1       5.197   4.841  17.492  0.00  0.00    +0.000 A 
ATOM     19  C   UNL     1       5.509   5.557  18.652  0.00  0.00    +0.000 A 
ATOM     20  C   UNL     1       6.830   5.649  19.091  0.00  0.00    +0.000 A 
ATOM     21  C   UNL     1       7.855   5.088  18.336  0.00  0.00    +0.000 A 
ATOM     22  C   UNL     1       7.556   4.436  17.140  0.00  0.00    +0.000 A 
ATOM     23  C   UNL     1       6.223   4.257  16.736  0.00  0.00    +0.000 A 
BRANCH  23  24
ATOM     24  O   UNL     1       5.868   3.521  15.618  0.00  0.00    +0.000 OA
BRANCH  24  25
ATOM     25  C   UNL     1       6.342   3.940  14.392  0.00  0.00    +0.000 A 
ATOM     26  C   UNL     1       5.995   3.305  13.193  0.00  0.00    +0.000 A 
ATOM     27  C   UNL     1       6.589   3.702  11.996  0.00  0.00    +0.000 A 
ATOM     28  C   UNL     1       7.476   4.776  11.983  0.00  0.00    +0.000 A 
ATOM     29  C   UNL     1       7.761   5.462  13.166  0.00  0.00    +0.000 A 
ATOM     30  C   UNL     1       7.192   5.045  14.373  0.00  0.00    +0.000 A 
ENDBRANCH  24  25
ENDBRANCH  23  24
ENDBRANCH  16  18
ENDBRANCH   1  16
TORSDOF 5
ENDMDL
MODEL 9
REMARK VINA RESULT:      -8.1      1.639      3.641
REMARK  Name = 
REMARK  5 active torsions:
REMARK  status: ('A' for Active; 'I' for Inactive)
REMARK    1  A    between atoms: C_7  and  S_8
REMARK    2  A    between atoms: S_8  and  N_11
REMARK    3  A    between atoms: N_11  and  C_12
REMARK    4  A    between atoms: C_17  and  O_18
REMARK    5  A    between atoms: O_18  and  C_19
REMARK                            x       y       z     vdW  Elec       q    Type
REMARK                         _______ _______ _______ _____ _____    ______ ____
ROOT
ATOM      1  S   UNL     1       2.443   6.117  19.255  0.00  0.00    +0.000 S 
ATOM      2  O   UNL     1       1.702   5.589  20.381  0.00  0.00    +0.000 OA
ATOM      3  O   UNL     1       2.306   5.535  17.933  0.00  0.00    +0.000 OA
ENDROOT
BRANCH   1  10
ATOM      4  O   UNL     1       0.105  13.800  19.397  0.00  0.00    +0.000 OA
ATOM      5  C   UNL     1       0.455  12.642  19.612  0.00  0.00    +0.000 C 
ATOM      6  C   UNL     1       0.525  12.064  21.007  0.00  0.00    +0.000 C 
ATOM      7  C   UNL     1       0.220  10.576  21.022  0.00  0.00    +0.000 C 
ATOM      8  C   UNL     1       1.019   9.853  19.970  0.00  0.00    +0.000 A 
ATOM      9  C   UNL     1       1.377   8.508  20.129  0.00  0.00    +0.000 A 
ATOM     10  C   UNL     1       2.038   7.845  19.090  0.00  0.00    +0.000 A 
ATOM     11  C   UNL     1       2.298   8.498  17.878  0.00  0.00    +0.000 A 
ATOM     12  C   UNL     1       1.927   9.834  17.715  0.00  0.00    +0.000 A 
ATOM     13  C   UNL     1       1.303  10.509  18.765  0.00  0.00    +0.000 A 
ATOM     14  N   UNL     1       0.928  11.847  18.601  0.00  0.00    +0.000 N 
ATOM     15  H   UNL     1       0.996  12.288  17.692  0.00  0.00    +0.000 HD
ENDBRANCH   1  10
BRANCH   1  16
ATOM     16  N   UNL     1       4.106   6.158  19.600  0.00  0.00    +0.000 N 
ATOM     17  H   UNL     1       4.305   5.625  20.446  0.00  0.00    +0.000 HD
BRANCH  16  18
ATOM     18  C   UNL     1       5.017   5.833  18.537  0.00  0.00    +0.000 A 
ATOM     19  C   UNL     1       5.347   6.838  17.622  0.00  0.00    +0.000 A 
ATOM     20  C   UNL     1       6.304   6.606  16.633  0.00  0.00    +0.000 A 
ATOM     21  C   UNL     1       6.886   5.348  16.509  0.00  0.00    +0.000 A 
ATOM     22  C   UNL     1       6.506   4.321  17.373  0.00  0.00    +0.000 A 
ATOM     23  C   UNL     1       5.613   4.568  18.428  0.00  0.00    +0.000 A 
BRANCH  23  24
ATOM     24  O   UNL     1       5.291   3.615  19.380  0.00  0.00    +0.000 OA
BRANCH  24  25
ATOM     25  C   UNL     1       4.081   2.964  19.258  0.00  0.00    +0.000 A 
ATOM     26  C   UNL     1       3.586   2.520  18.025  0.00  0.00    +0.000 A 
ATOM     27  C   UNL     1       2.309   1.966  17.945  0.00  0.00    +0.000 A 
ATOM     28  C   UNL     1       1.553   1.793  19.103  0.00  0.00    +0.000 A 
ATOM     29  C   UNL     1       2.079   2.160  20.343  0.00  0.00    +0.000 A 
ATOM     30  C   UNL     1       3.346   2.746  20.422  0.00  0.00    +0.000 A 
ENDBRANCH  24  25
ENDBRANCH  23  24
ENDBRANCH  16  18
ENDBRANCH   1  16
TORSDOF 5
ENDMDL
