MODEL 1
REMARK VINA RESULT:      -7.7      0.000      0.000
REMARK  Name = 
REMARK  5 active torsions:
REMARK  status: ('A' for Active; 'I' for Inactive)
REMARK    1  A    between atoms: C_1  and  C_2
REMARK    2  A    between atoms: C_3  and  C_4
REMARK    3  A    between atoms: N_6  and  C_7
REMARK    4  A    between atoms: C_10  and  O_11
REMARK    5  A    between atoms: N_14  and  C_15
REMARK                            x       y       z     vdW  Elec       q    Type
REMARK                         _______ _______ _______ _____ _____    ______ ____
ROOT
ATOM      1  C   UNL     1       1.738   7.368  20.777  0.00  0.00    +0.000 C 
ATOM      2  C   UNL     1       2.008   7.729  19.362  0.00  0.00    +0.000 A 
ATOM      3  C   UNL     1       1.599   8.794  18.567  0.00  0.00    +0.000 A 
ATOM      4  N   UNL     1       2.323   8.759  17.394  0.00  0.00    +0.000 NA
ATOM      5  N   UNL     1       3.147   7.722  17.431  0.00  0.00    +0.000 NA
ATOM      6  N   UNL     1       2.921   7.035  18.571  0.00  0.00    +0.000 N 
ENDROOT
BRANCH   6   7
ATOM      7  C   UNL     1       3.551   5.791  18.853  0.00  0.00    +0.000 A 
ATOM      8  C   UNL     1       4.934   5.806  19.100  0.00  0.00    +0.000 A 
ATOM      9  C   UNL     1       5.640   4.620  19.233  0.00  0.00    +0.000 A 
ATOM     10  C   UNL     1       4.960   3.411  19.151  0.00  0.00    +0.000 A 
ATOM     11  C   UNL     1       3.586   3.355  18.970  0.00  0.00    +0.000 A 
ATOM     12  N   UNL     1       3.038   2.130  18.912  0.00  0.00    +0.000 NA
ATOM     13  C   UNL     1       1.709   2.027  18.707  0.00  0.00    +0.000 A 
ATOM     14  C   UNL     1       0.878   3.112  18.548  0.00  0.00    +0.000 A 
ATOM     15  C   UNL     1       1.448   4.382  18.602  0.00  0.00    +0.000 A 
ATOM     16  C   UNL     1       2.836   4.555  18.825  0.00  0.00    +0.000 A 
ENDBRANCH   6   7
BRANCH   3  17
ATOM     17  C   UNL     1       0.626   9.872  18.823  0.00  0.00    +0.000 C 
ATOM     18  O   UNL     1       0.618  10.548  19.844  0.00  0.00    +0.000 OA
ATOM     19  N   UNL     1      -0.268  10.031  17.778  0.00  0.00    +0.000 N 
ATOM     20  H   UNL     1      -0.111   9.391  17.004  0.00  0.00    +0.000 HD
BRANCH  19  21
ATOM     21  C   UNL     1      -1.414  10.987  17.688  0.00  0.00    +0.000 C 
ATOM     22  C   UNL     1      -2.547  10.524  18.664  0.00  0.00    +0.000 C 
ATOM     23  C   UNL     1      -3.076   9.672  17.481  0.00  0.00    +0.000 C 
ATOM     24  C   UNL     1      -2.496  10.790  16.563  0.00  0.00    +0.000 C 
BRANCH  24  25
ATOM     25  O   UNL     1      -3.398  11.909  16.337  0.00  0.00    +0.000 OA
ATOM     26  H   UNL     1      -2.907  12.555  15.805  0.00  0.00    +0.000 HD
ENDBRANCH  24  25
ENDBRANCH  19  21
ENDBRANCH   3  17
TORSDOF 4
ENDMDL
MODEL 2
REMARK VINA RESULT:      -7.7      2.810      7.602
REMARK  Name = 
REMARK  5 active torsions:
REMARK  status: ('A' for Active; 'I' for Inactive)
REMARK    1  A    between atoms: C_1  and  C_2
REMARK    2  A    between atoms: C_3  and  C_4
REMARK    3  A    between atoms: N_6  and  C_7
REMARK    4  A    between atoms: C_10  and  O_11
REMARK    5  A    between atoms: N_14  and  C_15
REMARK                            x       y       z     vdW  Elec       q    Type
REMARK                         _______ _______ _______ _____ _____    ______ ____
ROOT
ATOM      1  C   UNL     1       0.973   8.171  20.812  0.00  0.00    +0.000 C 
ATOM      2  C   UNL     1       1.607   8.472  19.502  0.00  0.00    +0.000 A 
ATOM      3  C   UNL     1       2.466   7.746  18.684  0.00  0.00    +0.000 A 
ATOM      4  N   UNL     1       2.568   8.404  17.476  0.00  0.00    +0.000 NA
ATOM      5  N   UNL     1       1.821   9.498  17.521  0.00  0.00    +0.000 NA
ATOM      6  N   UNL     1       1.295   9.607  18.760  0.00  0.00    +0.000 N 
ENDROOT
BRANCH   6   7
ATOM      7  C   UNL     1       0.548  10.745  19.177  0.00  0.00    +0.000 A 
ATOM      8  C   UNL     1       1.192  11.670  20.015  0.00  0.00    +0.000 A 
ATOM      9  C   UNL     1       0.484  12.720  20.581  0.00  0.00    +0.000 A 
ATOM     10  C   UNL     1      -0.865  12.869  20.285  0.00  0.00    +0.000 A 
ATOM     11  C   UNL     1      -1.521  12.013  19.413  0.00  0.00    +0.000 A 
ATOM     12  N   UNL     1      -2.824  12.259  19.198  0.00  0.00    +0.000 NA
ATOM     13  C   UNL     1      -3.510  11.434  18.380  0.00  0.00    +0.000 A 
ATOM     14  C   UNL     1      -2.948  10.346  17.754  0.00  0.00    +0.000 A 
ATOM     15  C   UNL     1      -1.598  10.088  17.981  0.00  0.00    +0.000 A 
ATOM     16  C   UNL     1      -0.823  10.923  18.822  0.00  0.00    +0.000 A 
ENDBRANCH   6   7
BRANCH   3  17
ATOM     17  C   UNL     1       3.163   6.467  18.909  0.00  0.00    +0.000 C 
ATOM     18  O   UNL     1       4.227   6.172  18.378  0.00  0.00    +0.000 OA
ATOM     19  N   UNL     1       2.480   5.645  19.790  0.00  0.00    +0.000 N 
ATOM     20  H   UNL     1       1.618   6.052  20.144  0.00  0.00    +0.000 HD
BRANCH  19  21
ATOM     21  C   UNL     1       2.848   4.265  20.232  0.00  0.00    +0.000 C 
ATOM     22  C   UNL     1       2.017   3.224  19.408  0.00  0.00    +0.000 C 
ATOM     23  C   UNL     1       0.939   3.364  20.515  0.00  0.00    +0.000 C 
ATOM     24  C   UNL     1       2.129   3.639  21.483  0.00  0.00    +0.000 C 
BRANCH  24  25
ATOM     25  O   UNL     1       2.738   2.440  22.039  0.00  0.00    +0.000 OA
ATOM     26  H   UNL     1       2.534   1.718  21.423  0.00  0.00    +0.000 HD
ENDBRANCH  24  25
ENDBRANCH  19  21
ENDBRANCH   3  17
TORSDOF 4
ENDMDL
MODEL 3
REMARK VINA RESULT:      -7.6      3.136      7.878
REMARK  Name = 
REMARK  5 active torsions:
REMARK  status: ('A' for Active; 'I' for Inactive)
REMARK    1  A    between atoms: C_1  and  C_2
REMARK    2  A    between atoms: C_3  and  C_4
REMARK    3  A    between atoms: N_6  and  C_7
REMARK    4  A    between atoms: C_10  and  O_11
REMARK    5  A    between atoms: N_14  and  C_15
REMARK                            x       y       z     vdW  Elec       q    Type
REMARK                         _______ _______ _______ _____ _____    ______ ____
ROOT
ATOM      1  C   UNL     1       1.298   7.807  20.772  0.00  0.00    +0.000 C 
ATOM      2  C   UNL     1       1.844   8.184  19.443  0.00  0.00    +0.000 A 
ATOM      3  C   UNL     1       2.725   7.550  18.573  0.00  0.00    +0.000 A 
ATOM      4  N   UNL     1       2.715   8.234  17.376  0.00  0.00    +0.000 NA
ATOM      5  N   UNL     1       1.880   9.258  17.476  0.00  0.00    +0.000 NA
ATOM      6  N   UNL     1       1.402   9.300  18.738  0.00  0.00    +0.000 N 
ENDROOT
BRANCH   6   7
ATOM      7  C   UNL     1       0.581  10.362  19.211  0.00  0.00    +0.000 A 
ATOM      8  C   UNL     1       1.080  11.149  20.262  0.00  0.00    +0.000 A 
ATOM      9  C   UNL     1       0.277  12.101  20.872  0.00  0.00    +0.000 A 
ATOM     10  C   UNL     1      -1.020  12.293  20.412  0.00  0.00    +0.000 A 
ATOM     11  C   UNL     1      -1.528  11.579  19.337  0.00  0.00    +0.000 A 
ATOM     12  N   UNL     1      -2.793  11.854  18.979  0.00  0.00    +0.000 NA
ATOM     13  C   UNL     1      -3.339  11.163  17.957  0.00  0.00    +0.000 A 
ATOM     14  C   UNL     1      -2.672  10.183  17.261  0.00  0.00    +0.000 A 
ATOM     15  C   UNL     1      -1.362   9.893  17.637  0.00  0.00    +0.000 A 
ATOM     16  C   UNL     1      -0.731  10.592  18.695  0.00  0.00    +0.000 A 
ENDBRANCH   6   7
BRANCH   3  17
ATOM     17  C   UNL     1       3.539   6.332  18.741  0.00  0.00    +0.000 C 
ATOM     18  O   UNL     1       3.230   5.407  19.482  0.00  0.00    +0.000 OA
ATOM     19  N   UNL     1       4.685   6.355  17.964  0.00  0.00    +0.000 N 
ATOM     20  H   UNL     1       4.780   7.196  17.400  0.00  0.00    +0.000 HD
BRANCH  19  21
ATOM     21  C   UNL     1       5.768   5.327  17.893  0.00  0.00    +0.000 C 
ATOM     22  C   UNL     1       6.753   5.537  19.093  0.00  0.00    +0.000 C 
ATOM     23  C   UNL     1       7.521   6.508  18.157  0.00  0.00    +0.000 C 
ATOM     24  C   UNL     1       7.029   5.595  16.992  0.00  0.00    +0.000 C 
BRANCH  24  25
ATOM     25  O   UNL     1       7.884   4.449  16.727  0.00  0.00    +0.000 OA
ATOM     26  H   UNL     1       8.200   4.137  17.591  0.00  0.00    +0.000 HD
ENDBRANCH  24  25
ENDBRANCH  19  21
ENDBRANCH   3  17
TORSDOF 4
ENDMDL
MODEL 4
REMARK VINA RESULT:      -7.5      5.335      7.745
REMARK  Name = 
REMARK  5 active torsions:
REMARK  status: ('A' for Active; 'I' for Inactive)
REMARK    1  A    between atoms: C_1  and  C_2
REMARK    2  A    between atoms: C_3  and  C_4
REMARK    3  A    between atoms: N_6  and  C_7
REMARK    4  A    between atoms: C_10  and  O_11
REMARK    5  A    between atoms: N_14  and  C_15
REMARK                            x       y       z     vdW  Elec       q    Type
REMARK                         _______ _______ _______ _____ _____    ______ ____
ROOT
ATOM      1  C   UNL     1       3.955   4.097  16.140  0.00  0.00    +0.000 C 
ATOM      2  C   UNL     1       5.300   4.246  16.751  0.00  0.00    +0.000 A 
ATOM      3  C   UNL     1       6.557   4.495  16.210  0.00  0.00    +0.000 A 
ATOM      4  N   UNL     1       7.427   4.761  17.247  0.00  0.00    +0.000 NA
ATOM      5  N   UNL     1       6.765   4.677  18.392  0.00  0.00    +0.000 NA
ATOM      6  N   UNL     1       5.499   4.288  18.128  0.00  0.00    +0.000 N 
ENDROOT
BRANCH   6   7
ATOM      7  C   UNL     1       4.565   3.977  19.155  0.00  0.00    +0.000 A 
ATOM      8  C   UNL     1       4.592   2.675  19.683  0.00  0.00    +0.000 A 
ATOM      9  C   UNL     1       3.617   2.256  20.576  0.00  0.00    +0.000 A 
ATOM     10  C   UNL     1       2.627   3.148  20.970  0.00  0.00    +0.000 A 
ATOM     11  C   UNL     1       2.602   4.459  20.519  0.00  0.00    +0.000 A 
ATOM     12  N   UNL     1       1.599   5.230  20.973  0.00  0.00    +0.000 NA
ATOM     13  C   UNL     1       1.518   6.504  20.537  0.00  0.00    +0.000 A 
ATOM     14  C   UNL     1       2.406   7.060  19.646  0.00  0.00    +0.000 A 
ATOM     15  C   UNL     1       3.441   6.258  19.171  0.00  0.00    +0.000 A 
ATOM     16  C   UNL     1       3.585   4.916  19.598  0.00  0.00    +0.000 A 
ENDBRANCH   6   7
BRANCH   3  17
ATOM     17  C   UNL     1       7.010   4.557  14.809  0.00  0.00    +0.000 C 
ATOM     18  O   UNL     1       7.787   5.404  14.384  0.00  0.00    +0.000 OA
ATOM     19  N   UNL     1       6.462   3.548  14.035  0.00  0.00    +0.000 N 
ATOM     20  H   UNL     1       5.846   2.925  14.551  0.00  0.00    +0.000 HD
BRANCH  19  21
ATOM     21  C   UNL     1       6.652   3.306  12.572  0.00  0.00    +0.000 C 
ATOM     22  C   UNL     1       5.611   4.161  11.772  0.00  0.00    +0.000 C 
ATOM     23  C   UNL     1       4.656   2.947  11.918  0.00  0.00    +0.000 C 
ATOM     24  C   UNL     1       5.947   2.073  11.896  0.00  0.00    +0.000 C 
BRANCH  24  25
ATOM     25  O   UNL     1       6.409   1.721  10.563  0.00  0.00    +0.000 OA
ATOM     26  H   UNL     1       5.784   1.061  10.220  0.00  0.00    +0.000 HD
ENDBRANCH  24  25
ENDBRANCH  19  21
ENDBRANCH   3  17
TORSDOF 4
ENDMDL
MODEL 5
REMARK VINA RESULT:      -7.4      2.760      7.861
REMARK  Name = 
REMARK  5 active torsions:
REMARK  status: ('A' for Active; 'I' for Inactive)
REMARK    1  A    between atoms: C_1  and  C_2
REMARK    2  A    between atoms: C_3  and  C_4
REMARK    3  A    between atoms: N_6  and  C_7
REMARK    4  A    between atoms: C_10  and  O_11
REMARK    5  A    between atoms: N_14  and  C_15
REMARK                            x       y       z     vdW  Elec       q    Type
REMARK                         _______ _______ _______ _____ _____    ______ ____
ROOT
ATOM      1  C   UNL     1       0.722   8.477  20.941  0.00  0.00    +0.000 C 
ATOM      2  C   UNL     1       1.475   8.505  19.660  0.00  0.00    +0.000 A 
ATOM      3  C   UNL     1       2.326   7.591  19.048  0.00  0.00    +0.000 A 
ATOM      4  N   UNL     1       2.573   8.026  17.763  0.00  0.00    +0.000 NA
ATOM      5  N   UNL     1       1.922   9.163  17.564  0.00  0.00    +0.000 NA
ATOM      6  N   UNL     1       1.317   9.519  18.719  0.00  0.00    +0.000 N 
ENDROOT
BRANCH   6   7
ATOM      7  C   UNL     1       0.643  10.762  18.878  0.00  0.00    +0.000 A 
ATOM      8  C   UNL     1       1.372  11.827  19.431  0.00  0.00    +0.000 A 
ATOM      9  C   UNL     1       0.742  13.020  19.755  0.00  0.00    +0.000 A 
ATOM     10  C   UNL     1      -0.615  13.163  19.497  0.00  0.00    +0.000 A 
ATOM     11  C   UNL     1      -1.357  12.157  18.896  0.00  0.00    +0.000 A 
ATOM     12  N   UNL     1      -2.660  12.412  18.692  0.00  0.00    +0.000 NA
ATOM     13  C   UNL     1      -3.426  11.450  18.136  0.00  0.00    +0.000 A 
ATOM     14  C   UNL     1      -2.947  10.214  17.771  0.00  0.00    +0.000 A 
ATOM     15  C   UNL     1      -1.597   9.948  17.988  0.00  0.00    +0.000 A 
ATOM     16  C   UNL     1      -0.739  10.921  18.558  0.00  0.00    +0.000 A 
ENDBRANCH   6   7
BRANCH   3  17
ATOM     17  C   UNL     1       2.892   6.321  19.538  0.00  0.00    +0.000 C 
ATOM     18  O   UNL     1       2.385   5.654  20.433  0.00  0.00    +0.000 OA
ATOM     19  N   UNL     1       4.052   5.971  18.870  0.00  0.00    +0.000 N 
ATOM     20  H   UNL     1       4.325   6.634  18.149  0.00  0.00    +0.000 HD
BRANCH  19  21
ATOM     21  C   UNL     1       4.927   4.782  19.109  0.00  0.00    +0.000 C 
ATOM     22  C   UNL     1       5.625   4.380  17.765  0.00  0.00    +0.000 C 
ATOM     23  C   UNL     1       4.378   3.495  17.502  0.00  0.00    +0.000 C 
ATOM     24  C   UNL     1       4.301   3.340  19.052  0.00  0.00    +0.000 C 
BRANCH  24  25
ATOM     25  O   UNL     1       5.120   2.263  19.587  0.00  0.00    +0.000 OA
ATOM     26  H   UNL     1       5.239   2.453  20.532  0.00  0.00    +0.000 HD
ENDBRANCH  24  25
ENDBRANCH  19  21
ENDBRANCH   3  17
TORSDOF 4
ENDMDL
MODEL 6
REMARK VINA RESULT:      -7.3      2.962      7.679
REMARK  Name = 
REMARK  5 active torsions:
REMARK  status: ('A' for Active; 'I' for Inactive)
REMARK    1  A    between atoms: C_1  and  C_2
REMARK    2  A    between atoms: C_3  and  C_4
REMARK    3  A    between atoms: N_6  and  C_7
REMARK    4  A    between atoms: C_10  and  O_11
REMARK    5  A    between atoms: N_14  and  C_15
REMARK                            x       y       z     vdW  Elec       q    Type
REMARK                         _______ _______ _______ _____ _____    ______ ____
ROOT
ATOM      1  C   UNL     1       2.549   8.920  17.798  0.00  0.00    +0.000 C 
ATOM      2  C   UNL     1       1.966   8.305  19.018  0.00  0.00    +0.000 A 
ATOM      3  C   UNL     1       2.140   7.065  19.623  0.00  0.00    +0.000 A 
ATOM      4  N   UNL     1       1.529   7.098  20.859  0.00  0.00    +0.000 NA
ATOM      5  N   UNL     1       0.983   8.293  21.033  0.00  0.00    +0.000 NA
ATOM      6  N   UNL     1       1.160   9.014  19.905  0.00  0.00    +0.000 N 
ENDROOT
BRANCH   6   7
ATOM      7  C   UNL     1       0.576  10.298  19.718  0.00  0.00    +0.000 A 
ATOM      8  C   UNL     1       0.999  11.333  20.569  0.00  0.00    +0.000 A 
ATOM      9  C   UNL     1       0.368  12.567  20.546  0.00  0.00    +0.000 A 
ATOM     10  C   UNL     1      -0.669  12.784  19.647  0.00  0.00    +0.000 A 
ATOM     11  C   UNL     1      -1.074  11.809  18.749  0.00  0.00    +0.000 A 
ATOM     12  N   UNL     1      -2.084  12.135  17.924  0.00  0.00    +0.000 NA
ATOM     13  C   UNL     1      -2.531  11.206  17.053  0.00  0.00    +0.000 A 
ATOM     14  C   UNL     1      -2.012   9.936  16.964  0.00  0.00    +0.000 A 
ATOM     15  C   UNL     1      -0.969   9.596  17.824  0.00  0.00    +0.000 A 
ATOM     16  C   UNL     1      -0.450  10.530  18.753  0.00  0.00    +0.000 A 
ENDBRANCH   6   7
BRANCH   3  17
ATOM     17  C   UNL     1       2.870   5.865  19.173  0.00  0.00    +0.000 C 
ATOM     18  O   UNL     1       4.092   5.795  19.120  0.00  0.00    +0.000 OA
ATOM     19  N   UNL     1       2.017   4.832  18.823  0.00  0.00    +0.000 N 
ATOM     20  H   UNL     1       1.032   5.059  18.937  0.00  0.00    +0.000 HD
BRANCH  19  21
ATOM     21  C   UNL     1       2.378   3.484  18.288  0.00  0.00    +0.000 C 
ATOM     22  C   UNL     1       1.215   2.481  18.597  0.00  0.00    +0.000 C 
ATOM     23  C   UNL     1       1.940   2.216  19.943  0.00  0.00    +0.000 C 
ATOM     24  C   UNL     1       3.257   2.516  19.163  0.00  0.00    +0.000 C 
BRANCH  24  25
ATOM     25  O   UNL     1       3.822   1.366  18.477  0.00  0.00    +0.000 OA
ATOM     26  H   UNL     1       4.045   0.717  19.165  0.00  0.00    +0.000 HD
ENDBRANCH  24  25
ENDBRANCH  19  21
ENDBRANCH   3  17
TORSDOF 4
ENDMDL
MODEL 7
REMARK VINA RESULT:      -7.3      2.784      7.582
REMARK  Name = 
REMARK  5 active torsions:
REMARK  status: ('A' for Active; 'I' for Inactive)
REMARK    1  A    between atoms: C_1  and  C_2
REMARK    2  A    between atoms: C_3  and  C_4
REMARK    3  A    between atoms: N_6  and  C_7
REMARK    4  A    between atoms: C_10  and  O_11
REMARK    5  A    between atoms: N_14  and  C_15
REMARK                            x       y       z     vdW  Elec       q    Type
REMARK                         _______ _______ _______ _____ _____    ______ ____
ROOT
ATOM      1  C   UNL     1       1.169   7.672  20.752  0.00  0.00    +0.000 C 
ATOM      2  C   UNL     1       1.756   8.108  19.459  0.00  0.00    +0.000 A 
ATOM      3  C   UNL     1       2.617   7.489  18.560  0.00  0.00    +0.000 A 
ATOM      4  N   UNL     1       2.662   8.252  17.412  0.00  0.00    +0.000 NA
ATOM      5  N   UNL     1       1.879   9.310  17.571  0.00  0.00    +0.000 NA
ATOM      6  N   UNL     1       1.384   9.292  18.827  0.00  0.00    +0.000 N 
ENDROOT
BRANCH   6   7
ATOM      7  C   UNL     1       0.610  10.360  19.360  0.00  0.00    +0.000 A 
ATOM      8  C   UNL     1       1.152  11.076  20.441  0.00  0.00    +0.000 A 
ATOM      9  C   UNL     1       0.394  12.028  21.106  0.00  0.00    +0.000 A 
ATOM     10  C   UNL     1      -0.899  12.293  20.673  0.00  0.00    +0.000 A 
ATOM     11  C   UNL     1      -1.447  11.652  19.572  0.00  0.00    +0.000 A 
ATOM     12  N   UNL     1      -2.704  11.994  19.243  0.00  0.00    +0.000 NA
ATOM     13  C   UNL     1      -3.288  11.375  18.197  0.00  0.00    +0.000 A 
ATOM     14  C   UNL     1      -2.668  10.404  17.446  0.00  0.00    +0.000 A 
ATOM     15  C   UNL     1      -1.367  10.045  17.791  0.00  0.00    +0.000 A 
ATOM     16  C   UNL     1      -0.697  10.666  18.873  0.00  0.00    +0.000 A 
ENDBRANCH   6   7
BRANCH   3  17
ATOM     17  C   UNL     1       3.364   6.222  18.655  0.00  0.00    +0.000 C 
ATOM     18  O   UNL     1       4.492   6.133  19.123  0.00  0.00    +0.000 OA
ATOM     19  N   UNL     1       2.642   5.149  18.160  0.00  0.00    +0.000 N 
ATOM     20  H   UNL     1       1.717   5.400  17.819  0.00  0.00    +0.000 HD
BRANCH  19  21
ATOM     21  C   UNL     1       3.075   3.721  18.052  0.00  0.00    +0.000 C 
ATOM     22  C   UNL     1       1.815   2.796  18.134  0.00  0.00    +0.000 C 
ATOM     23  C   UNL     1       2.028   2.815  19.670  0.00  0.00    +0.000 C 
ATOM     24  C   UNL     1       3.546   2.958  19.344  0.00  0.00    +0.000 C 
BRANCH  24  25
ATOM     25  O   UNL     1       4.235   1.696  19.128  0.00  0.00    +0.000 OA
ATOM     26  H   UNL     1       3.794   1.267  18.376  0.00  0.00    +0.000 HD
ENDBRANCH  24  25
ENDBRANCH  19  21
ENDBRANCH   3  17
TORSDOF 4
ENDMDL
MODEL 8
REMARK VINA RESULT:      -7.3      3.175      7.742
REMARK  Name = 
REMARK  5 active torsions:
REMARK  status: ('A' for Active; 'I' for Inactive)
REMARK    1  A    between atoms: C_1  and  C_2
REMARK    2  A    between atoms: C_3  and  C_4
REMARK    3  A    between atoms: N_6  and  C_7
REMARK    4  A    between atoms: C_10  and  O_11
REMARK    5  A    between atoms: N_14  and  C_15
REMARK                            x       y       z     vdW  Elec       q    Type
REMARK                         _______ _______ _______ _____ _____    ______ ____
ROOT
ATOM      1  C   UNL     1       1.252   7.836  20.726  0.00  0.00    +0.000 C 
ATOM      2  C   UNL     1       1.792   8.294  19.420  0.00  0.00    +0.000 A 
ATOM      3  C   UNL     1       2.675   7.718  18.512  0.00  0.00    +0.000 A 
ATOM      4  N   UNL     1       2.657   8.472  17.357  0.00  0.00    +0.000 NA
ATOM      5  N   UNL     1       1.815   9.482  17.519  0.00  0.00    +0.000 NA
ATOM      6  N   UNL     1       1.341   9.447  18.783  0.00  0.00    +0.000 N 
ENDROOT
BRANCH   6   7
ATOM      7  C   UNL     1       0.513  10.473  19.318  0.00  0.00    +0.000 A 
ATOM      8  C   UNL     1       1.018  11.215  20.399  0.00  0.00    +0.000 A 
ATOM      9  C   UNL     1       0.212  12.125  21.067  0.00  0.00    +0.000 A 
ATOM     10  C   UNL     1      -1.094  12.321  20.636  0.00  0.00    +0.000 A 
ATOM     11  C   UNL     1      -1.609  11.654  19.535  0.00  0.00    +0.000 A 
ATOM     12  N   UNL     1      -2.883  11.929  19.209  0.00  0.00    +0.000 NA
ATOM     13  C   UNL     1      -3.436  11.281  18.163  0.00  0.00    +0.000 A 
ATOM     14  C   UNL     1      -2.767  10.345  17.410  0.00  0.00    +0.000 A 
ATOM     15  C   UNL     1      -1.448  10.055  17.752  0.00  0.00    +0.000 A 
ATOM     16  C   UNL     1      -0.809  10.710  18.834  0.00  0.00    +0.000 A 
ENDBRANCH   6   7
BRANCH   3  17
ATOM     17  C   UNL     1       3.498   6.499  18.607  0.00  0.00    +0.000 C 
ATOM     18  O   UNL     1       3.471   5.735  19.565  0.00  0.00    +0.000 OA
ATOM     19  N   UNL     1       4.296   6.316  17.490  0.00  0.00    +0.000 N 
ATOM     20  H   UNL     1       4.186   7.041  16.785  0.00  0.00    +0.000 HD
BRANCH  19  21
ATOM     21  C   UNL     1       5.287   5.225  17.238  0.00  0.00    +0.000 C 
ATOM     22  C   UNL     1       6.489   5.804  16.417  0.00  0.00    +0.000 C 
ATOM     23  C   UNL     1       5.665   5.442  15.153  0.00  0.00    +0.000 C 
ATOM     24  C   UNL     1       5.085   4.271  16.003  0.00  0.00    +0.000 C 
BRANCH  24  25
ATOM     25  O   UNL     1       5.893   3.062  15.988  0.00  0.00    +0.000 OA
ATOM     26  H   UNL     1       6.684   3.266  15.463  0.00  0.00    +0.000 HD
ENDBRANCH  24  25
ENDBRANCH  19  21
ENDBRANCH   3  17
TORSDOF 4
ENDMDL
MODEL 9
REMARK VINA RESULT:      -7.3      2.961      7.758
REMARK  Name = 
REMARK  5 active torsions:
REMARK  status: ('A' for Active; 'I' for Inactive)
REMARK    1  A    between atoms: C_1  and  C_2
REMARK    2  A    between atoms: C_3  and  C_4
REMARK    3  A    between atoms: N_6  and  C_7
REMARK    4  A    between atoms: C_10  and  O_11
REMARK    5  A    between atoms: N_14  and  C_15
REMARK                            x       y       z     vdW  Elec       q    Type
REMARK                         _______ _______ _______ _____ _____    ______ ____
ROOT
ATOM      1  C   UNL     1       2.125   9.757  17.781  0.00  0.00    +0.000 C 
ATOM      2  C   UNL     1       1.765   8.849  18.900  0.00  0.00    +0.000 A 
ATOM      3  C   UNL     1       2.181   7.567  19.244  0.00  0.00    +0.000 A 
ATOM      4  N   UNL     1       1.699   7.281  20.504  0.00  0.00    +0.000 NA
ATOM      5  N   UNL     1       1.002   8.321  20.941  0.00  0.00    +0.000 NA
ATOM      6  N   UNL     1       0.957   9.249  19.961  0.00  0.00    +0.000 N 
ENDROOT
BRANCH   6   7
ATOM      7  C   UNL     1       0.173  10.432  20.063  0.00  0.00    +0.000 A 
ATOM      8  C   UNL     1       0.576  11.397  21.001  0.00  0.00    +0.000 A 
ATOM      9  C   UNL     1      -0.219  12.502  21.262  0.00  0.00    +0.000 A 
ATOM     10  C   UNL     1      -1.409  12.665  20.562  0.00  0.00    +0.000 A 
ATOM     11  C   UNL     1      -1.811  11.767  19.585  0.00  0.00    +0.000 A 
ATOM     12  N   UNL     1      -2.977  12.030  18.972  0.00  0.00    +0.000 NA
ATOM     13  C   UNL     1      -3.422  11.167  18.035  0.00  0.00    +0.000 A 
ATOM     14  C   UNL     1      -2.749  10.024  17.674  0.00  0.00    +0.000 A 
ATOM     15  C   UNL     1      -1.543   9.748  18.315  0.00  0.00    +0.000 A 
ATOM     16  C   UNL     1      -1.019  10.620  19.300  0.00  0.00    +0.000 A 
ENDBRANCH   6   7
BRANCH   3  17
ATOM     17  C   UNL     1       3.032   6.603  18.523  0.00  0.00    +0.000 C 
ATOM     18  O   UNL     1       3.902   6.930  17.725  0.00  0.00    +0.000 OA
ATOM     19  N   UNL     1       2.735   5.292  18.854  0.00  0.00    +0.000 N 
ATOM     20  H   UNL     1       1.990   5.201  19.541  0.00  0.00    +0.000 HD
BRANCH  19  21
ATOM     21  C   UNL     1       3.351   4.044  18.307  0.00  0.00    +0.000 C 
ATOM     22  C   UNL     1       2.349   3.374  17.307  0.00  0.00    +0.000 C 
ATOM     23  C   UNL     1       1.775   2.630  18.541  0.00  0.00    +0.000 C 
ATOM     24  C   UNL     1       3.222   2.701  19.117  0.00  0.00    +0.000 C 
BRANCH  24  25
ATOM     25  O   UNL     1       4.089   1.612  18.695  0.00  0.00    +0.000 OA
ATOM     26  H   UNL     1       4.866   1.638  19.276  0.00  0.00    +0.000 HD
ENDBRANCH  24  25
ENDBRANCH  19  21
ENDBRANCH   3  17
TORSDOF 4
ENDMDL
