MODEL 1
REMARK VINA RESULT:      -9.1      0.000      0.000
REMARK  Name = 
REMARK  4 active torsions:
REMARK  status: ('A' for Active; 'I' for Inactive)
REMARK    1  A    between atoms: C_2  and  C_3
REMARK    2  A    between atoms: C_11  and  N_12
REMARK    3  A    between atoms: C_19  and  C_20
REMARK    4  A    between atoms: C_22  and  C_23
REMARK                            x       y       z     vdW  Elec       q    Type
REMARK                         _______ _______ _______ _____ _____    ______ ____
ROOT
ATOM      1  N   UNL     1       1.818   6.344  19.587  0.00  0.00    +0.000 N 
ATOM      2  C   UNL     1       2.957   5.613  19.364  0.00  0.00    +0.000 C 
ATOM      3  O   UNL     1       4.055   5.950  19.807  0.00  0.00    +0.000 OA
ATOM      4  N   UNL     1       2.810   4.462  18.628  0.00  0.00    +0.000 N 
ATOM      5  C   UNL     1       1.628   3.958  17.950  0.00  0.00    +0.000 C 
ATOM      6  C   UNL     1       1.709   2.459  18.171  0.00  0.00    +0.000 C 
ATOM      7  C   UNL     1       3.202   2.164  18.107  0.00  0.00    +0.000 C 
ATOM      8  C   UNL     1       3.892   3.472  18.551  0.00  0.00    +0.000 C 
ATOM      9  H   UNL     1       0.937   5.863  19.531  0.00  0.00    +0.000 HD
ENDROOT
BRANCH   1  18
ATOM     10  C   UNL     1       0.386  11.238  18.869  0.00  0.00    +0.000 A 
ATOM     11  C   UNL     1       1.414  10.590  18.162  0.00  0.00    +0.000 A 
ATOM     12  C   UNL     1       1.923   9.358  18.599  0.00  0.00    +0.000 A 
ATOM     13  C   UNL     1       1.396   8.780  19.748  0.00  0.00    +0.000 A 
ATOM     14  C   UNL     1       0.380   9.431  20.452  0.00  0.00    +0.000 A 
ATOM     15  C   UNL     1      -0.139  10.651  20.026  0.00  0.00    +0.000 A 
ATOM     16  C   UNL     1      -0.002   8.696  21.691  0.00  0.00    +0.000 C 
ATOM     17  C   UNL     1       0.839   7.416  21.624  0.00  0.00    +0.000 C 
ATOM     18  C   UNL     1       1.841   7.520  20.448  0.00  0.00    +0.000 C 
BRANCH  10  20
ATOM     19  N   UNL     1      -0.515  13.535  18.056  0.00  0.00    +0.000 NA
ATOM     20  C   UNL     1      -0.113  12.505  18.419  0.00  0.00    +0.000 C 
ENDBRANCH  10  20
ENDBRANCH   1  18
BRANCH   8  21
ATOM     21  C   UNL     1       4.962   3.877  17.584  0.00  0.00    +0.000 A 
ATOM     22  N   UNL     1       4.891   3.965  16.271  0.00  0.00    +0.000 NA
ATOM     23  C   UNL     1       6.184   4.223  15.871  0.00  0.00    +0.000 A 
ATOM     24  N   UNL     1       7.046   4.328  16.895  0.00  0.00    +0.000 NA
ATOM     25  N   UNL     1       6.250   4.124  17.961  0.00  0.00    +0.000 N 
ATOM     26  H   UNL     1       6.629   4.147  18.905  0.00  0.00    +0.000 HD
BRANCH  23  27
ATOM     27  C   UNL     1       6.546   4.314  14.456  0.00  0.00    +0.000 A 
ATOM     28  C   UNL     1       5.936   3.464  13.517  0.00  0.00    +0.000 A 
ATOM     29  C   UNL     1       6.291   3.515  12.165  0.00  0.00    +0.000 A 
ATOM     30  C   UNL     1       7.262   4.415  11.735  0.00  0.00    +0.000 A 
ATOM     31  C   UNL     1       7.873   5.269  12.653  0.00  0.00    +0.000 A 
ATOM     32  C   UNL     1       7.516   5.221  14.006  0.00  0.00    +0.000 A 
ENDBRANCH  23  27
ENDBRANCH   8  21
TORSDOF 4
ENDMDL
MODEL 2
REMARK VINA RESULT:      -8.1      2.308      2.874
REMARK  Name = 
REMARK  4 active torsions:
REMARK  status: ('A' for Active; 'I' for Inactive)
REMARK    1  A    between atoms: C_2  and  C_3
REMARK    2  A    between atoms: C_11  and  N_12
REMARK    3  A    between atoms: C_19  and  C_20
REMARK    4  A    between atoms: C_22  and  C_23
REMARK                            x       y       z     vdW  Elec       q    Type
REMARK                         _______ _______ _______ _____ _____    ______ ____
ROOT
ATOM      1  N   UNL     1       1.113   8.240  18.074  0.00  0.00    +0.000 N 
ATOM      2  C   UNL     1       2.413   7.807  18.135  0.00  0.00    +0.000 C 
ATOM      3  O   UNL     1       3.367   8.585  18.157  0.00  0.00    +0.000 OA
ATOM      4  N   UNL     1       2.603   6.447  18.186  0.00  0.00    +0.000 N 
ATOM      5  C   UNL     1       1.619   5.384  18.075  0.00  0.00    +0.000 C 
ATOM      6  C   UNL     1       2.104   4.350  19.073  0.00  0.00    +0.000 C 
ATOM      7  C   UNL     1       3.622   4.435  18.973  0.00  0.00    +0.000 C 
ATOM      8  C   UNL     1       3.916   5.880  18.518  0.00  0.00    +0.000 C 
ATOM      9  H   UNL     1       0.399   7.620  18.418  0.00  0.00    +0.000 HD
ENDROOT
BRANCH   1  18
ATOM     10  C   UNL     1      -3.310  10.853  17.713  0.00  0.00    +0.000 A 
ATOM     11  C   UNL     1      -2.755  10.068  16.687  0.00  0.00    +0.000 A 
ATOM     12  C   UNL     1      -1.429   9.616  16.763  0.00  0.00    +0.000 A 
ATOM     13  C   UNL     1      -0.664   9.955  17.874  0.00  0.00    +0.000 A 
ATOM     14  C   UNL     1      -1.216  10.741  18.887  0.00  0.00    +0.000 A 
ATOM     15  C   UNL     1      -2.533  11.191  18.827  0.00  0.00    +0.000 A 
ATOM     16  C   UNL     1      -0.224  11.060  19.953  0.00  0.00    +0.000 C 
ATOM     17  C   UNL     1       1.020  10.268  19.534  0.00  0.00    +0.000 C 
ATOM     18  C   UNL     1       0.794   9.660  18.128  0.00  0.00    +0.000 C 
BRANCH  10  20
ATOM     19  N   UNL     1      -5.760  11.698  17.538  0.00  0.00    +0.000 NA
ATOM     20  C   UNL     1      -4.662  11.321  17.614  0.00  0.00    +0.000 C 
ENDBRANCH  10  20
ENDBRANCH   1  18
BRANCH   8  21
ATOM     21  C   UNL     1       4.854   5.902  17.350  0.00  0.00    +0.000 A 
ATOM     22  N   UNL     1       4.771   5.228  16.220  0.00  0.00    +0.000 NA
ATOM     23  C   UNL     1       5.957   5.494  15.571  0.00  0.00    +0.000 A 
ATOM     24  N   UNL     1       6.757   6.334  16.249  0.00  0.00    +0.000 NA
ATOM     25  N   UNL     1       6.033   6.588  17.355  0.00  0.00    +0.000 N 
ATOM     26  H   UNL     1       6.387   7.212  18.076  0.00  0.00    +0.000 HD
BRANCH  23  27
ATOM     27  C   UNL     1       6.293   4.861  14.295  0.00  0.00    +0.000 A 
ATOM     28  C   UNL     1       7.416   5.294  13.569  0.00  0.00    +0.000 A 
ATOM     29  C   UNL     1       7.736   4.724  12.333  0.00  0.00    +0.000 A 
ATOM     30  C   UNL     1       6.935   3.713  11.807  0.00  0.00    +0.000 A 
ATOM     31  C   UNL     1       5.821   3.268  12.517  0.00  0.00    +0.000 A 
ATOM     32  C   UNL     1       5.502   3.836  13.756  0.00  0.00    +0.000 A 
ENDBRANCH  23  27
ENDBRANCH   8  21
TORSDOF 4
ENDMDL
MODEL 3
REMARK VINA RESULT:      -8.0      0.806      1.230
REMARK  Name = 
REMARK  4 active torsions:
REMARK  status: ('A' for Active; 'I' for Inactive)
REMARK    1  A    between atoms: C_2  and  C_3
REMARK    2  A    between atoms: C_11  and  N_12
REMARK    3  A    between atoms: C_19  and  C_20
REMARK    4  A    between atoms: C_22  and  C_23
REMARK                            x       y       z     vdW  Elec       q    Type
REMARK                         _______ _______ _______ _____ _____    ______ ____
ROOT
ATOM      1  N   UNL     1       1.898   6.687  19.597  0.00  0.00    +0.000 N 
ATOM      2  C   UNL     1       3.019   5.920  19.405  0.00  0.00    +0.000 C 
ATOM      3  O   UNL     1       4.134   6.274  19.790  0.00  0.00    +0.000 OA
ATOM      4  N   UNL     1       2.835   4.717  18.769  0.00  0.00    +0.000 N 
ATOM      5  C   UNL     1       1.628   4.179  18.165  0.00  0.00    +0.000 C 
ATOM      6  C   UNL     1       1.693   2.702  18.505  0.00  0.00    +0.000 C 
ATOM      7  C   UNL     1       3.179   2.377  18.426  0.00  0.00    +0.000 C 
ATOM      8  C   UNL     1       3.900   3.705  18.744  0.00  0.00    +0.000 C 
ATOM      9  H   UNL     1       1.009   6.218  19.603  0.00  0.00    +0.000 HD
ENDROOT
BRANCH   1  18
ATOM     10  C   UNL     1      -0.966  10.966  19.563  0.00  0.00    +0.000 A 
ATOM     11  C   UNL     1      -0.197  10.506  18.480  0.00  0.00    +0.000 A 
ATOM     12  C   UNL     1       0.760   9.495  18.654  0.00  0.00    +0.000 A 
ATOM     13  C   UNL     1       0.941   8.949  19.919  0.00  0.00    +0.000 A 
ATOM     14  C   UNL     1       0.182   9.415  20.995  0.00  0.00    +0.000 A 
ATOM     15  C   UNL     1      -0.777  10.413  20.835  0.00  0.00    +0.000 A 
ATOM     16  C   UNL     1       0.569   8.764  22.279  0.00  0.00    +0.000 C 
ATOM     17  C   UNL     1       1.616   7.727  21.854  0.00  0.00    +0.000 C 
ATOM     18  C   UNL     1       1.961   7.928  20.358  0.00  0.00    +0.000 C 
BRANCH  10  20
ATOM     19  N   UNL     1      -2.710  12.860  19.214  0.00  0.00    +0.000 NA
ATOM     20  C   UNL     1      -1.930  12.011  19.373  0.00  0.00    +0.000 C 
ENDBRANCH  10  20
ENDBRANCH   1  18
BRANCH   8  21
ATOM     21  C   UNL     1       4.949   4.012  17.720  0.00  0.00    +0.000 A 
ATOM     22  N   UNL     1       4.827   4.057  16.409  0.00  0.00    +0.000 NA
ATOM     23  C   UNL     1       6.114   4.225  15.947  0.00  0.00    +0.000 A 
ATOM     24  N   UNL     1       7.024   4.317  16.931  0.00  0.00    +0.000 NA
ATOM     25  N   UNL     1       6.264   4.198  18.035  0.00  0.00    +0.000 N 
ATOM     26  H   UNL     1       6.683   4.233  18.962  0.00  0.00    +0.000 HD
BRANCH  23  27
ATOM     27  C   UNL     1       6.420   4.244  14.516  0.00  0.00    +0.000 A 
ATOM     28  C   UNL     1       7.460   5.056  14.030  0.00  0.00    +0.000 A 
ATOM     29  C   UNL     1       7.747   5.111  12.662  0.00  0.00    +0.000 A 
ATOM     30  C   UNL     1       6.998   4.357  11.764  0.00  0.00    +0.000 A 
ATOM     31  C   UNL     1       5.967   3.542  12.230  0.00  0.00    +0.000 A 
ATOM     32  C   UNL     1       5.680   3.483  13.599  0.00  0.00    +0.000 A 
ENDBRANCH  23  27
ENDBRANCH   8  21
TORSDOF 4
ENDMDL
MODEL 4
REMARK VINA RESULT:      -7.8      2.981      8.960
REMARK  Name = 
REMARK  4 active torsions:
REMARK  status: ('A' for Active; 'I' for Inactive)
REMARK    1  A    between atoms: C_2  and  C_3
REMARK    2  A    between atoms: C_11  and  N_12
REMARK    3  A    between atoms: C_19  and  C_20
REMARK    4  A    between atoms: C_22  and  C_23
REMARK                            x       y       z     vdW  Elec       q    Type
REMARK                         _______ _______ _______ _____ _____    ______ ____
ROOT
ATOM      1  N   UNL     1       1.751   6.998  20.589  0.00  0.00    +0.000 N 
ATOM      2  C   UNL     1       1.320   8.184  20.051  0.00  0.00    +0.000 C 
ATOM      3  O   UNL     1       1.140   8.333  18.842  0.00  0.00    +0.000 OA
ATOM      4  N   UNL     1       1.080   9.206  20.937  0.00  0.00    +0.000 N 
ATOM      5  C   UNL     1       1.323   9.248  22.368  0.00  0.00    +0.000 C 
ATOM      6  C   UNL     1       0.132  10.020  22.905  0.00  0.00    +0.000 C 
ATOM      7  C   UNL     1      -0.145  11.056  21.824  0.00  0.00    +0.000 C 
ATOM      8  C   UNL     1       0.370  10.421  20.515  0.00  0.00    +0.000 C 
ATOM      9  H   UNL     1       1.534   6.819  21.555  0.00  0.00    +0.000 HD
ENDROOT
BRANCH   1  18
ATOM     10  C   UNL     1       5.844   4.975  18.209  0.00  0.00    +0.000 A 
ATOM     11  C   UNL     1       5.291   6.236  17.923  0.00  0.00    +0.000 A 
ATOM     12  C   UNL     1       4.027   6.597  18.415  0.00  0.00    +0.000 A 
ATOM     13  C   UNL     1       3.323   5.686  19.196  0.00  0.00    +0.000 A 
ATOM     14  C   UNL     1       3.873   4.432  19.471  0.00  0.00    +0.000 A 
ATOM     15  C   UNL     1       5.129   4.064  18.994  0.00  0.00    +0.000 A 
ATOM     16  C   UNL     1       2.943   3.572  20.256  0.00  0.00    +0.000 C 
ATOM     17  C   UNL     1       1.755   4.498  20.544  0.00  0.00    +0.000 C 
ATOM     18  C   UNL     1       1.928   5.818  19.754  0.00  0.00    +0.000 C 
BRANCH  10  20
ATOM     19  N   UNL     1       8.175   4.322  17.265  0.00  0.00    +0.000 NA
ATOM     20  C   UNL     1       7.131   4.615  17.685  0.00  0.00    +0.000 C 
ENDBRANCH  10  20
ENDBRANCH   1  18
BRANCH   8  21
ATOM     21  C   UNL     1       1.261  11.365  19.766  0.00  0.00    +0.000 A 
ATOM     22  N   UNL     1       1.829  12.473  20.199  0.00  0.00    +0.000 NA
ATOM     23  C   UNL     1       2.402  13.029  19.076  0.00  0.00    +0.000 A 
ATOM     24  N   UNL     1       2.234  12.286  17.970  0.00  0.00    +0.000 NA
ATOM     25  N   UNL     1       1.529  11.238  18.435  0.00  0.00    +0.000 N 
ATOM     26  H   UNL     1       1.247  10.484  17.812  0.00  0.00    +0.000 HD
BRANCH  23  27
ATOM     27  C   UNL     1       3.074  14.328  19.120  0.00  0.00    +0.000 A 
ATOM     28  C   UNL     1       3.223  15.084  17.944  0.00  0.00    +0.000 A 
ATOM     29  C   UNL     1       3.890  16.313  17.960  0.00  0.00    +0.000 A 
ATOM     30  C   UNL     1       4.417  16.802  19.152  0.00  0.00    +0.000 A 
ATOM     31  C   UNL     1       4.273  16.068  20.329  0.00  0.00    +0.000 A 
ATOM     32  C   UNL     1       3.604  14.838  20.315  0.00  0.00    +0.000 A 
ENDBRANCH  23  27
ENDBRANCH   8  21
TORSDOF 4
ENDMDL
MODEL 5
REMARK VINA RESULT:      -7.7      1.924      2.270
REMARK  Name = 
REMARK  4 active torsions:
REMARK  status: ('A' for Active; 'I' for Inactive)
REMARK    1  A    between atoms: C_2  and  C_3
REMARK    2  A    between atoms: C_11  and  N_12
REMARK    3  A    between atoms: C_19  and  C_20
REMARK    4  A    between atoms: C_22  and  C_23
REMARK                            x       y       z     vdW  Elec       q    Type
REMARK                         _______ _______ _______ _____ _____    ______ ____
ROOT
ATOM      1  N   UNL     1       1.338   7.770  17.914  0.00  0.00    +0.000 N 
ATOM      2  C   UNL     1       2.554   7.176  18.135  0.00  0.00    +0.000 C 
ATOM      3  O   UNL     1       3.578   7.828  18.343  0.00  0.00    +0.000 OA
ATOM      4  N   UNL     1       2.575   5.803  18.130  0.00  0.00    +0.000 N 
ATOM      5  C   UNL     1       1.503   4.876  17.813  0.00  0.00    +0.000 C 
ATOM      6  C   UNL     1       1.708   3.747  18.806  0.00  0.00    +0.000 C 
ATOM      7  C   UNL     1       3.223   3.647  18.932  0.00  0.00    +0.000 C 
ATOM      8  C   UNL     1       3.748   5.063  18.614  0.00  0.00    +0.000 C 
ATOM      9  H   UNL     1       0.513   7.229  18.112  0.00  0.00    +0.000 HD
ENDROOT
BRANCH   1  18
ATOM     10  C   UNL     1      -2.785  10.855  17.905  0.00  0.00    +0.000 A 
ATOM     11  C   UNL     1      -2.393  10.036  16.832  0.00  0.00    +0.000 A 
ATOM     12  C   UNL     1      -1.123   9.440  16.806  0.00  0.00    +0.000 A 
ATOM     13  C   UNL     1      -0.249   9.671  17.863  0.00  0.00    +0.000 A 
ATOM     14  C   UNL     1      -0.639  10.493  18.922  0.00  0.00    +0.000 A 
ATOM     15  C   UNL     1      -1.899  11.085  18.964  0.00  0.00    +0.000 A 
ATOM     16  C   UNL     1       0.455  10.680  19.918  0.00  0.00    +0.000 C 
ATOM     17  C   UNL     1       1.572   9.766  19.401  0.00  0.00    +0.000 C 
ATOM     18  C   UNL     1       1.182   9.215  18.008  0.00  0.00    +0.000 C 
BRANCH  10  20
ATOM     19  N   UNL     1      -5.131  11.971  17.909  0.00  0.00    +0.000 NA
ATOM     20  C   UNL     1      -4.081  11.470  17.909  0.00  0.00    +0.000 C 
ENDBRANCH  10  20
ENDBRANCH   1  18
BRANCH   8  21
ATOM     21  C   UNL     1       4.848   5.019  17.596  0.00  0.00    +0.000 A 
ATOM     22  N   UNL     1       4.748   4.916  16.286  0.00  0.00    +0.000 NA
ATOM     23  C   UNL     1       6.047   4.762  15.852  0.00  0.00    +0.000 A 
ATOM     24  N   UNL     1       6.948   4.797  16.848  0.00  0.00    +0.000 NA
ATOM     25  N   UNL     1       6.169   4.977  17.931  0.00  0.00    +0.000 N 
ATOM     26  H   UNL     1       6.580   5.048  18.860  0.00  0.00    +0.000 HD
BRANCH  23  27
ATOM     27  C   UNL     1       6.363   4.533  14.442  0.00  0.00    +0.000 A 
ATOM     28  C   UNL     1       5.592   3.634  13.684  0.00  0.00    +0.000 A 
ATOM     29  C   UNL     1       5.898   3.379  12.343  0.00  0.00    +0.000 A 
ATOM     30  C   UNL     1       6.979   4.018  11.744  0.00  0.00    +0.000 A 
ATOM     31  C   UNL     1       7.751   4.917  12.480  0.00  0.00    +0.000 A 
ATOM     32  C   UNL     1       7.444   5.175  13.821  0.00  0.00    +0.000 A 
ENDBRANCH  23  27
ENDBRANCH   8  21
TORSDOF 4
ENDMDL
MODEL 6
REMARK VINA RESULT:      -7.4      3.401     10.366
REMARK  Name = 
REMARK  4 active torsions:
REMARK  status: ('A' for Active; 'I' for Inactive)
REMARK    1  A    between atoms: C_2  and  C_3
REMARK    2  A    between atoms: C_11  and  N_12
REMARK    3  A    between atoms: C_19  and  C_20
REMARK    4  A    between atoms: C_22  and  C_23
REMARK                            x       y       z     vdW  Elec       q    Type
REMARK                         _______ _______ _______ _____ _____    ______ ____
ROOT
ATOM      1  N   UNL     1       2.168   8.832  18.207  0.00  0.00    +0.000 N 
ATOM      2  C   UNL     1       1.144   9.531  18.794  0.00  0.00    +0.000 C 
ATOM      3  O   UNL     1       0.204   8.973  19.361  0.00  0.00    +0.000 OA
ATOM      4  N   UNL     1       1.224  10.901  18.731  0.00  0.00    +0.000 N 
ATOM      5  C   UNL     1       2.193  11.727  18.031  0.00  0.00    +0.000 C 
ATOM      6  C   UNL     1       2.417  12.888  18.982  0.00  0.00    +0.000 C 
ATOM      7  C   UNL     1       1.045  13.120  19.601  0.00  0.00    +0.000 C 
ATOM      8  C   UNL     1       0.340  11.748  19.543  0.00  0.00    +0.000 C 
ATOM      9  H   UNL     1       3.048   9.304  18.094  0.00  0.00    +0.000 HD
ENDROOT
BRANCH   1  18
ATOM     10  C   UNL     1       6.016   5.462  17.611  0.00  0.00    +0.000 A 
ATOM     11  C   UNL     1       5.510   6.292  16.595  0.00  0.00    +0.000 A 
ATOM     12  C   UNL     1       4.296   6.976  16.760  0.00  0.00    +0.000 A 
ATOM     13  C   UNL     1       3.592   6.822  17.949  0.00  0.00    +0.000 A 
ATOM     14  C   UNL     1       4.093   5.990  18.953  0.00  0.00    +0.000 A 
ATOM     15  C   UNL     1       5.301   5.311  18.805  0.00  0.00    +0.000 A 
ATOM     16  C   UNL     1       3.167   5.895  20.117  0.00  0.00    +0.000 C 
ATOM     17  C   UNL     1       2.045   6.878  19.763  0.00  0.00    +0.000 C 
ATOM     18  C   UNL     1       2.239   7.381  18.312  0.00  0.00    +0.000 C 
BRANCH  10  20
ATOM     19  N   UNL     1       8.253   4.189  17.263  0.00  0.00    +0.000 NA
ATOM     20  C   UNL     1       7.251   4.758  17.421  0.00  0.00    +0.000 C 
ENDBRANCH  10  20
ENDBRANCH   1  18
BRANCH   8  21
ATOM     21  C   UNL     1      -1.031  11.866  18.949  0.00  0.00    +0.000 A 
ATOM     22  N   UNL     1      -2.192  11.916  19.571  0.00  0.00    +0.000 NA
ATOM     23  C   UNL     1      -3.128  11.864  18.560  0.00  0.00    +0.000 A 
ATOM     24  N   UNL     1      -2.583  11.815  17.333  0.00  0.00    +0.000 NA
ATOM     25  N   UNL     1      -1.265  11.835  17.605  0.00  0.00    +0.000 N 
ATOM     26  H   UNL     1      -0.579  11.811  16.854  0.00  0.00    +0.000 HD
BRANCH  23  27
ATOM     27  C   UNL     1      -4.562  11.816  18.844  0.00  0.00    +0.000 A 
ATOM     28  C   UNL     1      -5.107  12.625  19.857  0.00  0.00    +0.000 A 
ATOM     29  C   UNL     1      -6.470  12.570  20.165  0.00  0.00    +0.000 A 
ATOM     30  C   UNL     1      -7.306  11.706  19.463  0.00  0.00    +0.000 A 
ATOM     31  C   UNL     1      -6.783  10.901  18.451  0.00  0.00    +0.000 A 
ATOM     32  C   UNL     1      -5.419  10.957  18.141  0.00  0.00    +0.000 A 
ENDBRANCH  23  27
ENDBRANCH   8  21
TORSDOF 4
ENDMDL
MODEL 7
REMARK VINA RESULT:      -7.4      2.703      9.192
REMARK  Name = 
REMARK  4 active torsions:
REMARK  status: ('A' for Active; 'I' for Inactive)
REMARK    1  A    between atoms: C_2  and  C_3
REMARK    2  A    between atoms: C_11  and  N_12
REMARK    3  A    between atoms: C_19  and  C_20
REMARK    4  A    between atoms: C_22  and  C_23
REMARK                            x       y       z     vdW  Elec       q    Type
REMARK                         _______ _______ _______ _____ _____    ______ ____
ROOT
ATOM      1  N   UNL     1       1.701   7.132  20.764  0.00  0.00    +0.000 N 
ATOM      2  C   UNL     1       1.062   8.264  20.325  0.00  0.00    +0.000 C 
ATOM      3  O   UNL     1       0.724   8.416  19.151  0.00  0.00    +0.000 OA
ATOM      4  N   UNL     1       0.802   9.225  21.271  0.00  0.00    +0.000 N 
ATOM      5  C   UNL     1       1.205   9.265  22.666  0.00  0.00    +0.000 C 
ATOM      6  C   UNL     1      -0.002   9.862  23.364  0.00  0.00    +0.000 C 
ATOM      7  C   UNL     1      -0.534  10.879  22.362  0.00  0.00    +0.000 C 
ATOM      8  C   UNL     1      -0.101  10.347  20.979  0.00  0.00    +0.000 C 
ATOM      9  H   UNL     1       1.624   6.904  21.741  0.00  0.00    +0.000 HD
ENDROOT
BRANCH   1  18
ATOM     10  C   UNL     1       5.437   6.024  17.399  0.00  0.00    +0.000 A 
ATOM     11  C   UNL     1       4.567   7.124  17.299  0.00  0.00    +0.000 A 
ATOM     12  C   UNL     1       3.413   7.204  18.094  0.00  0.00    +0.000 A 
ATOM     13  C   UNL     1       3.138   6.176  18.988  0.00  0.00    +0.000 A 
ATOM     14  C   UNL     1       4.000   5.081  19.078  0.00  0.00    +0.000 A 
ATOM     15  C   UNL     1       5.152   4.992  18.300  0.00  0.00    +0.000 A 
ATOM     16  C   UNL     1       3.501   4.051  20.033  0.00  0.00    +0.000 C 
ATOM     17  C   UNL     1       2.244   4.695  20.631  0.00  0.00    +0.000 C 
ATOM     18  C   UNL     1       1.926   6.004  19.870  0.00  0.00    +0.000 C 
BRANCH  10  20
ATOM     19  N   UNL     1       7.550   5.883  15.894  0.00  0.00    +0.000 NA
ATOM     20  C   UNL     1       6.605   5.949  16.569  0.00  0.00    +0.000 C 
ENDBRANCH  10  20
ENDBRANCH   1  18
BRANCH   8  21
ATOM     21  C   UNL     1       0.569  11.416  20.171  0.00  0.00    +0.000 A 
ATOM     22  N   UNL     1       0.356  12.716  20.195  0.00  0.00    +0.000 NA
ATOM     23  C   UNL     1       1.114  13.211  19.157  0.00  0.00    +0.000 A 
ATOM     24  N   UNL     1       1.814  12.262  18.511  0.00  0.00    +0.000 NA
ATOM     25  N   UNL     1       1.466  11.147  19.180  0.00  0.00    +0.000 N 
ATOM     26  H   UNL     1       1.850  10.242  18.915  0.00  0.00    +0.000 HD
BRANCH  23  27
ATOM     27  C   UNL     1       1.091  14.628  18.795  0.00  0.00    +0.000 A 
ATOM     28  C   UNL     1       2.289  15.297  18.488  0.00  0.00    +0.000 A 
ATOM     29  C   UNL     1       2.290  16.659  18.170  0.00  0.00    +0.000 A 
ATOM     30  C   UNL     1       1.093  17.370  18.157  0.00  0.00    +0.000 A 
ATOM     31  C   UNL     1      -0.105  16.721  18.453  0.00  0.00    +0.000 A 
ATOM     32  C   UNL     1      -0.108  15.357  18.769  0.00  0.00    +0.000 A 
ENDBRANCH  23  27
ENDBRANCH   8  21
TORSDOF 4
ENDMDL
MODEL 8
REMARK VINA RESULT:      -7.3      6.321     10.369
REMARK  Name = 
REMARK  4 active torsions:
REMARK  status: ('A' for Active; 'I' for Inactive)
REMARK    1  A    between atoms: C_2  and  C_3
REMARK    2  A    between atoms: C_11  and  N_12
REMARK    3  A    between atoms: C_19  and  C_20
REMARK    4  A    between atoms: C_22  and  C_23
REMARK                            x       y       z     vdW  Elec       q    Type
REMARK                         _______ _______ _______ _____ _____    ______ ____
ROOT
ATOM      1  N   UNL     1      -6.064  12.332  21.953  0.00  0.00    +0.000 N 
ATOM      2  C   UNL     1      -4.730  12.461  21.662  0.00  0.00    +0.000 C 
ATOM      3  O   UNL     1      -4.283  12.294  20.527  0.00  0.00    +0.000 OA
ATOM      4  N   UNL     1      -3.906  12.805  22.707  0.00  0.00    +0.000 N 
ATOM      5  C   UNL     1      -4.231  12.948  24.115  0.00  0.00    +0.000 C 
ATOM      6  C   UNL     1      -3.398  14.139  24.550  0.00  0.00    +0.000 C 
ATOM      7  C   UNL     1      -2.112  13.994  23.745  0.00  0.00    +0.000 C 
ATOM      8  C   UNL     1      -2.520  13.228  22.469  0.00  0.00    +0.000 C 
ATOM      9  H   UNL     1      -6.413  12.817  22.762  0.00  0.00    +0.000 HD
ENDROOT
BRANCH   1  18
ATOM     10  C   UNL     1      -7.112  14.711  17.508  0.00  0.00    +0.000 A 
ATOM     11  C   UNL     1      -7.256  15.289  18.782  0.00  0.00    +0.000 A 
ATOM     12  C   UNL     1      -7.214  14.499  19.941  0.00  0.00    +0.000 A 
ATOM     13  C   UNL     1      -7.028  13.127  19.815  0.00  0.00    +0.000 A 
ATOM     14  C   UNL     1      -6.894  12.556  18.547  0.00  0.00    +0.000 A 
ATOM     15  C   UNL     1      -6.926  13.329  17.390  0.00  0.00    +0.000 A 
ATOM     16  C   UNL     1      -6.778  11.071  18.611  0.00  0.00    +0.000 C 
ATOM     17  C   UNL     1      -6.744  10.778  20.116  0.00  0.00    +0.000 C 
ATOM     18  C   UNL     1      -7.038  12.080  20.900  0.00  0.00    +0.000 C 
BRANCH  10  20
ATOM     19  N   UNL     1      -7.224  16.197  15.381  0.00  0.00    +0.000 NA
ATOM     20  C   UNL     1      -7.172  15.531  16.332  0.00  0.00    +0.000 C 
ENDBRANCH  10  20
ENDBRANCH   1  18
BRANCH   8  21
ATOM     21  C   UNL     1      -1.609  12.065  22.218  0.00  0.00    +0.000 A 
ATOM     22  N   UNL     1      -0.918  11.784  21.132  0.00  0.00    +0.000 NA
ATOM     23  C   UNL     1      -0.383  10.538  21.375  0.00  0.00    +0.000 A 
ATOM     24  N   UNL     1      -0.695  10.053  22.589  0.00  0.00    +0.000 NA
ATOM     25  N   UNL     1      -1.451  11.040  23.104  0.00  0.00    +0.000 N 
ATOM     26  H   UNL     1      -1.842  10.960  24.041  0.00  0.00    +0.000 HD
BRANCH  23  27
ATOM     27  C   UNL     1       0.399   9.827  20.363  0.00  0.00    +0.000 A 
ATOM     28  C   UNL     1       0.353  10.239  19.020  0.00  0.00    +0.000 A 
ATOM     29  C   UNL     1       1.069   9.553  18.034  0.00  0.00    +0.000 A 
ATOM     30  C   UNL     1       1.839   8.445  18.378  0.00  0.00    +0.000 A 
ATOM     31  C   UNL     1       1.900   8.027  19.706  0.00  0.00    +0.000 A 
ATOM     32  C   UNL     1       1.186   8.714  20.695  0.00  0.00    +0.000 A 
ENDBRANCH  23  27
ENDBRANCH   8  21
TORSDOF 4
ENDMDL
MODEL 9
REMARK VINA RESULT:      -7.3      3.884     11.006
REMARK  Name = 
REMARK  4 active torsions:
REMARK  status: ('A' for Active; 'I' for Inactive)
REMARK    1  A    between atoms: C_2  and  C_3
REMARK    2  A    between atoms: C_11  and  N_12
REMARK    3  A    between atoms: C_19  and  C_20
REMARK    4  A    between atoms: C_22  and  C_23
REMARK                            x       y       z     vdW  Elec       q    Type
REMARK                         _______ _______ _______ _____ _____    ______ ____
ROOT
ATOM      1  N   UNL     1       0.730   8.910  18.414  0.00  0.00    +0.000 N 
ATOM      2  C   UNL     1       0.285  10.201  18.541  0.00  0.00    +0.000 C 
ATOM      3  O   UNL     1       0.979  11.092  19.032  0.00  0.00    +0.000 OA
ATOM      4  N   UNL     1      -0.981  10.461  18.076  0.00  0.00    +0.000 N 
ATOM      5  C   UNL     1      -1.972   9.531  17.561  0.00  0.00    +0.000 C 
ATOM      6  C   UNL     1      -2.621  10.302  16.427  0.00  0.00    +0.000 C 
ATOM      7  C   UNL     1      -2.645  11.739  16.934  0.00  0.00    +0.000 C 
ATOM      8  C   UNL     1      -1.459  11.840  17.916  0.00  0.00    +0.000 C 
ATOM      9  H   UNL     1       0.300   8.337  17.708  0.00  0.00    +0.000 HD
ENDROOT
BRANCH   1  18
ATOM     10  C   UNL     1       2.864   4.557  20.150  0.00  0.00    +0.000 A 
ATOM     11  C   UNL     1       1.895   5.307  20.839  0.00  0.00    +0.000 A 
ATOM     12  C   UNL     1       1.567   6.609  20.432  0.00  0.00    +0.000 A 
ATOM     13  C   UNL     1       2.217   7.155  19.331  0.00  0.00    +0.000 A 
ATOM     14  C   UNL     1       3.186   6.410  18.654  0.00  0.00    +0.000 A 
ATOM     15  C   UNL     1       3.515   5.114  19.043  0.00  0.00    +0.000 A 
ATOM     16  C   UNL     1       3.822   7.187  17.552  0.00  0.00    +0.000 C 
ATOM     17  C   UNL     1       3.040   8.506  17.546  0.00  0.00    +0.000 C 
ATOM     18  C   UNL     1       2.096   8.550  18.772  0.00  0.00    +0.000 C 
BRANCH  10  20
ATOM     19  N   UNL     1       3.473   2.158  20.938  0.00  0.00    +0.000 NA
ATOM     20  C   UNL     1       3.199   3.233  20.588  0.00  0.00    +0.000 C 
ENDBRANCH  10  20
ENDBRANCH   1  18
BRANCH   8  21
ATOM     21  C   UNL     1      -1.884  12.447  19.219  0.00  0.00    +0.000 A 
ATOM     22  N   UNL     1      -2.706  11.954  20.123  0.00  0.00    +0.000 NA
ATOM     23  C   UNL     1      -2.867  12.973  21.036  0.00  0.00    +0.000 A 
ATOM     24  N   UNL     1      -2.147  14.069  20.742  0.00  0.00    +0.000 NA
ATOM     25  N   UNL     1      -1.526  13.705  19.605  0.00  0.00    +0.000 N 
ATOM     26  H   UNL     1      -0.891  14.345  19.132  0.00  0.00    +0.000 HD
BRANCH  23  27
ATOM     27  C   UNL     1      -3.782  12.850  22.172  0.00  0.00    +0.000 A 
ATOM     28  C   UNL     1      -5.157  13.088  21.997  0.00  0.00    +0.000 A 
ATOM     29  C   UNL     1      -6.043  13.006  23.076  0.00  0.00    +0.000 A 
ATOM     30  C   UNL     1      -5.565  12.686  24.344  0.00  0.00    +0.000 A 
ATOM     31  C   UNL     1      -4.205  12.442  24.533  0.00  0.00    +0.000 A 
ATOM     32  C   UNL     1      -3.318  12.521  23.453  0.00  0.00    +0.000 A 
ENDBRANCH  23  27
ENDBRANCH   8  21
TORSDOF 4
ENDMDL
