MODEL 1
REMARK VINA RESULT:      -8.2      0.000      0.000
REMARK  Name = 
REMARK  4 active torsions:
REMARK  status: ('A' for Active; 'I' for Inactive)
REMARK    1  A    between atoms: C_2  and  C_3
REMARK    2  A    between atoms: C_3  and  C_4
REMARK    3  A    between atoms: N_15  and  C_16
REMARK    4  A    between atoms: C_16  and  C_17
REMARK                            x       y       z     vdW  Elec       q    Type
REMARK                         _______ _______ _______ _____ _____    ______ ____
ROOT
ATOM      1  O   UNL     1       2.258   3.011  20.366  0.00  0.00    +0.000 OA
ATOM      2  C   UNL     1       3.099   3.723  19.822  0.00  0.00    +0.000 C 
ATOM      3  N   UNL     1       3.053   5.098  19.841  0.00  0.00    +0.000 N 
ATOM      4  H   UNL     1       3.890   5.614  19.589  0.00  0.00    +0.000 HD
ENDROOT
BRANCH   2   5
ATOM      5  C   UNL     1       4.205   3.119  18.998  0.00  0.00    +0.000 C 
BRANCH   5   6
ATOM      6  C   UNL     1       5.397   4.015  18.737  0.00  0.00    +0.000 A 
ATOM      7  N   UNL     1       5.991   4.513  19.782  0.00  0.00    +0.000 NA
ATOM      8  N   UNL     1       6.962   5.452  19.573  0.00  0.00    +0.000 N 
ATOM      9  C   UNL     1       7.275   6.033  18.370  0.00  0.00    +0.000 A 
ATOM     10  O   UNL     1       8.055   6.974  18.276  0.00  0.00    +0.000 OA
ATOM     11  C   UNL     1       6.652   5.428  17.178  0.00  0.00    +0.000 A 
ATOM     12  C   UNL     1       6.964   5.900  15.900  0.00  0.00    +0.000 A 
ATOM     13  C   UNL     1       6.433   5.261  14.780  0.00  0.00    +0.000 A 
ATOM     14  C   UNL     1       5.623   4.136  14.940  0.00  0.00    +0.000 A 
ATOM     15  C   UNL     1       5.295   3.679  16.221  0.00  0.00    +0.000 A 
ATOM     16  C   UNL     1       5.780   4.353  17.348  0.00  0.00    +0.000 A 
ATOM     17  H   UNL     1       7.370   5.873  20.408  0.00  0.00    +0.000 HD
ENDBRANCH   5   6
ENDBRANCH   2   5
BRANCH   3  18
ATOM     18  C   UNL     1       2.006   5.794  20.556  0.00  0.00    +0.000 C 
BRANCH  18  19
ATOM     19  C   UNL     1       1.802   7.200  20.051  0.00  0.00    +0.000 A 
ATOM     20  C   UNL     1       2.220   7.561  18.759  0.00  0.00    +0.000 A 
ATOM     21  C   UNL     1       1.993   8.850  18.268  0.00  0.00    +0.000 A 
ATOM     22  C   UNL     1       1.355   9.796  19.067  0.00  0.00    +0.000 A 
ATOM     23  C   UNL     1       0.926   9.446  20.351  0.00  0.00    +0.000 A 
ATOM     24  C   UNL     1       1.168   8.164  20.851  0.00  0.00    +0.000 A 
ATOM     25  O   UNL     1       0.252  10.311  21.178  0.00  0.00    +0.000 OA
ATOM     26  C   UNL     1      -0.255  11.437  20.451  0.00  0.00    +0.000 C 
ATOM     27  C   UNL     1       0.811  12.000  19.526  0.00  0.00    +0.000 C 
ATOM     28  O   UNL     1       1.168  11.041  18.523  0.00  0.00    +0.000 OA
ENDBRANCH  18  19
ENDBRANCH   3  18
TORSDOF 4
ENDMDL
MODEL 2
REMARK VINA RESULT:      -8.1      3.082      5.104
REMARK  Name = 
REMARK  4 active torsions:
REMARK  status: ('A' for Active; 'I' for Inactive)
REMARK    1  A    between atoms: C_2  and  C_3
REMARK    2  A    between atoms: C_3  and  C_4
REMARK    3  A    between atoms: N_15  and  C_16
REMARK    4  A    between atoms: C_16  and  C_17
REMARK                            x       y       z     vdW  Elec       q    Type
REMARK                         _______ _______ _______ _____ _____    ______ ____
ROOT
ATOM      1  O   UNL     1       1.403   8.882  21.983  0.00  0.00    +0.000 OA
ATOM      2  C   UNL     1       1.317   8.223  20.949  0.00  0.00    +0.000 C 
ATOM      3  N   UNL     1       1.088   8.782  19.713  0.00  0.00    +0.000 N 
ATOM      4  H   UNL     1       1.269   8.220  18.887  0.00  0.00    +0.000 HD
ENDROOT
BRANCH   2   5
ATOM      5  C   UNL     1       1.359   6.719  20.986  0.00  0.00    +0.000 C 
BRANCH   5   6
ATOM      6  C   UNL     1       2.245   6.058  19.952  0.00  0.00    +0.000 A 
ATOM      7  N   UNL     1       3.182   6.796  19.431  0.00  0.00    +0.000 NA
ATOM      8  N   UNL     1       3.887   6.279  18.381  0.00  0.00    +0.000 N 
ATOM      9  C   UNL     1       3.608   5.108  17.723  0.00  0.00    +0.000 A 
ATOM     10  O   UNL     1       4.191   4.775  16.697  0.00  0.00    +0.000 OA
ATOM     11  C   UNL     1       2.593   4.240  18.347  0.00  0.00    +0.000 A 
ATOM     12  C   UNL     1       2.290   2.993  17.794  0.00  0.00    +0.000 A 
ATOM     13  C   UNL     1       1.392   2.148  18.445  0.00  0.00    +0.000 A 
ATOM     14  C   UNL     1       0.826   2.539  19.659  0.00  0.00    +0.000 A 
ATOM     15  C   UNL     1       1.114   3.797  20.200  0.00  0.00    +0.000 A 
ATOM     16  C   UNL     1       1.972   4.669  19.520  0.00  0.00    +0.000 A 
ATOM     17  H   UNL     1       4.573   6.899  17.949  0.00  0.00    +0.000 HD
ENDBRANCH   5   6
ENDBRANCH   2   5
BRANCH   3  18
ATOM     18  C   UNL     1       0.976  10.216  19.558  0.00  0.00    +0.000 C 
BRANCH  18  19
ATOM     19  C   UNL     1      -0.376  10.634  19.036  0.00  0.00    +0.000 A 
ATOM     20  C   UNL     1      -1.177  11.526  19.768  0.00  0.00    +0.000 A 
ATOM     21  C   UNL     1      -2.412  11.953  19.269  0.00  0.00    +0.000 A 
ATOM     22  C   UNL     1      -2.863  11.484  18.037  0.00  0.00    +0.000 A 
ATOM     23  C   UNL     1      -2.070  10.604  17.295  0.00  0.00    +0.000 A 
ATOM     24  C   UNL     1      -0.845  10.161  17.801  0.00  0.00    +0.000 A 
ATOM     25  O   UNL     1      -2.428  10.134  16.056  0.00  0.00    +0.000 OA
ATOM     26  C   UNL     1      -3.488  10.916  15.491  0.00  0.00    +0.000 C 
ATOM     27  C   UNL     1      -4.580  11.158  16.518  0.00  0.00    +0.000 C 
ATOM     28  O   UNL     1      -4.083  11.941  17.610  0.00  0.00    +0.000 OA
ENDBRANCH  18  19
ENDBRANCH   3  18
TORSDOF 4
ENDMDL
MODEL 3
REMARK VINA RESULT:      -8.1      5.126      7.575
REMARK  Name = 
REMARK  4 active torsions:
REMARK  status: ('A' for Active; 'I' for Inactive)
REMARK    1  A    between atoms: C_2  and  C_3
REMARK    2  A    between atoms: C_3  and  C_4
REMARK    3  A    between atoms: N_15  and  C_16
REMARK    4  A    between atoms: C_16  and  C_17
REMARK                            x       y       z     vdW  Elec       q    Type
REMARK                         _______ _______ _______ _____ _____    ______ ____
ROOT
ATOM      1  O   UNL     1       8.192   6.766  18.757  0.00  0.00    +0.000 OA
ATOM      2  C   UNL     1       7.754   7.540  17.909  0.00  0.00    +0.000 C 
ATOM      3  N   UNL     1       8.035   8.887  17.899  0.00  0.00    +0.000 N 
ATOM      4  H   UNL     1       7.847   9.414  17.052  0.00  0.00    +0.000 HD
ENDROOT
BRANCH   2   5
ATOM      5  C   UNL     1       6.781   7.069  16.862  0.00  0.00    +0.000 C 
BRANCH   5   6
ATOM      6  C   UNL     1       5.919   5.887  17.247  0.00  0.00    +0.000 A 
ATOM      7  N   UNL     1       6.465   4.710  17.145  0.00  0.00    +0.000 NA
ATOM      8  N   UNL     1       5.662   3.620  17.326  0.00  0.00    +0.000 N 
ATOM      9  C   UNL     1       4.297   3.638  17.464  0.00  0.00    +0.000 A 
ATOM     10  O   UNL     1       3.622   2.615  17.476  0.00  0.00    +0.000 OA
ATOM     11  C   UNL     1       3.683   4.967  17.644  0.00  0.00    +0.000 A 
ATOM     12  C   UNL     1       2.308   5.088  17.865  0.00  0.00    +0.000 A 
ATOM     13  C   UNL     1       1.757   6.343  18.120  0.00  0.00    +0.000 A 
ATOM     14  C   UNL     1       2.585   7.465  18.185  0.00  0.00    +0.000 A 
ATOM     15  C   UNL     1       3.958   7.344  17.943  0.00  0.00    +0.000 A 
ATOM     16  C   UNL     1       4.504   6.094  17.631  0.00  0.00    +0.000 A 
ATOM     17  H   UNL     1       6.098   2.709  17.181  0.00  0.00    +0.000 HD
ENDBRANCH   5   6
ENDBRANCH   2   5
BRANCH   3  18
ATOM     18  C   UNL     1       8.917   9.468  18.888  0.00  0.00    +0.000 C 
BRANCH  18  19
ATOM     19  C   UNL     1       9.353  10.864  18.519  0.00  0.00    +0.000 A 
ATOM     20  C   UNL     1       8.490  11.717  17.812  0.00  0.00    +0.000 A 
ATOM     21  C   UNL     1       8.870  13.027  17.507  0.00  0.00    +0.000 A 
ATOM     22  C   UNL     1      10.122  13.496  17.898  0.00  0.00    +0.000 A 
ATOM     23  C   UNL     1      10.985  12.660  18.612  0.00  0.00    +0.000 A 
ATOM     24  C   UNL     1      10.615  11.345  18.901  0.00  0.00    +0.000 A 
ATOM     25  O   UNL     1      12.215  13.066  19.068  0.00  0.00    +0.000 OA
ATOM     26  C   UNL     1      12.333  14.494  19.043  0.00  0.00    +0.000 C 
ATOM     27  C   UNL     1      11.830  15.049  17.721  0.00  0.00    +0.000 C 
ATOM     28  O   UNL     1      10.430  14.790  17.564  0.00  0.00    +0.000 OA
ENDBRANCH  18  19
ENDBRANCH   3  18
TORSDOF 4
ENDMDL
MODEL 4
REMARK VINA RESULT:      -8.1      5.670      7.536
REMARK  Name = 
REMARK  4 active torsions:
REMARK  status: ('A' for Active; 'I' for Inactive)
REMARK    1  A    between atoms: C_2  and  C_3
REMARK    2  A    between atoms: C_3  and  C_4
REMARK    3  A    between atoms: N_15  and  C_16
REMARK    4  A    between atoms: C_16  and  C_17
REMARK                            x       y       z     vdW  Elec       q    Type
REMARK                         _______ _______ _______ _____ _____    ______ ____
ROOT
ATOM      1  O   UNL     1       8.540   7.547  18.719  0.00  0.00    +0.000 OA
ATOM      2  C   UNL     1       7.918   8.409  18.102  0.00  0.00    +0.000 C 
ATOM      3  N   UNL     1       8.240   9.746  18.140  0.00  0.00    +0.000 N 
ATOM      4  H   UNL     1       7.848  10.359  17.432  0.00  0.00    +0.000 HD
ENDROOT
BRANCH   2   5
ATOM      5  C   UNL     1       6.677   8.059  17.326  0.00  0.00    +0.000 C 
BRANCH   5   6
ATOM      6  C   UNL     1       6.564   6.619  16.877  0.00  0.00    +0.000 A 
ATOM      7  N   UNL     1       7.519   6.169  16.116  0.00  0.00    +0.000 NA
ATOM      8  N   UNL     1       7.361   4.930  15.563  0.00  0.00    +0.000 N 
ATOM      9  C   UNL     1       6.222   4.166  15.612  0.00  0.00    +0.000 A 
ATOM     10  O   UNL     1       6.097   3.128  14.972  0.00  0.00    +0.000 OA
ATOM     11  C   UNL     1       5.164   4.639  16.523  0.00  0.00    +0.000 A 
ATOM     12  C   UNL     1       3.995   3.893  16.699  0.00  0.00    +0.000 A 
ATOM     13  C   UNL     1       3.043   4.311  17.629  0.00  0.00    +0.000 A 
ATOM     14  C   UNL     1       3.277   5.451  18.399  0.00  0.00    +0.000 A 
ATOM     15  C   UNL     1       4.438   6.208  18.205  0.00  0.00    +0.000 A 
ATOM     16  C   UNL     1       5.367   5.822  17.233  0.00  0.00    +0.000 A 
ATOM     17  H   UNL     1       8.093   4.624  14.922  0.00  0.00    +0.000 HD
ENDBRANCH   5   6
ENDBRANCH   2   5
BRANCH   3  18
ATOM     18  C   UNL     1       9.382  10.212  18.896  0.00  0.00    +0.000 C 
BRANCH  18  19
ATOM     19  C   UNL     1       9.867  11.562  18.430  0.00  0.00    +0.000 A 
ATOM     20  C   UNL     1      11.040  11.672  17.664  0.00  0.00    +0.000 A 
ATOM     21  C   UNL     1      11.471  12.914  17.190  0.00  0.00    +0.000 A 
ATOM     22  C   UNL     1      10.739  14.062  17.484  0.00  0.00    +0.000 A 
ATOM     23  C   UNL     1       9.565  13.964  18.236  0.00  0.00    +0.000 A 
ATOM     24  C   UNL     1       9.143  12.727  18.727  0.00  0.00    +0.000 A 
ATOM     25  O   UNL     1       8.770  15.044  18.529  0.00  0.00    +0.000 OA
ATOM     26  C   UNL     1       9.085  16.164  17.691  0.00  0.00    +0.000 C 
ATOM     27  C   UNL     1      10.588  16.369  17.616  0.00  0.00    +0.000 C 
ATOM     28  O   UNL     1      11.222  15.248  16.990  0.00  0.00    +0.000 OA
ENDBRANCH  18  19
ENDBRANCH   3  18
TORSDOF 4
ENDMDL
MODEL 5
REMARK VINA RESULT:      -8.0      3.258      5.184
REMARK  Name = 
REMARK  4 active torsions:
REMARK  status: ('A' for Active; 'I' for Inactive)
REMARK    1  A    between atoms: C_2  and  C_3
REMARK    2  A    between atoms: C_3  and  C_4
REMARK    3  A    between atoms: N_15  and  C_16
REMARK    4  A    between atoms: C_16  and  C_17
REMARK                            x       y       z     vdW  Elec       q    Type
REMARK                         _______ _______ _______ _____ _____    ______ ____
ROOT
ATOM      1  O   UNL     1       1.335   9.405  21.563  0.00  0.00    +0.000 OA
ATOM      2  C   UNL     1       1.230   8.591  20.647  0.00  0.00    +0.000 C 
ATOM      3  N   UNL     1       0.857   8.936  19.369  0.00  0.00    +0.000 N 
ATOM      4  H   UNL     1       1.023   8.270  18.620  0.00  0.00    +0.000 HD
ENDROOT
BRANCH   2   5
ATOM      5  C   UNL     1       1.409   7.118  20.899  0.00  0.00    +0.000 C 
BRANCH   5   6
ATOM      6  C   UNL     1       2.240   6.371  19.878  0.00  0.00    +0.000 A 
ATOM      7  N   UNL     1       3.160   7.056  19.263  0.00  0.00    +0.000 NA
ATOM      8  N   UNL     1       3.811   6.454  18.223  0.00  0.00    +0.000 N 
ATOM      9  C   UNL     1       3.490   5.242  17.665  0.00  0.00    +0.000 A 
ATOM     10  O   UNL     1       4.022   4.827  16.642  0.00  0.00    +0.000 OA
ATOM     11  C   UNL     1       2.495   4.436  18.396  0.00  0.00    +0.000 A 
ATOM     12  C   UNL     1       2.154   3.156  17.950  0.00  0.00    +0.000 A 
ATOM     13  C   UNL     1       1.276   2.374  18.701  0.00  0.00    +0.000 A 
ATOM     14  C   UNL     1       0.771   2.861  19.907  0.00  0.00    +0.000 A 
ATOM     15  C   UNL     1       1.097   4.151  20.341  0.00  0.00    +0.000 A 
ATOM     16  C   UNL     1       1.932   4.958  19.561  0.00  0.00    +0.000 A 
ATOM     17  H   UNL     1       4.484   7.030  17.717  0.00  0.00    +0.000 HD
ENDBRANCH   5   6
ENDBRANCH   2   5
BRANCH   3  18
ATOM     18  C   UNL     1       0.605  10.316  19.017  0.00  0.00    +0.000 C 
BRANCH  18  19
ATOM     19  C   UNL     1      -0.791  10.528  18.488  0.00  0.00    +0.000 A 
ATOM     20  C   UNL     1      -1.242   9.819  17.362  0.00  0.00    +0.000 A 
ATOM     21  C   UNL     1      -2.549   9.977  16.893  0.00  0.00    +0.000 A 
ATOM     22  C   UNL     1      -3.418  10.853  17.539  0.00  0.00    +0.000 A 
ATOM     23  C   UNL     1      -2.985  11.557  18.667  0.00  0.00    +0.000 A 
ATOM     24  C   UNL     1      -1.673  11.415  19.125  0.00  0.00    +0.000 A 
ATOM     25  O   UNL     1      -3.796  12.404  19.380  0.00  0.00    +0.000 OA
ATOM     26  C   UNL     1      -5.177  12.195  19.057  0.00  0.00    +0.000 C 
ATOM     27  C   UNL     1      -5.366  12.105  17.552  0.00  0.00    +0.000 C 
ATOM     28  O   UNL     1      -4.685  10.961  17.024  0.00  0.00    +0.000 OA
ENDBRANCH  18  19
ENDBRANCH   3  18
TORSDOF 4
ENDMDL
MODEL 6
REMARK VINA RESULT:      -7.9      2.886      8.553
REMARK  Name = 
REMARK  4 active torsions:
REMARK  status: ('A' for Active; 'I' for Inactive)
REMARK    1  A    between atoms: C_2  and  C_3
REMARK    2  A    between atoms: C_3  and  C_4
REMARK    3  A    between atoms: N_15  and  C_16
REMARK    4  A    between atoms: C_16  and  C_17
REMARK                            x       y       z     vdW  Elec       q    Type
REMARK                         _______ _______ _______ _____ _____    ______ ____
ROOT
ATOM      1  O   UNL     1       2.408  10.559  17.573  0.00  0.00    +0.000 OA
ATOM      2  C   UNL     1       1.718   9.709  18.132  0.00  0.00    +0.000 C 
ATOM      3  N   UNL     1       2.027   8.369  18.136  0.00  0.00    +0.000 N 
ATOM      4  H   UNL     1       1.559   7.767  18.807  0.00  0.00    +0.000 HD
ENDROOT
BRANCH   2   5
ATOM      5  C   UNL     1       0.410  10.079  18.778  0.00  0.00    +0.000 C 
BRANCH   5   6
ATOM      6  C   UNL     1       0.407  10.108  20.291  0.00  0.00    +0.000 A 
ATOM      7  N   UNL     1       1.222   9.290  20.891  0.00  0.00    +0.000 NA
ATOM      8  N   UNL     1       1.122   9.177  22.249  0.00  0.00    +0.000 N 
ATOM      9  C   UNL     1       0.145   9.734  23.034  0.00  0.00    +0.000 A 
ATOM     10  O   UNL     1       0.029   9.473  24.226  0.00  0.00    +0.000 OA
ATOM     11  C   UNL     1      -0.739  10.710  22.371  0.00  0.00    +0.000 A 
ATOM     12  C   UNL     1      -1.720  11.388  23.102  0.00  0.00    +0.000 A 
ATOM     13  C   UNL     1      -2.489  12.370  22.479  0.00  0.00    +0.000 A 
ATOM     14  C   UNL     1      -2.254  12.692  21.142  0.00  0.00    +0.000 A 
ATOM     15  C   UNL     1      -1.287  11.998  20.407  0.00  0.00    +0.000 A 
ATOM     16  C   UNL     1      -0.553  10.973  21.014  0.00  0.00    +0.000 A 
ATOM     17  H   UNL     1       1.729   8.485  22.690  0.00  0.00    +0.000 HD
ENDBRANCH   5   6
ENDBRANCH   2   5
BRANCH   3  18
ATOM     18  C   UNL     1       3.233   7.884  17.501  0.00  0.00    +0.000 C 
BRANCH  18  19
ATOM     19  C   UNL     1       3.482   6.423  17.781  0.00  0.00    +0.000 A 
ATOM     20  C   UNL     1       4.793   5.925  17.856  0.00  0.00    +0.000 A 
ATOM     21  C   UNL     1       5.032   4.581  18.160  0.00  0.00    +0.000 A 
ATOM     22  C   UNL     1       3.961   3.718  18.382  0.00  0.00    +0.000 A 
ATOM     23  C   UNL     1       2.652   4.204  18.320  0.00  0.00    +0.000 A 
ATOM     24  C   UNL     1       2.411   5.542  17.998  0.00  0.00    +0.000 A 
ATOM     25  O   UNL     1       1.550   3.425  18.570  0.00  0.00    +0.000 OA
ATOM     26  C   UNL     1       1.915   2.207  19.233  0.00  0.00    +0.000 C 
ATOM     27  C   UNL     1       3.116   1.569  18.558  0.00  0.00    +0.000 C 
ATOM     28  O   UNL     1       4.268   2.413  18.673  0.00  0.00    +0.000 OA
ENDBRANCH  18  19
ENDBRANCH   3  18
TORSDOF 4
ENDMDL
MODEL 7
REMARK VINA RESULT:      -7.8      2.957      4.486
REMARK  Name = 
REMARK  4 active torsions:
REMARK  status: ('A' for Active; 'I' for Inactive)
REMARK    1  A    between atoms: C_2  and  C_3
REMARK    2  A    between atoms: C_3  and  C_4
REMARK    3  A    between atoms: N_15  and  C_16
REMARK    4  A    between atoms: C_16  and  C_17
REMARK                            x       y       z     vdW  Elec       q    Type
REMARK                         _______ _______ _______ _____ _____    ______ ____
ROOT
ATOM      1  O   UNL     1       1.961   7.641  19.958  0.00  0.00    +0.000 OA
ATOM      2  C   UNL     1       2.070   8.173  18.855  0.00  0.00    +0.000 C 
ATOM      3  N   UNL     1       1.560   9.417  18.563  0.00  0.00    +0.000 N 
ATOM      4  H   UNL     1       1.888   9.891  17.728  0.00  0.00    +0.000 HD
ENDROOT
BRANCH   2   5
ATOM      5  C   UNL     1       2.696   7.438  17.701  0.00  0.00    +0.000 C 
BRANCH   5   6
ATOM      6  C   UNL     1       3.382   6.134  18.043  0.00  0.00    +0.000 A 
ATOM      7  N   UNL     1       2.619   5.166  18.460  0.00  0.00    +0.000 NA
ATOM      8  N   UNL     1       3.227   4.037  18.932  0.00  0.00    +0.000 N 
ATOM      9  C   UNL     1       4.572   3.876  19.147  0.00  0.00    +0.000 A 
ATOM     10  O   UNL     1       5.036   2.891  19.710  0.00  0.00    +0.000 OA
ATOM     11  C   UNL     1       5.444   4.941  18.619  0.00  0.00    +0.000 A 
ATOM     12  C   UNL     1       6.834   4.836  18.723  0.00  0.00    +0.000 A 
ATOM     13  C   UNL     1       7.646   5.809  18.141  0.00  0.00    +0.000 A 
ATOM     14  C   UNL     1       7.067   6.863  17.433  0.00  0.00    +0.000 A 
ATOM     15  C   UNL     1       5.675   6.978  17.349  0.00  0.00    +0.000 A 
ATOM     16  C   UNL     1       4.858   6.033  17.980  0.00  0.00    +0.000 A 
ATOM     17  H   UNL     1       2.610   3.316  19.310  0.00  0.00    +0.000 HD
ENDBRANCH   5   6
ENDBRANCH   2   5
BRANCH   3  18
ATOM     18  C   UNL     1       0.888  10.200  19.578  0.00  0.00    +0.000 C 
BRANCH  18  19
ATOM     19  C   UNL     1      -0.489  10.638  19.148  0.00  0.00    +0.000 A 
ATOM     20  C   UNL     1      -1.238  11.519  19.947  0.00  0.00    +0.000 A 
ATOM     21  C   UNL     1      -2.497  11.965  19.532  0.00  0.00    +0.000 A 
ATOM     22  C   UNL     1      -3.024  11.529  18.319  0.00  0.00    +0.000 A 
ATOM     23  C   UNL     1      -2.283  10.661  17.511  0.00  0.00    +0.000 A 
ATOM     24  C   UNL     1      -1.034  10.198  17.932  0.00  0.00    +0.000 A 
ATOM     25  O   UNL     1      -2.718  10.223  16.284  0.00  0.00    +0.000 OA
ATOM     26  C   UNL     1      -3.804  11.025  15.802  0.00  0.00    +0.000 C 
ATOM     27  C   UNL     1      -4.831  11.250  16.898  0.00  0.00    +0.000 C 
ATOM     28  O   UNL     1      -4.264  12.004  17.976  0.00  0.00    +0.000 OA
ENDBRANCH  18  19
ENDBRANCH   3  18
TORSDOF 4
ENDMDL
MODEL 8
REMARK VINA RESULT:      -7.8      3.335      5.116
REMARK  Name = 
REMARK  4 active torsions:
REMARK  status: ('A' for Active; 'I' for Inactive)
REMARK    1  A    between atoms: C_2  and  C_3
REMARK    2  A    between atoms: C_3  and  C_4
REMARK    3  A    between atoms: N_15  and  C_16
REMARK    4  A    between atoms: C_16  and  C_17
REMARK                            x       y       z     vdW  Elec       q    Type
REMARK                         _______ _______ _______ _____ _____    ______ ____
ROOT
ATOM      1  O   UNL     1       2.161   8.678  17.500  0.00  0.00    +0.000 OA
ATOM      2  C   UNL     1       1.797   8.598  18.672  0.00  0.00    +0.000 C 
ATOM      3  N   UNL     1       1.080   9.583  19.309  0.00  0.00    +0.000 N 
ATOM      4  H   UNL     1       0.612   9.354  20.181  0.00  0.00    +0.000 HD
ENDROOT
BRANCH   2   5
ATOM      5  C   UNL     1       2.208   7.431  19.530  0.00  0.00    +0.000 C 
BRANCH   5   6
ATOM      6  C   UNL     1       2.934   6.312  18.817  0.00  0.00    +0.000 A 
ATOM      7  N   UNL     1       3.983   6.647  18.123  0.00  0.00    +0.000 NA
ATOM      8  N   UNL     1       4.559   5.687  17.339  0.00  0.00    +0.000 N 
ATOM      9  C   UNL     1       4.053   4.435  17.096  0.00  0.00    +0.000 A 
ATOM     10  O   UNL     1       4.542   3.676  16.268  0.00  0.00    +0.000 OA
ATOM     11  C   UNL     1       2.904   4.029  17.927  0.00  0.00    +0.000 A 
ATOM     12  C   UNL     1       2.362   2.746  17.808  0.00  0.00    +0.000 A 
ATOM     13  C   UNL     1       1.333   2.349  18.662  0.00  0.00    +0.000 A 
ATOM     14  C   UNL     1       0.874   3.222  19.649  0.00  0.00    +0.000 A 
ATOM     15  C   UNL     1       1.403   4.513  19.752  0.00  0.00    +0.000 A 
ATOM     16  C   UNL     1       2.397   4.933  18.860  0.00  0.00    +0.000 A 
ATOM     17  H   UNL     1       5.341   5.988  16.758  0.00  0.00    +0.000 HD
ENDBRANCH   5   6
ENDBRANCH   2   5
BRANCH   3  18
ATOM     18  C   UNL     1       0.672  10.778  18.603  0.00  0.00    +0.000 C 
BRANCH  18  19
ATOM     19  C   UNL     1      -0.816  10.824  18.364  0.00  0.00    +0.000 A 
ATOM     20  C   UNL     1      -1.420   9.936  17.457  0.00  0.00    +0.000 A 
ATOM     21  C   UNL     1      -2.805   9.942  17.265  0.00  0.00    +0.000 A 
ATOM     22  C   UNL     1      -3.600  10.843  17.969  0.00  0.00    +0.000 A 
ATOM     23  C   UNL     1      -3.013  11.724  18.882  0.00  0.00    +0.000 A 
ATOM     24  C   UNL     1      -1.627  11.732  19.062  0.00  0.00    +0.000 A 
ATOM     25  O   UNL     1      -3.736  12.608  19.643  0.00  0.00    +0.000 OA
ATOM     26  C   UNL     1      -5.128  12.267  19.652  0.00  0.00    +0.000 C 
ATOM     27  C   UNL     1      -5.612  11.956  18.246  0.00  0.00    +0.000 C 
ATOM     28  O   UNL     1      -4.950  10.796  17.729  0.00  0.00    +0.000 OA
ENDBRANCH  18  19
ENDBRANCH   3  18
TORSDOF 4
ENDMDL
MODEL 9
REMARK VINA RESULT:      -7.8      1.942      7.514
REMARK  Name = 
REMARK  4 active torsions:
REMARK  status: ('A' for Active; 'I' for Inactive)
REMARK    1  A    between atoms: C_2  and  C_3
REMARK    2  A    between atoms: C_3  and  C_4
REMARK    3  A    between atoms: N_15  and  C_16
REMARK    4  A    between atoms: C_16  and  C_17
REMARK                            x       y       z     vdW  Elec       q    Type
REMARK                         _______ _______ _______ _____ _____    ______ ____
ROOT
ATOM      1  O   UNL     1       1.681   4.151  19.490  0.00  0.00    +0.000 OA
ATOM      2  C   UNL     1       2.421   5.047  19.892  0.00  0.00    +0.000 C 
ATOM      3  N   UNL     1       3.793   4.972  19.845  0.00  0.00    +0.000 N 
ATOM      4  H   UNL     1       4.329   5.826  19.964  0.00  0.00    +0.000 HD
ENDROOT
BRANCH   2   5
ATOM      5  C   UNL     1       1.857   6.268  20.569  0.00  0.00    +0.000 C 
BRANCH   5   6
ATOM      6  C   UNL     1       1.728   7.501  19.702  0.00  0.00    +0.000 A 
ATOM      7  N   UNL     1       2.294   7.452  18.531  0.00  0.00    +0.000 NA
ATOM      8  N   UNL     1       2.336   8.604  17.797  0.00  0.00    +0.000 N 
ATOM      9  C   UNL     1       1.966   9.851  18.234  0.00  0.00    +0.000 A 
ATOM     10  O   UNL     1       2.166  10.865  17.575  0.00  0.00    +0.000 OA
ATOM     11  C   UNL     1       1.267   9.901  19.531  0.00  0.00    +0.000 A 
ATOM     12  C   UNL     1       0.785  11.116  20.029  0.00  0.00    +0.000 A 
ATOM     13  C   UNL     1       0.051  11.132  21.215  0.00  0.00    +0.000 A 
ATOM     14  C   UNL     1      -0.226   9.936  21.877  0.00  0.00    +0.000 A 
ATOM     15  C   UNL     1       0.275   8.725  21.388  0.00  0.00    +0.000 A 
ATOM     16  C   UNL     1       1.060   8.712  20.230  0.00  0.00    +0.000 A 
ATOM     17  H   UNL     1       2.838   8.557  16.910  0.00  0.00    +0.000 HD
ENDBRANCH   5   6
ENDBRANCH   2   5
BRANCH   3  18
ATOM     18  C   UNL     1       4.454   3.822  19.265  0.00  0.00    +0.000 C 
BRANCH  18  19
ATOM     19  C   UNL     1       5.310   4.189  18.079  0.00  0.00    +0.000 A 
ATOM     20  C   UNL     1       6.574   4.772  18.266  0.00  0.00    +0.000 A 
ATOM     21  C   UNL     1       7.392   5.073  17.173  0.00  0.00    +0.000 A 
ATOM     22  C   UNL     1       6.951   4.802  15.879  0.00  0.00    +0.000 A 
ATOM     23  C   UNL     1       5.699   4.213  15.681  0.00  0.00    +0.000 A 
ATOM     24  C   UNL     1       4.872   3.929  16.771  0.00  0.00    +0.000 A 
ATOM     25  O   UNL     1       5.216   3.877  14.441  0.00  0.00    +0.000 OA
ATOM     26  C   UNL     1       6.262   3.868  13.461  0.00  0.00    +0.000 C 
ATOM     27  C   UNL     1       7.128   5.110  13.591  0.00  0.00    +0.000 C 
ATOM     28  O   UNL     1       7.803   5.125  14.854  0.00  0.00    +0.000 OA
ENDBRANCH  18  19
ENDBRANCH   3  18
TORSDOF 4
ENDMDL
