MODEL 1
REMARK VINA RESULT:      -7.8      0.000      0.000
REMARK  Name = 
REMARK  5 active torsions:
REMARK  status: ('A' for Active; 'I' for Inactive)
REMARK    1  A    between atoms: C_1  and  C_2
REMARK    2  A    between atoms: C_2  and  C_3
REMARK    3  A    between atoms: C_13  and  N_14
REMARK    4  A    between atoms: C_19  and  O_20
REMARK    5  A    between atoms: C_22  and  C_23
REMARK                            x       y       z     vdW  Elec       q    Type
REMARK                         _______ _______ _______ _____ _____    ______ ____
ROOT
ATOM      1  N   UNL     1       2.570   5.780  17.311  0.00  0.00    +0.000 N 
ATOM      2  C   UNL     1       1.556   4.773  17.717  0.00  0.00    +0.000 C 
ATOM      3  C   UNL     1       2.378   3.825  18.536  0.00  0.00    +0.000 A 
ATOM      4  C   UNL     1       3.684   3.876  18.035  0.00  0.00    +0.000 A 
ATOM      5  C   UNL     1       4.761   3.272  18.661  0.00  0.00    +0.000 A 
ATOM      6  C   UNL     1       4.494   2.610  19.852  0.00  0.00    +0.000 A 
ATOM      7  C   UNL     1       3.196   2.555  20.386  0.00  0.00    +0.000 A 
ATOM      8  C   UNL     1       2.107   3.177  19.740  0.00  0.00    +0.000 A 
ATOM      9  C   UNL     1       3.770   5.043  17.129  0.00  0.00    +0.000 C 
ATOM     10  O   UNL     1       4.789   5.383  16.555  0.00  0.00    +0.000 OA
ENDROOT
BRANCH   1  23
ATOM     11  C   UNL     1      -0.109  10.220  17.557  0.00  0.00    +0.000 C 
ATOM     12  C   UNL     1       0.794  10.204  18.800  0.00  0.00    +0.000 C 
ATOM     13  C   UNL     1       1.929  11.229  18.626  0.00  0.00    +0.000 C 
ATOM     14  O   UNL     1      -0.046  10.709  19.866  0.00  0.00    +0.000 OA
ATOM     15  C   UNL     1      -0.069  10.037  21.014  0.00  0.00    +0.000 A 
ATOM     16  N   UNL     1      -0.809  10.342  22.053  0.00  0.00    +0.000 NA
ATOM     17  N   UNL     1      -0.594   9.371  23.012  0.00  0.00    +0.000 NA
ATOM     18  C   UNL     1       0.276   8.516  22.521  0.00  0.00    +0.000 A 
ATOM     19  N   UNL     1       0.663   8.920  21.276  0.00  0.00    +0.000 N 
ATOM     20  C   UNL     1       1.503   8.317  20.340  0.00  0.00    +0.000 A 
ATOM     21  C   UNL     1       2.286   7.216  20.664  0.00  0.00    +0.000 A 
ATOM     22  C   UNL     1       2.920   6.524  19.639  0.00  0.00    +0.000 A 
ATOM     23  C   UNL     1       2.632   6.846  18.302  0.00  0.00    +0.000 A 
ATOM     24  C   UNL     1       2.012   8.069  18.009  0.00  0.00    +0.000 A 
ATOM     25  C   UNL     1       1.450   8.839  19.040  0.00  0.00    +0.000 A 
ENDBRANCH   1  23
BRANCH   8  26
ATOM     26  C   UNL     1       0.780   3.238  20.452  0.00  0.00    +0.000 C 
ATOM     27  F   UNL     1       0.778   2.638  21.674  0.00  0.00    +0.000 F 
ATOM     28  F   UNL     1       0.360   4.515  20.667  0.00  0.00    +0.000 F 
ATOM     29  F   UNL     1      -0.210   2.628  19.745  0.00  0.00    +0.000 F 
ENDBRANCH   8  26
BRANCH   6  30
ATOM     30  O   UNL     1       5.498   2.076  20.605  0.00  0.00    +0.000 OA
ATOM     31  H   UNL     1       5.797   2.735  21.255  0.00  0.00    +0.000 HD
ENDBRANCH   6  30
TORSDOF 3
ENDMDL
MODEL 2
REMARK VINA RESULT:      -7.5      3.137      4.210
REMARK  Name = 
REMARK  5 active torsions:
REMARK  status: ('A' for Active; 'I' for Inactive)
REMARK    1  A    between atoms: C_1  and  C_2
REMARK    2  A    between atoms: C_2  and  C_3
REMARK    3  A    between atoms: C_13  and  N_14
REMARK    4  A    between atoms: C_19  and  O_20
REMARK    5  A    between atoms: C_22  and  C_23
REMARK                            x       y       z     vdW  Elec       q    Type
REMARK                         _______ _______ _______ _____ _____    ______ ____
ROOT
ATOM      1  N   UNL     1       3.356   5.962  20.303  0.00  0.00    +0.000 N 
ATOM      2  C   UNL     1       4.534   5.694  19.439  0.00  0.00    +0.000 C 
ATOM      3  C   UNL     1       4.059   4.528  18.627  0.00  0.00    +0.000 A 
ATOM      4  C   UNL     1       3.137   3.828  19.416  0.00  0.00    +0.000 A 
ATOM      5  C   UNL     1       2.351   2.798  18.929  0.00  0.00    +0.000 A 
ATOM      6  C   UNL     1       2.500   2.487  17.585  0.00  0.00    +0.000 A 
ATOM      7  C   UNL     1       3.406   3.180  16.766  0.00  0.00    +0.000 A 
ATOM      8  C   UNL     1       4.200   4.231  17.273  0.00  0.00    +0.000 A 
ATOM      9  C   UNL     1       2.798   4.685  20.574  0.00  0.00    +0.000 C 
ATOM     10  O   UNL     1       1.994   4.376  21.435  0.00  0.00    +0.000 OA
ENDROOT
BRANCH   1  23
ATOM     11  C   UNL     1       0.534   9.811  22.348  0.00  0.00    +0.000 C 
ATOM     12  C   UNL     1       0.281   9.862  20.833  0.00  0.00    +0.000 C 
ATOM     13  C   UNL     1      -1.143   9.360  20.531  0.00  0.00    +0.000 C 
ATOM     14  O   UNL     1       0.289  11.274  20.511  0.00  0.00    +0.000 OA
ATOM     15  C   UNL     1       1.012  11.672  19.469  0.00  0.00    +0.000 A 
ATOM     16  N   UNL     1       1.154  12.917  19.079  0.00  0.00    +0.000 NA
ATOM     17  N   UNL     1       2.026  12.917  18.008  0.00  0.00    +0.000 NA
ATOM     18  C   UNL     1       2.375  11.670  17.782  0.00  0.00    +0.000 A 
ATOM     19  N   UNL     1       1.728  10.847  18.658  0.00  0.00    +0.000 N 
ATOM     20  C   UNL     1       1.822   9.470  18.856  0.00  0.00    +0.000 A 
ATOM     21  C   UNL     1       2.508   8.649  17.969  0.00  0.00    +0.000 A 
ATOM     22  C   UNL     1       2.760   7.333  18.338  0.00  0.00    +0.000 A 
ATOM     23  C   UNL     1       2.466   6.909  19.645  0.00  0.00    +0.000 A 
ATOM     24  C   UNL     1       1.604   7.680  20.438  0.00  0.00    +0.000 A 
ATOM     25  C   UNL     1       1.251   8.979  20.039  0.00  0.00    +0.000 A 
ENDBRANCH   1  23
BRANCH   8  26
ATOM     26  C   UNL     1       5.015   5.054  16.309  0.00  0.00    +0.000 C 
ATOM     27  F   UNL     1       4.569   6.331  16.154  0.00  0.00    +0.000 F 
ATOM     28  F   UNL     1       6.319   5.162  16.686  0.00  0.00    +0.000 F 
ATOM     29  F   UNL     1       5.025   4.517  15.058  0.00  0.00    +0.000 F 
ENDBRANCH   8  26
BRANCH   6  30
ATOM     30  O   UNL     1       1.697   1.564  16.979  0.00  0.00    +0.000 OA
ATOM     31  H   UNL     1       2.122   1.259  16.159  0.00  0.00    +0.000 HD
ENDBRANCH   6  30
TORSDOF 3
ENDMDL
MODEL 3
REMARK VINA RESULT:      -7.5      5.471      8.502
REMARK  Name = 
REMARK  5 active torsions:
REMARK  status: ('A' for Active; 'I' for Inactive)
REMARK    1  A    between atoms: C_1  and  C_2
REMARK    2  A    between atoms: C_2  and  C_3
REMARK    3  A    between atoms: C_13  and  N_14
REMARK    4  A    between atoms: C_19  and  O_20
REMARK    5  A    between atoms: C_22  and  C_23
REMARK                            x       y       z     vdW  Elec       q    Type
REMARK                         _______ _______ _______ _____ _____    ______ ____
ROOT
ATOM      1  N   UNL     1       0.048  12.850  20.518  0.00  0.00    +0.000 N 
ATOM      2  C   UNL     1       0.525  11.444  20.485  0.00  0.00    +0.000 C 
ATOM      3  C   UNL     1      -0.361  10.845  19.435  0.00  0.00    +0.000 A 
ATOM      4  C   UNL     1      -1.565  11.558  19.459  0.00  0.00    +0.000 A 
ATOM      5  C   UNL     1      -2.555  11.408  18.503  0.00  0.00    +0.000 A 
ATOM      6  C   UNL     1      -2.294  10.511  17.477  0.00  0.00    +0.000 A 
ATOM      7  C   UNL     1      -1.089   9.792  17.418  0.00  0.00    +0.000 A 
ATOM      8  C   UNL     1      -0.086   9.956  18.397  0.00  0.00    +0.000 A 
ATOM      9  C   UNL     1      -1.351  12.771  20.280  0.00  0.00    +0.000 C 
ATOM     10  O   UNL     1      -2.201  13.621  20.471  0.00  0.00    +0.000 OA
ENDROOT
BRANCH   1  23
ATOM     11  C   UNL     1       1.537  17.814  20.824  0.00  0.00    +0.000 C 
ATOM     12  C   UNL     1       2.088  17.290  19.489  0.00  0.00    +0.000 C 
ATOM     13  C   UNL     1       1.285  17.899  18.325  0.00  0.00    +0.000 C 
ATOM     14  O   UNL     1       3.420  17.854  19.399  0.00  0.00    +0.000 OA
ATOM     15  C   UNL     1       4.420  17.042  19.070  0.00  0.00    +0.000 A 
ATOM     16  N   UNL     1       5.682  17.393  18.991  0.00  0.00    +0.000 NA
ATOM     17  N   UNL     1       6.407  16.257  18.685  0.00  0.00    +0.000 NA
ATOM     18  C   UNL     1       5.556  15.260  18.583  0.00  0.00    +0.000 A 
ATOM     19  N   UNL     1       4.285  15.720  18.781  0.00  0.00    +0.000 N 
ATOM     20  C   UNL     1       3.068  15.042  18.839  0.00  0.00    +0.000 A 
ATOM     21  C   UNL     1       2.957  13.707  18.472  0.00  0.00    +0.000 A 
ATOM     22  C   UNL     1       1.780  13.030  18.768  0.00  0.00    +0.000 A 
ATOM     23  C   UNL     1       0.803  13.651  19.564  0.00  0.00    +0.000 A 
ATOM     24  C   UNL     1       0.847  15.040  19.744  0.00  0.00    +0.000 A 
ATOM     25  C   UNL     1       1.987  15.766  19.361  0.00  0.00    +0.000 A 
ENDBRANCH   1  23
BRANCH   8  26
ATOM     26  C   UNL     1       1.252   9.297  18.182  0.00  0.00    +0.000 C 
ATOM     27  F   UNL     1       2.188  10.113  17.625  0.00  0.00    +0.000 F 
ATOM     28  F   UNL     1       1.802   8.840  19.340  0.00  0.00    +0.000 F 
ATOM     29  F   UNL     1       1.166   8.221  17.353  0.00  0.00    +0.000 F 
ENDBRANCH   8  26
BRANCH   6  30
ATOM     30  O   UNL     1      -3.153  10.369  16.426  0.00  0.00    +0.000 OA
ATOM     31  H   UNL     1      -2.650  10.117  15.632  0.00  0.00    +0.000 HD
ENDBRANCH   6  30
TORSDOF 3
ENDMDL
MODEL 4
REMARK VINA RESULT:      -7.3      6.271      8.111
REMARK  Name = 
REMARK  5 active torsions:
REMARK  status: ('A' for Active; 'I' for Inactive)
REMARK    1  A    between atoms: C_1  and  C_2
REMARK    2  A    between atoms: C_2  and  C_3
REMARK    3  A    between atoms: C_13  and  N_14
REMARK    4  A    between atoms: C_19  and  O_20
REMARK    5  A    between atoms: C_22  and  C_23
REMARK                            x       y       z     vdW  Elec       q    Type
REMARK                         _______ _______ _______ _____ _____    ______ ____
ROOT
ATOM      1  N   UNL     1      -0.496  11.823  18.481  0.00  0.00    +0.000 N 
ATOM      2  C   UNL     1      -1.736  12.170  19.222  0.00  0.00    +0.000 C 
ATOM      3  C   UNL     1      -1.475  11.551  20.562  0.00  0.00    +0.000 A 
ATOM      4  C   UNL     1      -0.638  10.449  20.348  0.00  0.00    +0.000 A 
ATOM      5  C   UNL     1      -0.036   9.742  21.375  0.00  0.00    +0.000 A 
ATOM      6  C   UNL     1      -0.285  10.192  22.664  0.00  0.00    +0.000 A 
ATOM      7  C   UNL     1      -1.108  11.303  22.909  0.00  0.00    +0.000 A 
ATOM      8  C   UNL     1      -1.714  12.017  21.853  0.00  0.00    +0.000 A 
ATOM      9  C   UNL     1      -0.126  10.538  18.961  0.00  0.00    +0.000 C 
ATOM     10  O   UNL     1       0.656   9.743  18.474  0.00  0.00    +0.000 OA
ENDROOT
BRANCH   1  23
ATOM     11  C   UNL     1      -1.163  16.848  19.602  0.00  0.00    +0.000 C 
ATOM     12  C   UNL     1       0.356  16.633  19.519  0.00  0.00    +0.000 C 
ATOM     13  C   UNL     1       0.900  17.283  18.234  0.00  0.00    +0.000 C 
ATOM     14  O   UNL     1       0.893  17.404  20.622  0.00  0.00    +0.000 OA
ATOM     15  C   UNL     1       1.785  16.820  21.416  0.00  0.00    +0.000 A 
ATOM     16  N   UNL     1       2.328  17.371  22.476  0.00  0.00    +0.000 NA
ATOM     17  N   UNL     1       3.148  16.424  23.058  0.00  0.00    +0.000 NA
ATOM     18  C   UNL     1       3.079  15.335  22.324  0.00  0.00    +0.000 A 
ATOM     19  N   UNL     1       2.258  15.555  21.256  0.00  0.00    +0.000 N 
ATOM     20  C   UNL     1       1.823  14.695  20.248  0.00  0.00    +0.000 A 
ATOM     21  C   UNL     1       2.377  13.433  20.074  0.00  0.00    +0.000 A 
ATOM     22  C   UNL     1       1.750  12.543  19.210  0.00  0.00    +0.000 A 
ATOM     23  C   UNL     1       0.498  12.871  18.663  0.00  0.00    +0.000 A 
ATOM     24  C   UNL     1       0.068  14.205  18.688  0.00  0.00    +0.000 A 
ATOM     25  C   UNL     1       0.745  15.150  19.476  0.00  0.00    +0.000 A 
ENDBRANCH   1  23
BRANCH   8  26
ATOM     26  C   UNL     1      -2.434  13.303  22.167  0.00  0.00    +0.000 C 
ATOM     27  F   UNL     1      -2.634  13.516  23.496  0.00  0.00    +0.000 F 
ATOM     28  F   UNL     1      -1.768  14.399  21.712  0.00  0.00    +0.000 F 
ATOM     29  F   UNL     1      -3.671  13.348  21.600  0.00  0.00    +0.000 F 
ENDBRANCH   8  26
BRANCH   6  30
ATOM     30  O   UNL     1       0.345   9.637  23.740  0.00  0.00    +0.000 OA
ATOM     31  H   UNL     1      -0.234   8.965  24.139  0.00  0.00    +0.000 HD
ENDBRANCH   6  30
TORSDOF 3
ENDMDL
MODEL 5
REMARK VINA RESULT:      -7.3      3.302      4.725
REMARK  Name = 
REMARK  5 active torsions:
REMARK  status: ('A' for Active; 'I' for Inactive)
REMARK    1  A    between atoms: C_1  and  C_2
REMARK    2  A    between atoms: C_2  and  C_3
REMARK    3  A    between atoms: C_13  and  N_14
REMARK    4  A    between atoms: C_19  and  O_20
REMARK    5  A    between atoms: C_22  and  C_23
REMARK                            x       y       z     vdW  Elec       q    Type
REMARK                         _______ _______ _______ _____ _____    ______ ____
ROOT
ATOM      1  N   UNL     1       3.464   5.021  19.538  0.00  0.00    +0.000 N 
ATOM      2  C   UNL     1       4.866   5.512  19.526  0.00  0.00    +0.000 C 
ATOM      3  C   UNL     1       5.286   5.203  18.121  0.00  0.00    +0.000 A 
ATOM      4  C   UNL     1       4.546   4.089  17.707  0.00  0.00    +0.000 A 
ATOM      5  C   UNL     1       4.532   3.630  16.402  0.00  0.00    +0.000 A 
ATOM      6  C   UNL     1       5.285   4.349  15.484  0.00  0.00    +0.000 A 
ATOM      7  C   UNL     1       6.026   5.479  15.867  0.00  0.00    +0.000 A 
ATOM      8  C   UNL     1       6.031   5.939  17.201  0.00  0.00    +0.000 A 
ATOM      9  C   UNL     1       3.466   3.877  18.697  0.00  0.00    +0.000 C 
ATOM     10  O   UNL     1       2.625   3.001  18.607  0.00  0.00    +0.000 OA
ENDROOT
BRANCH   1  23
ATOM     11  C   UNL     1       1.459   8.881  22.373  0.00  0.00    +0.000 C 
ATOM     12  C   UNL     1       0.933   9.090  20.944  0.00  0.00    +0.000 C 
ATOM     13  C   UNL     1      -0.564   8.734  20.889  0.00  0.00    +0.000 C 
ATOM     14  O   UNL     1       1.016  10.521  20.733  0.00  0.00    +0.000 OA
ATOM     15  C   UNL     1       1.566  10.953  19.602  0.00  0.00    +0.000 A 
ATOM     16  N   UNL     1       1.752  12.213  19.286  0.00  0.00    +0.000 NA
ATOM     17  N   UNL     1       2.403  12.241  18.068  0.00  0.00    +0.000 NA
ATOM     18  C   UNL     1       2.583  10.995  17.686  0.00  0.00    +0.000 A 
ATOM     19  N   UNL     1       2.035  10.150  18.609  0.00  0.00    +0.000 N 
ATOM     20  C   UNL     1       2.031   8.758  18.681  0.00  0.00    +0.000 A 
ATOM     21  C   UNL     1       2.456   7.969  17.620  0.00  0.00    +0.000 A 
ATOM     22  C   UNL     1       2.645   6.609  17.834  0.00  0.00    +0.000 A 
ATOM     23  C   UNL     1       2.562   6.093  19.138  0.00  0.00    +0.000 A 
ATOM     24  C   UNL     1       1.942   6.854  20.138  0.00  0.00    +0.000 A 
ATOM     25  C   UNL     1       1.647   8.209  19.913  0.00  0.00    +0.000 A 
ENDBRANCH   1  23
BRANCH   8  26
ATOM     26  C   UNL     1       6.694   7.256  17.512  0.00  0.00    +0.000 C 
ATOM     27  F   UNL     1       7.443   7.755  16.490  0.00  0.00    +0.000 F 
ATOM     28  F   UNL     1       5.798   8.232  17.823  0.00  0.00    +0.000 F 
ATOM     29  F   UNL     1       7.540   7.166  18.574  0.00  0.00    +0.000 F 
ENDBRANCH   8  26
BRANCH   6  30
ATOM     30  O   UNL     1       5.254   4.050  14.154  0.00  0.00    +0.000 OA
ATOM     31  H   UNL     1       4.814   3.192  14.028  0.00  0.00    +0.000 HD
ENDBRANCH   6  30
TORSDOF 3
ENDMDL
MODEL 6
REMARK VINA RESULT:      -7.2      8.684     10.033
REMARK  Name = 
REMARK  5 active torsions:
REMARK  status: ('A' for Active; 'I' for Inactive)
REMARK    1  A    between atoms: C_1  and  C_2
REMARK    2  A    between atoms: C_2  and  C_3
REMARK    3  A    between atoms: C_13  and  N_14
REMARK    4  A    between atoms: C_19  and  O_20
REMARK    5  A    between atoms: C_22  and  C_23
REMARK                            x       y       z     vdW  Elec       q    Type
REMARK                         _______ _______ _______ _____ _____    ______ ____
ROOT
ATOM      1  N   UNL     1       8.402  15.163  19.595  0.00  0.00    +0.000 N 
ATOM      2  C   UNL     1       9.284  14.149  18.964  0.00  0.00    +0.000 C 
ATOM      3  C   UNL     1       9.328  13.084  20.017  0.00  0.00    +0.000 A 
ATOM      4  C   UNL     1       9.154  13.722  21.252  0.00  0.00    +0.000 A 
ATOM      5  C   UNL     1       8.954  13.037  22.438  0.00  0.00    +0.000 A 
ATOM      6  C   UNL     1       8.911  11.653  22.354  0.00  0.00    +0.000 A 
ATOM      7  C   UNL     1       9.068  10.985  21.128  0.00  0.00    +0.000 A 
ATOM      8  C   UNL     1       9.268  11.695  19.925  0.00  0.00    +0.000 A 
ATOM      9  C   UNL     1       8.705  15.106  20.981  0.00  0.00    +0.000 C 
ATOM     10  O   UNL     1       8.434  15.914  21.850  0.00  0.00    +0.000 OA
ENDROOT
BRANCH   1  23
ATOM     11  C   UNL     1       4.053  16.459  22.116  0.00  0.00    +0.000 C 
ATOM     12  C   UNL     1       3.599  15.730  20.843  0.00  0.00    +0.000 C 
ATOM     13  C   UNL     1       3.060  14.336  21.211  0.00  0.00    +0.000 C 
ATOM     14  O   UNL     1       2.461  16.493  20.373  0.00  0.00    +0.000 OA
ATOM     15  C   UNL     1       2.421  16.824  19.086  0.00  0.00    +0.000 A 
ATOM     16  N   UNL     1       1.482  17.547  18.521  0.00  0.00    +0.000 NA
ATOM     17  N   UNL     1       1.835  17.718  17.196  0.00  0.00    +0.000 NA
ATOM     18  C   UNL     1       2.972  17.086  17.004  0.00  0.00    +0.000 A 
ATOM     19  N   UNL     1       3.358  16.476  18.163  0.00  0.00    +0.000 N 
ATOM     20  C   UNL     1       4.510  15.755  18.475  0.00  0.00    +0.000 A 
ATOM     21  C   UNL     1       5.412  15.360  17.495  0.00  0.00    +0.000 A 
ATOM     22  C   UNL     1       6.644  14.852  17.889  0.00  0.00    +0.000 A 
ATOM     23  C   UNL     1       7.013  14.897  19.244  0.00  0.00    +0.000 A 
ATOM     24  C   UNL     1       6.026  15.105  20.217  0.00  0.00    +0.000 A 
ATOM     25  C   UNL     1       4.740  15.524  19.838  0.00  0.00    +0.000 A 
ENDBRANCH   1  23
BRANCH   8  26
ATOM     26  C   UNL     1       9.247  10.936  18.623  0.00  0.00    +0.000 C 
ATOM     27  F   UNL     1       8.248  11.312  17.778  0.00  0.00    +0.000 F 
ATOM     28  F   UNL     1      10.402  11.078  17.916  0.00  0.00    +0.000 F 
ATOM     29  F   UNL     1       9.080   9.598  18.812  0.00  0.00    +0.000 F 
ENDBRANCH   8  26
BRANCH   6  30
ATOM     30  O   UNL     1       8.610  10.887  23.442  0.00  0.00    +0.000 OA
ATOM     31  H   UNL     1       9.435  10.591  23.865  0.00  0.00    +0.000 HD
ENDBRANCH   6  30
TORSDOF 3
ENDMDL
MODEL 7
REMARK VINA RESULT:      -7.2      6.244      8.804
REMARK  Name = 
REMARK  5 active torsions:
REMARK  status: ('A' for Active; 'I' for Inactive)
REMARK    1  A    between atoms: C_1  and  C_2
REMARK    2  A    between atoms: C_2  and  C_3
REMARK    3  A    between atoms: C_13  and  N_14
REMARK    4  A    between atoms: C_19  and  O_20
REMARK    5  A    between atoms: C_22  and  C_23
REMARK                            x       y       z     vdW  Elec       q    Type
REMARK                         _______ _______ _______ _____ _____    ______ ____
ROOT
ATOM      1  N   UNL     1       0.646  11.545  20.269  0.00  0.00    +0.000 N 
ATOM      2  C   UNL     1      -0.063  10.478  19.517  0.00  0.00    +0.000 C 
ATOM      3  C   UNL     1      -1.463  11.012  19.479  0.00  0.00    +0.000 A 
ATOM      4  C   UNL     1      -1.634  11.799  20.624  0.00  0.00    +0.000 A 
ATOM      5  C   UNL     1      -2.741  12.603  20.834  0.00  0.00    +0.000 A 
ATOM      6  C   UNL     1      -3.696  12.617  19.827  0.00  0.00    +0.000 A 
ATOM      7  C   UNL     1      -3.546  11.849  18.661  0.00  0.00    +0.000 A 
ATOM      8  C   UNL     1      -2.411  11.035  18.457  0.00  0.00    +0.000 A 
ATOM      9  C   UNL     1      -0.297  12.017  21.220  0.00  0.00    +0.000 C 
ATOM     10  O   UNL     1      -0.098  12.692  22.214  0.00  0.00    +0.000 OA
ENDROOT
BRANCH   1  23
ATOM     11  C   UNL     1       1.165  16.672  20.901  0.00  0.00    +0.000 C 
ATOM     12  C   UNL     1       1.705  16.364  19.496  0.00  0.00    +0.000 C 
ATOM     13  C   UNL     1       0.714  16.881  18.438  0.00  0.00    +0.000 C 
ATOM     14  O   UNL     1       2.891  17.187  19.375  0.00  0.00    +0.000 OA
ATOM     15  C   UNL     1       4.002  16.615  18.919  0.00  0.00    +0.000 A 
ATOM     16  N   UNL     1       5.163  17.214  18.794  0.00  0.00    +0.000 NA
ATOM     17  N   UNL     1       6.069  16.270  18.351  0.00  0.00    +0.000 NA
ATOM     18  C   UNL     1       5.422  15.133  18.217  0.00  0.00    +0.000 A 
ATOM     19  N   UNL     1       4.105  15.316  18.529  0.00  0.00    +0.000 N 
ATOM     20  C   UNL     1       3.050  14.407  18.602  0.00  0.00    +0.000 A 
ATOM     21  C   UNL     1       3.172  13.106  18.132  0.00  0.00    +0.000 A 
ATOM     22  C   UNL     1       2.174  12.189  18.440  0.00  0.00    +0.000 A 
ATOM     23  C   UNL     1       1.158  12.545  19.342  0.00  0.00    +0.000 A 
ATOM     24  C   UNL     1       0.945  13.900  19.635  0.00  0.00    +0.000 A 
ATOM     25  C   UNL     1       1.891  14.863  19.247  0.00  0.00    +0.000 A 
ENDBRANCH   1  23
BRANCH   8  26
ATOM     26  C   UNL     1      -2.220  10.381  17.113  0.00  0.00    +0.000 C 
ATOM     27  F   UNL     1      -3.186   9.476  16.795  0.00  0.00    +0.000 F 
ATOM     28  F   UNL     1      -2.204  11.280  16.091  0.00  0.00    +0.000 F 
ATOM     29  F   UNL     1      -1.044   9.700  17.037  0.00  0.00    +0.000 F 
ENDBRANCH   8  26
BRANCH   6  30
ATOM     30  O   UNL     1      -4.770  13.457  19.883  0.00  0.00    +0.000 OA
ATOM     31  H   UNL     1      -5.502  13.076  19.369  0.00  0.00    +0.000 HD
ENDBRANCH   6  30
TORSDOF 3
ENDMDL
MODEL 8
REMARK VINA RESULT:      -7.2      5.382      7.364
REMARK  Name = 
REMARK  5 active torsions:
REMARK  status: ('A' for Active; 'I' for Inactive)
REMARK    1  A    between atoms: C_1  and  C_2
REMARK    2  A    between atoms: C_2  and  C_3
REMARK    3  A    between atoms: C_13  and  N_14
REMARK    4  A    between atoms: C_19  and  O_20
REMARK    5  A    between atoms: C_22  and  C_23
REMARK                            x       y       z     vdW  Elec       q    Type
REMARK                         _______ _______ _______ _____ _____    ______ ____
ROOT
ATOM      1  N   UNL     1      -0.404  11.627  18.471  0.00  0.00    +0.000 N 
ATOM      2  C   UNL     1      -1.493  11.519  19.475  0.00  0.00    +0.000 C 
ATOM      3  C   UNL     1      -0.834  10.716  20.555  0.00  0.00    +0.000 A 
ATOM      4  C   UNL     1       0.126   9.906  19.937  0.00  0.00    +0.000 A 
ATOM      5  C   UNL     1       1.059   9.164  20.640  0.00  0.00    +0.000 A 
ATOM      6  C   UNL     1       1.020   9.270  22.023  0.00  0.00    +0.000 A 
ATOM      7  C   UNL     1       0.078  10.085  22.671  0.00  0.00    +0.000 A 
ATOM      8  C   UNL     1      -0.867  10.840  21.943  0.00  0.00    +0.000 A 
ATOM      9  C   UNL     1       0.295  10.393  18.549  0.00  0.00    +0.000 C 
ATOM     10  O   UNL     1       1.086   9.918  17.754  0.00  0.00    +0.000 OA
ENDROOT
BRANCH   1  23
ATOM     11  C   UNL     1      -1.418  15.661  21.577  0.00  0.00    +0.000 C 
ATOM     12  C   UNL     1      -0.035  15.937  20.967  0.00  0.00    +0.000 C 
ATOM     13  C   UNL     1      -0.145  17.071  19.931  0.00  0.00    +0.000 C 
ATOM     14  O   UNL     1       0.748  16.467  22.065  0.00  0.00    +0.000 OA
ATOM     15  C   UNL     1       1.961  15.962  22.266  0.00  0.00    +0.000 A 
ATOM     16  N   UNL     1       2.770  16.306  23.241  0.00  0.00    +0.000 NA
ATOM     17  N   UNL     1       3.897  15.514  23.140  0.00  0.00    +0.000 NA
ATOM     18  C   UNL     1       3.734  14.723  22.102  0.00  0.00    +0.000 A 
ATOM     19  N   UNL     1       2.541  15.000  21.499  0.00  0.00    +0.000 N 
ATOM     20  C   UNL     1       1.901  14.391  20.420  0.00  0.00    +0.000 A 
ATOM     21  C   UNL     1       2.548  13.459  19.618  0.00  0.00    +0.000 A 
ATOM     22  C   UNL     1       1.795  12.724  18.710  0.00  0.00    +0.000 A 
ATOM     23  C   UNL     1       0.394  12.818  18.733  0.00  0.00    +0.000 A 
ATOM     24  C   UNL     1      -0.211  13.895  19.396  0.00  0.00    +0.000 A 
ATOM     25  C   UNL     1       0.549  14.718  20.244  0.00  0.00    +0.000 A 
ENDBRANCH   1  23
BRANCH   8  26
ATOM     26  C   UNL     1      -1.728  11.832  22.682  0.00  0.00    +0.000 C 
ATOM     27  F   UNL     1      -2.624  12.485  21.892  0.00  0.00    +0.000 F 
ATOM     28  F   UNL     1      -2.461  11.252  23.672  0.00  0.00    +0.000 F 
ATOM     29  F   UNL     1      -0.989  12.807  23.279  0.00  0.00    +0.000 F 
ENDBRANCH   8  26
BRANCH   6  30
ATOM     30  O   UNL     1       1.961   8.668  22.806  0.00  0.00    +0.000 OA
ATOM     31  H   UNL     1       1.758   7.720  22.882  0.00  0.00    +0.000 HD
ENDBRANCH   6  30
TORSDOF 3
ENDMDL
MODEL 9
REMARK VINA RESULT:      -7.2      5.673      8.096
REMARK  Name = 
REMARK  5 active torsions:
REMARK  status: ('A' for Active; 'I' for Inactive)
REMARK    1  A    between atoms: C_1  and  C_2
REMARK    2  A    between atoms: C_2  and  C_3
REMARK    3  A    between atoms: C_13  and  N_14
REMARK    4  A    between atoms: C_19  and  O_20
REMARK    5  A    between atoms: C_22  and  C_23
REMARK                            x       y       z     vdW  Elec       q    Type
REMARK                         _______ _______ _______ _____ _____    ______ ____
ROOT
ATOM      1  N   UNL     1      -0.892  13.793  21.217  0.00  0.00    +0.000 N 
ATOM      2  C   UNL     1       0.271  13.252  20.468  0.00  0.00    +0.000 C 
ATOM      3  C   UNL     1       0.249  11.808  20.871  0.00  0.00    +0.000 A 
ATOM      4  C   UNL     1      -0.311  11.749  22.153  0.00  0.00    +0.000 A 
ATOM      5  C   UNL     1      -0.661  10.562  22.773  0.00  0.00    +0.000 A 
ATOM      6  C   UNL     1      -0.449   9.398  22.048  0.00  0.00    +0.000 A 
ATOM      7  C   UNL     1       0.097   9.427  20.755  0.00  0.00    +0.000 A 
ATOM      8  C   UNL     1       0.448  10.644  20.131  0.00  0.00    +0.000 A 
ATOM      9  C   UNL     1      -0.913  13.070  22.440  0.00  0.00    +0.000 C 
ATOM     10  O   UNL     1      -1.510  13.336  23.467  0.00  0.00    +0.000 OA
ENDROOT
BRANCH   1  23
ATOM     11  C   UNL     1      -2.530   9.868  18.240  0.00  0.00    +0.000 C 
ATOM     12  C   UNL     1      -3.612  10.954  18.138  0.00  0.00    +0.000 C 
ATOM     13  C   UNL     1      -3.554  11.610  16.747  0.00  0.00    +0.000 C 
ATOM     14  O   UNL     1      -4.863  10.225  18.189  0.00  0.00    +0.000 OA
ATOM     15  C   UNL     1      -5.808  10.666  19.016  0.00  0.00    +0.000 A 
ATOM     16  N   UNL     1      -6.973  10.092  19.205  0.00  0.00    +0.000 NA
ATOM     17  N   UNL     1      -7.635  10.816  20.179  0.00  0.00    +0.000 NA
ATOM     18  C   UNL     1      -6.849  11.807  20.538  0.00  0.00    +0.000 A 
ATOM     19  N   UNL     1      -5.700  11.772  19.801  0.00  0.00    +0.000 N 
ATOM     20  C   UNL     1      -4.552  12.560  19.863  0.00  0.00    +0.000 A 
ATOM     21  C   UNL     1      -4.501  13.720  20.626  0.00  0.00    +0.000 A 
ATOM     22  C   UNL     1      -3.270  14.331  20.829  0.00  0.00    +0.000 A 
ATOM     23  C   UNL     1      -2.096  13.686  20.405  0.00  0.00    +0.000 A 
ATOM     24  C   UNL     1      -2.186  12.641  19.475  0.00  0.00    +0.000 A 
ATOM     25  C   UNL     1      -3.433  12.070  19.174  0.00  0.00    +0.000 A 
ENDBRANCH   1  23
BRANCH   8  26
ATOM     26  C   UNL     1       0.857  10.624  18.681  0.00  0.00    +0.000 C 
ATOM     27  F   UNL     1       0.085  11.405  17.877  0.00  0.00    +0.000 F 
ATOM     28  F   UNL     1       2.136  11.050  18.493  0.00  0.00    +0.000 F 
ATOM     29  F   UNL     1       0.791   9.374  18.147  0.00  0.00    +0.000 F 
ENDBRANCH   8  26
BRANCH   6  30
ATOM     30  O   UNL     1      -0.860   8.186  22.521  0.00  0.00    +0.000 OA
ATOM     31  H   UNL     1      -1.480   8.321  23.258  0.00  0.00    +0.000 HD
ENDBRANCH   6  30
TORSDOF 3
ENDMDL
