MODEL 1
REMARK VINA RESULT:      -8.5      0.000      0.000
REMARK  Name = 
REMARK  3 active torsions:
REMARK  status: ('A' for Active; 'I' for Inactive)
REMARK    1  A    between atoms: C_8  and  S_9
REMARK    2  A    between atoms: S_9  and  N_12
REMARK    3  A    between atoms: C_16  and  C_17
REMARK                            x       y       z     vdW  Elec       q    Type
REMARK                         _______ _______ _______ _____ _____    ______ ____
ROOT
ATOM      1  S   UNL     1       4.166   2.383  19.280  0.00  0.00    +0.000 S 
ATOM      2  O   UNL     1       3.449   1.368  18.542  0.00  0.00    +0.000 OA
ATOM      3  O   UNL     1       5.226   2.020  20.208  0.00  0.00    +0.000 OA
ENDROOT
BRANCH   1  11
ATOM      4  O   UNL     1       8.775   5.838  13.980  0.00  0.00    +0.000 OA
ATOM      5  C   UNL     1       7.622   5.434  14.183  0.00  0.00    +0.000 C 
ATOM      6  C   UNL     1       6.904   4.657  13.104  0.00  0.00    +0.000 C 
ATOM      7  C   UNL     1       5.917   3.583  13.507  0.00  0.00    +0.000 C 
ATOM      8  C   UNL     1       4.769   4.137  14.330  0.00  0.00    +0.000 C 
ATOM      9  C   UNL     1       5.177   4.233  15.773  0.00  0.00    +0.000 A 
ATOM     10  C   UNL     1       4.518   3.432  16.733  0.00  0.00    +0.000 A 
ATOM     11  C   UNL     1       4.887   3.490  18.082  0.00  0.00    +0.000 A 
ATOM     12  C   UNL     1       5.910   4.343  18.484  0.00  0.00    +0.000 A 
ATOM     13  C   UNL     1       6.548   5.151  17.546  0.00  0.00    +0.000 A 
ATOM     14  C   UNL     1       6.212   5.083  16.186  0.00  0.00    +0.000 A 
ATOM     15  N   UNL     1       7.017   5.852  15.330  0.00  0.00    +0.000 N 
ATOM     16  H   UNL     1       7.666   6.470  15.810  0.00  0.00    +0.000 HD
ENDBRANCH   1  11
BRANCH   1  17
ATOM     17  N   UNL     1       3.057   3.302  20.140  0.00  0.00    +0.000 NA
ATOM     18  C   UNL     1       2.644   2.914  21.490  0.00  0.00    +0.000 C 
ATOM     19  C   UNL     1       1.138   2.802  21.415  0.00  0.00    +0.000 C 
ATOM     20  C   UNL     1       0.722   3.787  20.336  0.00  0.00    +0.000 C 
ATOM     21  C   UNL     1       1.963   4.011  19.444  0.00  0.00    +0.000 C 
BRANCH  21  22
ATOM     22  C   UNL     1       2.173   5.504  19.307  0.00  0.00    +0.000 A 
ATOM     23  C   UNL     1       1.922   6.403  20.351  0.00  0.00    +0.000 A 
ATOM     24  C   UNL     1       1.934   7.772  20.109  0.00  0.00    +0.000 A 
ATOM     25  C   UNL     1       2.213   8.210  18.826  0.00  0.00    +0.000 A 
ATOM     26  N   UNL     1       2.497   7.382  17.798  0.00  0.00    +0.000 NA
ATOM     27  C   UNL     1       2.476   6.055  18.063  0.00  0.00    +0.000 A 
ENDBRANCH  21  22
ENDBRANCH   1  17
TORSDOF 3
ENDMDL
MODEL 2
REMARK VINA RESULT:      -8.4      3.121      6.925
REMARK  Name = 
REMARK  3 active torsions:
REMARK  status: ('A' for Active; 'I' for Inactive)
REMARK    1  A    between atoms: C_8  and  S_9
REMARK    2  A    between atoms: S_9  and  N_12
REMARK    3  A    between atoms: C_16  and  C_17
REMARK                            x       y       z     vdW  Elec       q    Type
REMARK                         _______ _______ _______ _____ _____    ______ ____
ROOT
ATOM      1  S   UNL     1       3.330   5.316  19.702  0.00  0.00    +0.000 S 
ATOM      2  O   UNL     1       4.719   5.532  20.035  0.00  0.00    +0.000 OA
ATOM      3  O   UNL     1       2.426   4.681  20.649  0.00  0.00    +0.000 OA
ENDROOT
BRANCH   1  11
ATOM      4  O   UNL     1      -1.359  11.206  17.557  0.00  0.00    +0.000 OA
ATOM      5  C   UNL     1      -0.642  10.790  18.478  0.00  0.00    +0.000 C 
ATOM      6  C   UNL     1      -1.140  10.866  19.902  0.00  0.00    +0.000 C 
ATOM      7  C   UNL     1      -0.716   9.796  20.886  0.00  0.00    +0.000 C 
ATOM      8  C   UNL     1       0.789   9.747  21.067  0.00  0.00    +0.000 C 
ATOM      9  C   UNL     1       1.408   8.919  19.976  0.00  0.00    +0.000 A 
ATOM     10  C   UNL     1       2.059   7.710  20.311  0.00  0.00    +0.000 A 
ATOM     11  C   UNL     1       2.631   6.911  19.314  0.00  0.00    +0.000 A 
ATOM     12  C   UNL     1       2.559   7.307  17.982  0.00  0.00    +0.000 A 
ATOM     13  C   UNL     1       1.936   8.508  17.649  0.00  0.00    +0.000 A 
ATOM     14  C   UNL     1       1.332   9.305  18.631  0.00  0.00    +0.000 A 
ATOM     15  N   UNL     1       0.628  10.421  18.149  0.00  0.00    +0.000 N 
ATOM     16  H   UNL     1       0.748  10.593  17.154  0.00  0.00    +0.000 HD
ENDBRANCH   1  11
BRANCH   1  17
ATOM     17  N   UNL     1       3.253   4.428  18.281  0.00  0.00    +0.000 NA
ATOM     18  C   UNL     1       1.979   3.894  17.795  0.00  0.00    +0.000 C 
ATOM     19  C   UNL     1       2.212   2.408  17.655  0.00  0.00    +0.000 C 
ATOM     20  C   UNL     1       3.694   2.266  17.354  0.00  0.00    +0.000 C 
ATOM     21  C   UNL     1       4.373   3.552  17.877  0.00  0.00    +0.000 C 
BRANCH  21  22
ATOM     22  C   UNL     1       5.232   4.110  16.763  0.00  0.00    +0.000 A 
ATOM     23  C   UNL     1       4.834   4.095  15.420  0.00  0.00    +0.000 A 
ATOM     24  C   UNL     1       5.742   4.430  14.421  0.00  0.00    +0.000 A 
ATOM     25  C   UNL     1       7.027   4.786  14.794  0.00  0.00    +0.000 A 
ATOM     26  N   UNL     1       7.443   4.849  16.077  0.00  0.00    +0.000 NA
ATOM     27  C   UNL     1       6.539   4.517  17.026  0.00  0.00    +0.000 A 
ENDBRANCH  21  22
ENDBRANCH   1  17
TORSDOF 3
ENDMDL
MODEL 3
REMARK VINA RESULT:      -8.1      2.880      7.091
REMARK  Name = 
REMARK  3 active torsions:
REMARK  status: ('A' for Active; 'I' for Inactive)
REMARK    1  A    between atoms: C_8  and  S_9
REMARK    2  A    between atoms: S_9  and  N_12
REMARK    3  A    between atoms: C_16  and  C_17
REMARK                            x       y       z     vdW  Elec       q    Type
REMARK                         _______ _______ _______ _____ _____    ______ ____
ROOT
ATOM      1  S   UNL     1       3.191   4.648  18.549  0.00  0.00    +0.000 S 
ATOM      2  O   UNL     1       2.987   3.949  19.798  0.00  0.00    +0.000 OA
ATOM      3  O   UNL     1       2.551   4.190  17.326  0.00  0.00    +0.000 OA
ENDROOT
BRANCH   1  11
ATOM      4  O   UNL     1      -0.862  11.328  19.017  0.00  0.00    +0.000 OA
ATOM      5  C   UNL     1      -0.152  10.548  19.666  0.00  0.00    +0.000 C 
ATOM      6  C   UNL     1      -0.558  10.162  21.069  0.00  0.00    +0.000 C 
ATOM      7  C   UNL     1      -0.214   8.779  21.579  0.00  0.00    +0.000 C 
ATOM      8  C   UNL     1       1.283   8.527  21.591  0.00  0.00    +0.000 C 
ATOM      9  C   UNL     1       1.736   8.084  20.228  0.00  0.00    +0.000 A 
ATOM     10  C   UNL     1       2.254   6.780  20.063  0.00  0.00    +0.000 A 
ATOM     11  C   UNL     1       2.670   6.334  18.803  0.00  0.00    +0.000 A 
ATOM     12  C   UNL     1       2.574   7.181  17.702  0.00  0.00    +0.000 A 
ATOM     13  C   UNL     1       2.083   8.474  17.864  0.00  0.00    +0.000 A 
ATOM     14  C   UNL     1       1.634   8.926  19.113  0.00  0.00    +0.000 A 
ATOM     15  N   UNL     1       1.045  10.201  19.113  0.00  0.00    +0.000 N 
ATOM     16  H   UNL     1       1.130  10.701  18.233  0.00  0.00    +0.000 HD
ENDBRANCH   1  11
BRANCH   1  17
ATOM     17  N   UNL     1       4.839   4.721  18.242  0.00  0.00    +0.000 NA
ATOM     18  C   UNL     1       5.811   4.283  19.245  0.00  0.00    +0.000 C 
ATOM     19  C   UNL     1       6.710   5.479  19.458  0.00  0.00    +0.000 C 
ATOM     20  C   UNL     1       6.696   6.225  18.135  0.00  0.00    +0.000 C 
ATOM     21  C   UNL     1       5.403   5.800  17.405  0.00  0.00    +0.000 C 
BRANCH  21  22
ATOM     22  C   UNL     1       5.781   5.372  16.003  0.00  0.00    +0.000 A 
ATOM     23  C   UNL     1       4.980   4.523  15.229  0.00  0.00    +0.000 A 
ATOM     24  C   UNL     1       5.468   3.999  14.038  0.00  0.00    +0.000 A 
ATOM     25  C   UNL     1       6.747   4.350  13.641  0.00  0.00    +0.000 A 
ATOM     26  N   UNL     1       7.540   5.193  14.336  0.00  0.00    +0.000 NA
ATOM     27  C   UNL     1       7.039   5.686  15.492  0.00  0.00    +0.000 A 
ENDBRANCH  21  22
ENDBRANCH   1  17
TORSDOF 3
ENDMDL
MODEL 4
REMARK VINA RESULT:      -7.9      3.299      6.890
REMARK  Name = 
REMARK  3 active torsions:
REMARK  status: ('A' for Active; 'I' for Inactive)
REMARK    1  A    between atoms: C_8  and  S_9
REMARK    2  A    between atoms: S_9  and  N_12
REMARK    3  A    between atoms: C_16  and  C_17
REMARK                            x       y       z     vdW  Elec       q    Type
REMARK                         _______ _______ _______ _____ _____    ______ ____
ROOT
ATOM      1  S   UNL     1       1.979   4.845  20.202  0.00  0.00    +0.000 S 
ATOM      2  O   UNL     1       2.932   4.616  21.265  0.00  0.00    +0.000 OA
ATOM      3  O   UNL     1       0.614   4.353  20.306  0.00  0.00    +0.000 OA
ENDROOT
BRANCH   1  11
ATOM      4  O   UNL     1      -0.278  12.117  18.387  0.00  0.00    +0.000 OA
ATOM      5  C   UNL     1       0.124  11.403  19.316  0.00  0.00    +0.000 C 
ATOM      6  C   UNL     1      -0.540  11.497  20.669  0.00  0.00    +0.000 C 
ATOM      7  C   UNL     1      -0.623  10.257  21.534  0.00  0.00    +0.000 C 
ATOM      8  C   UNL     1       0.747   9.704  21.879  0.00  0.00    +0.000 C 
ATOM      9  C   UNL     1       1.241   8.831  20.760  0.00  0.00    +0.000 A 
ATOM     10  C   UNL     1       1.430   7.450  20.993  0.00  0.00    +0.000 A 
ATOM     11  C   UNL     1       1.875   6.609  19.966  0.00  0.00    +0.000 A 
ATOM     12  C   UNL     1       2.134   7.136  18.704  0.00  0.00    +0.000 A 
ATOM     13  C   UNL     1       1.971   8.500  18.475  0.00  0.00    +0.000 A 
ATOM     14  C   UNL     1       1.497   9.350  19.484  0.00  0.00    +0.000 A 
ATOM     15  N   UNL     1       1.254  10.676  19.087  0.00  0.00    +0.000 N 
ATOM     16  H   UNL     1       1.574  10.895  18.147  0.00  0.00    +0.000 HD
ENDBRANCH   1  11
BRANCH   1  17
ATOM     17  N   UNL     1       2.614   4.231  18.775  0.00  0.00    +0.000 NA
ATOM     18  C   UNL     1       1.766   3.506  17.826  0.00  0.00    +0.000 C 
ATOM     19  C   UNL     1       2.444   2.167  17.650  0.00  0.00    +0.000 C 
ATOM     20  C   UNL     1       3.921   2.437  17.882  0.00  0.00    +0.000 C 
ATOM     21  C   UNL     1       4.004   3.732  18.719  0.00  0.00    +0.000 C 
BRANCH  21  22
ATOM     22  C   UNL     1       4.976   4.668  18.034  0.00  0.00    +0.000 A 
ATOM     23  C   UNL     1       5.031   4.816  16.642  0.00  0.00    +0.000 A 
ATOM     24  C   UNL     1       6.073   5.528  16.058  0.00  0.00    +0.000 A 
ATOM     25  C   UNL     1       7.032   6.087  16.886  0.00  0.00    +0.000 A 
ATOM     26  N   UNL     1       6.999   6.000  18.233  0.00  0.00    +0.000 NA
ATOM     27  C   UNL     1       5.974   5.301  18.772  0.00  0.00    +0.000 A 
ENDBRANCH  21  22
ENDBRANCH   1  17
TORSDOF 3
ENDMDL
MODEL 5
REMARK VINA RESULT:      -7.9      6.772      9.182
REMARK  Name = 
REMARK  3 active torsions:
REMARK  status: ('A' for Active; 'I' for Inactive)
REMARK    1  A    between atoms: C_8  and  S_9
REMARK    2  A    between atoms: S_9  and  N_12
REMARK    3  A    between atoms: C_16  and  C_17
REMARK                            x       y       z     vdW  Elec       q    Type
REMARK                         _______ _______ _______ _____ _____    ______ ____
ROOT
ATOM      1  S   UNL     1      -1.423  11.812  19.092  0.00  0.00    +0.000 S 
ATOM      2  O   UNL     1      -1.918  12.447  20.292  0.00  0.00    +0.000 OA
ATOM      3  O   UNL     1      -0.753  12.589  18.060  0.00  0.00    +0.000 OA
ENDROOT
BRANCH   1  11
ATOM      4  O   UNL     1       2.077   5.029  20.825  0.00  0.00    +0.000 OA
ATOM      5  C   UNL     1       2.199   6.071  20.168  0.00  0.00    +0.000 C 
ATOM      6  C   UNL     1       2.688   5.999  18.740  0.00  0.00    +0.000 C 
ATOM      7  C   UNL     1       2.180   7.013  17.738  0.00  0.00    +0.000 C 
ATOM      8  C   UNL     1       2.530   8.436  18.133  0.00  0.00    +0.000 C 
ATOM      9  C   UNL     1       1.512   8.961  19.106  0.00  0.00    +0.000 A 
ATOM     10  C   UNL     1       0.687  10.044  18.726  0.00  0.00    +0.000 A 
ATOM     11  C   UNL     1      -0.279  10.544  19.606  0.00  0.00    +0.000 A 
ATOM     12  C   UNL     1      -0.432   9.972  20.866  0.00  0.00    +0.000 A 
ATOM     13  C   UNL     1       0.393   8.918  21.252  0.00  0.00    +0.000 A 
ATOM     14  C   UNL     1       1.345   8.385  20.372  0.00  0.00    +0.000 A 
ATOM     15  N   UNL     1       2.020   7.245  20.838  0.00  0.00    +0.000 N 
ATOM     16  H   UNL     1       1.832   7.016  21.810  0.00  0.00    +0.000 HD
ENDBRANCH   1  11
BRANCH   1  17
ATOM     17  N   UNL     1      -2.694  11.006  18.350  0.00  0.00    +0.000 NA
ATOM     18  C   UNL     1      -2.456   9.807  17.545  0.00  0.00    +0.000 C 
ATOM     19  C   UNL     1      -3.051  10.125  16.193  0.00  0.00    +0.000 C 
ATOM     20  C   UNL     1      -4.181  11.100  16.478  0.00  0.00    +0.000 C 
ATOM     21  C   UNL     1      -3.866  11.750  17.843  0.00  0.00    +0.000 C 
BRANCH  21  22
ATOM     22  C   UNL     1      -5.102  11.633  18.710  0.00  0.00    +0.000 A 
ATOM     23  C   UNL     1      -5.306  12.423  19.848  0.00  0.00    +0.000 A 
ATOM     24  C   UNL     1      -6.352  12.135  20.718  0.00  0.00    +0.000 A 
ATOM     25  C   UNL     1      -7.180  11.067  20.418  0.00  0.00    +0.000 A 
ATOM     26  N   UNL     1      -7.043  10.302  19.314  0.00  0.00    +0.000 NA
ATOM     27  C   UNL     1      -6.016  10.605  18.487  0.00  0.00    +0.000 A 
ENDBRANCH  21  22
ENDBRANCH   1  17
TORSDOF 3
ENDMDL
MODEL 6
REMARK VINA RESULT:      -7.8      2.853      6.500
REMARK  Name = 
REMARK  3 active torsions:
REMARK  status: ('A' for Active; 'I' for Inactive)
REMARK    1  A    between atoms: C_8  and  S_9
REMARK    2  A    between atoms: S_9  and  N_12
REMARK    3  A    between atoms: C_16  and  C_17
REMARK                            x       y       z     vdW  Elec       q    Type
REMARK                         _______ _______ _______ _____ _____    ______ ____
ROOT
ATOM      1  S   UNL     1       1.764   3.965  18.471  0.00  0.00    +0.000 S 
ATOM      2  O   UNL     1       0.996   3.423  19.569  0.00  0.00    +0.000 OA
ATOM      3  O   UNL     1       1.315   3.805  17.097  0.00  0.00    +0.000 OA
ENDROOT
BRANCH   1  11
ATOM      4  O   UNL     1       0.581  11.683  19.033  0.00  0.00    +0.000 OA
ATOM      5  C   UNL     1       0.914  10.678  19.677  0.00  0.00    +0.000 C 
ATOM      6  C   UNL     1       0.344  10.454  21.058  0.00  0.00    +0.000 C 
ATOM      7  C   UNL     1       0.112   9.037  21.535  0.00  0.00    +0.000 C 
ATOM      8  C   UNL     1       1.395   8.227  21.576  0.00  0.00    +0.000 C 
ATOM      9  C   UNL     1       1.688   7.668  20.212  0.00  0.00    +0.000 A 
ATOM     10  C   UNL     1       1.670   6.267  20.022  0.00  0.00    +0.000 A 
ATOM     11  C   UNL     1       1.925   5.718  18.760  0.00  0.00    +0.000 A 
ATOM     12  C   UNL     1       2.198   6.555  17.683  0.00  0.00    +0.000 A 
ATOM     13  C   UNL     1       2.238   7.935  17.870  0.00  0.00    +0.000 A 
ATOM     14  C   UNL     1       1.955   8.503  19.120  0.00  0.00    +0.000 A 
ATOM     15  N   UNL     1       1.903   9.906  19.143  0.00  0.00    +0.000 N 
ATOM     16  H   UNL     1       2.204  10.350  18.279  0.00  0.00    +0.000 HD
ENDBRANCH   1  11
BRANCH   1  17
ATOM     17  N   UNL     1       3.322   3.346  18.552  0.00  0.00    +0.000 NA
ATOM     18  C   UNL     1       3.576   2.023  19.126  0.00  0.00    +0.000 C 
ATOM     19  C   UNL     1       4.582   2.268  20.227  0.00  0.00    +0.000 C 
ATOM     20  C   UNL     1       5.371   3.486  19.778  0.00  0.00    +0.000 C 
ATOM     21  C   UNL     1       4.479   4.239  18.767  0.00  0.00    +0.000 C 
BRANCH  21  22
ATOM     22  C   UNL     1       5.304   4.503  17.526  0.00  0.00    +0.000 A 
ATOM     23  C   UNL     1       4.775   4.416  16.232  0.00  0.00    +0.000 A 
ATOM     24  C   UNL     1       5.620   4.466  15.129  0.00  0.00    +0.000 A 
ATOM     25  C   UNL     1       6.979   4.616  15.349  0.00  0.00    +0.000 A 
ATOM     26  N   UNL     1       7.529   4.740  16.576  0.00  0.00    +0.000 NA
ATOM     27  C   UNL     1       6.682   4.687  17.629  0.00  0.00    +0.000 A 
ENDBRANCH  21  22
ENDBRANCH   1  17
TORSDOF 3
ENDMDL
MODEL 7
REMARK VINA RESULT:      -7.7      4.681      6.716
REMARK  Name = 
REMARK  3 active torsions:
REMARK  status: ('A' for Active; 'I' for Inactive)
REMARK    1  A    between atoms: C_8  and  S_9
REMARK    2  A    between atoms: S_9  and  N_12
REMARK    3  A    between atoms: C_16  and  C_17
REMARK                            x       y       z     vdW  Elec       q    Type
REMARK                         _______ _______ _______ _____ _____    ______ ____
ROOT
ATOM      1  S   UNL     1       0.706   9.251  21.106  0.00  0.00    +0.000 S 
ATOM      2  O   UNL     1      -0.470   8.469  21.410  0.00  0.00    +0.000 OA
ATOM      3  O   UNL     1       1.666   9.591  22.145  0.00  0.00    +0.000 OA
ENDROOT
BRANCH   1  11
ATOM      4  O   UNL     1       6.182   6.525  16.220  0.00  0.00    +0.000 OA
ATOM      5  C   UNL     1       5.344   6.183  17.066  0.00  0.00    +0.000 C 
ATOM      6  C   UNL     1       5.716   5.158  18.111  0.00  0.00    +0.000 C 
ATOM      7  C   UNL     1       5.091   5.252  19.487  0.00  0.00    +0.000 C 
ATOM      8  C   UNL     1       3.579   5.138  19.440  0.00  0.00    +0.000 C 
ATOM      9  C   UNL     1       2.976   6.479  19.129  0.00  0.00    +0.000 A 
ATOM     10  C   UNL     1       2.169   7.116  20.098  0.00  0.00    +0.000 A 
ATOM     11  C   UNL     1       1.606   8.371  19.842  0.00  0.00    +0.000 A 
ATOM     12  C   UNL     1       1.841   9.000  18.622  0.00  0.00    +0.000 A 
ATOM     13  C   UNL     1       2.618   8.366  17.655  0.00  0.00    +0.000 A 
ATOM     14  C   UNL     1       3.214   7.123  17.908  0.00  0.00    +0.000 A 
ATOM     15  N   UNL     1       4.076   6.656  16.901  0.00  0.00    +0.000 N 
ATOM     16  H   UNL     1       4.066   7.212  16.051  0.00  0.00    +0.000 HD
ENDBRANCH   1  11
BRANCH   1  17
ATOM     17  N   UNL     1       0.221  10.693  20.398  0.00  0.00    +0.000 NA
ATOM     18  C   UNL     1       1.091  11.870  20.417  0.00  0.00    +0.000 C 
ATOM     19  C   UNL     1       0.262  12.953  21.068  0.00  0.00    +0.000 C 
ATOM     20  C   UNL     1      -1.178  12.606  20.729  0.00  0.00    +0.000 C 
ATOM     21  C   UNL     1      -1.201  11.096  20.405  0.00  0.00    +0.000 C 
BRANCH  21  22
ATOM     22  C   UNL     1      -1.908  10.916  19.078  0.00  0.00    +0.000 A 
ATOM     23  C   UNL     1      -1.404  10.102  18.057  0.00  0.00    +0.000 A 
ATOM     24  C   UNL     1      -1.981  10.134  16.792  0.00  0.00    +0.000 A 
ATOM     25  C   UNL     1      -3.062  10.974  16.584  0.00  0.00    +0.000 A 
ATOM     26  N   UNL     1      -3.604  11.748  17.549  0.00  0.00    +0.000 NA
ATOM     27  C   UNL     1      -3.020  11.697  18.768  0.00  0.00    +0.000 A 
ENDBRANCH  21  22
ENDBRANCH   1  17
TORSDOF 3
ENDMDL
MODEL 8
REMARK VINA RESULT:      -7.7      3.102      6.751
REMARK  Name = 
REMARK  3 active torsions:
REMARK  status: ('A' for Active; 'I' for Inactive)
REMARK    1  A    between atoms: C_8  and  S_9
REMARK    2  A    between atoms: S_9  and  N_12
REMARK    3  A    between atoms: C_16  and  C_17
REMARK                            x       y       z     vdW  Elec       q    Type
REMARK                         _______ _______ _______ _____ _____    ______ ____
ROOT
ATOM      1  S   UNL     1       3.669   5.268  19.731  0.00  0.00    +0.000 S 
ATOM      2  O   UNL     1       5.015   5.792  19.774  0.00  0.00    +0.000 OA
ATOM      3  O   UNL     1       3.198   4.337  20.745  0.00  0.00    +0.000 OA
ENDROOT
BRANCH   1  11
ATOM      4  O   UNL     1       0.310  12.236  20.931  0.00  0.00    +0.000 OA
ATOM      5  C   UNL     1       0.641  11.430  20.051  0.00  0.00    +0.000 C 
ATOM      6  C   UNL     1       1.316  11.932  18.796  0.00  0.00    +0.000 C 
ATOM      7  C   UNL     1       2.335  11.049  18.108  0.00  0.00    +0.000 C 
ATOM      8  C   UNL     1       1.740   9.730  17.653  0.00  0.00    +0.000 C 
ATOM      9  C   UNL     1       1.737   8.752  18.795  0.00  0.00    +0.000 A 
ATOM     10  C   UNL     1       2.533   7.587  18.709  0.00  0.00    +0.000 A 
ATOM     11  C   UNL     1       2.562   6.666  19.762  0.00  0.00    +0.000 A 
ATOM     12  C   UNL     1       1.802   6.897  20.905  0.00  0.00    +0.000 A 
ATOM     13  C   UNL     1       1.000   8.032  20.986  0.00  0.00    +0.000 A 
ATOM     14  C   UNL     1       0.983   8.980  19.953  0.00  0.00    +0.000 A 
ATOM     15  N   UNL     1       0.233  10.139  20.215  0.00  0.00    +0.000 N 
ATOM     16  H   UNL     1      -0.315  10.098  21.070  0.00  0.00    +0.000 HD
ENDBRANCH   1  11
BRANCH   1  17
ATOM     17  N   UNL     1       3.430   4.531  18.242  0.00  0.00    +0.000 NA
ATOM     18  C   UNL     1       2.083   4.197  17.776  0.00  0.00    +0.000 C 
ATOM     19  C   UNL     1       2.130   2.714  17.492  0.00  0.00    +0.000 C 
ATOM     20  C   UNL     1       3.572   2.430  17.107  0.00  0.00    +0.000 C 
ATOM     21  C   UNL     1       4.420   3.573  17.707  0.00  0.00    +0.000 C 
BRANCH  21  22
ATOM     22  C   UNL     1       5.296   4.130  16.605  0.00  0.00    +0.000 A 
ATOM     23  C   UNL     1       4.918   4.114  15.256  0.00  0.00    +0.000 A 
ATOM     24  C   UNL     1       5.841   4.448  14.271  0.00  0.00    +0.000 A 
ATOM     25  C   UNL     1       7.119   4.805  14.662  0.00  0.00    +0.000 A 
ATOM     26  N   UNL     1       7.517   4.870  15.951  0.00  0.00    +0.000 NA
ATOM     27  C   UNL     1       6.598   4.538  16.887  0.00  0.00    +0.000 A 
ENDBRANCH  21  22
ENDBRANCH   1  17
TORSDOF 3
ENDMDL
MODEL 9
REMARK VINA RESULT:      -7.7      3.221      7.077
REMARK  Name = 
REMARK  3 active torsions:
REMARK  status: ('A' for Active; 'I' for Inactive)
REMARK    1  A    between atoms: C_8  and  S_9
REMARK    2  A    between atoms: S_9  and  N_12
REMARK    3  A    between atoms: C_16  and  C_17
REMARK                            x       y       z     vdW  Elec       q    Type
REMARK                         _______ _______ _______ _____ _____    ______ ____
ROOT
ATOM      1  S   UNL     1       3.298   4.854  18.257  0.00  0.00    +0.000 S 
ATOM      2  O   UNL     1       3.718   4.245  19.499  0.00  0.00    +0.000 OA
ATOM      3  O   UNL     1       2.262   4.242  17.440  0.00  0.00    +0.000 OA
ENDROOT
BRANCH   1  11
ATOM      4  O   UNL     1      -0.890  11.393  19.244  0.00  0.00    +0.000 OA
ATOM      5  C   UNL     1      -0.169  10.575  19.832  0.00  0.00    +0.000 C 
ATOM      6  C   UNL     1      -0.579  10.065  21.194  0.00  0.00    +0.000 C 
ATOM      7  C   UNL     1      -0.210   8.651  21.590  0.00  0.00    +0.000 C 
ATOM      8  C   UNL     1       1.290   8.428  21.594  0.00  0.00    +0.000 C 
ATOM      9  C   UNL     1       1.762   8.109  20.203  0.00  0.00    +0.000 A 
ATOM     10  C   UNL     1       2.308   6.833  19.934  0.00  0.00    +0.000 A 
ATOM     11  C   UNL     1       2.742   6.503  18.646  0.00  0.00    +0.000 A 
ATOM     12  C   UNL     1       2.637   7.437  17.619  0.00  0.00    +0.000 A 
ATOM     13  C   UNL     1       2.120   8.703  17.884  0.00  0.00    +0.000 A 
ATOM     14  C   UNL     1       1.652   9.039  19.161  0.00  0.00    +0.000 A 
ATOM     15  N   UNL     1       1.038  10.299  19.263  0.00  0.00    +0.000 N 
ATOM     16  H   UNL     1       1.120  10.872  18.428  0.00  0.00    +0.000 HD
ENDBRANCH   1  11
BRANCH   1  17
ATOM     17  N   UNL     1       4.645   5.047  17.274  0.00  0.00    +0.000 NA
ATOM     18  C   UNL     1       4.617   4.632  15.871  0.00  0.00    +0.000 C 
ATOM     19  C   UNL     1       5.770   3.665  15.732  0.00  0.00    +0.000 C 
ATOM     20  C   UNL     1       6.788   4.112  16.767  0.00  0.00    +0.000 C 
ATOM     21  C   UNL     1       6.009   4.918  17.829  0.00  0.00    +0.000 C 
BRANCH  21  22
ATOM     22  C   UNL     1       6.727   6.235  18.033  0.00  0.00    +0.000 A 
ATOM     23  C   UNL     1       6.463   7.370  17.256  0.00  0.00    +0.000 A 
ATOM     24  C   UNL     1       7.290   8.484  17.346  0.00  0.00    +0.000 A 
ATOM     25  C   UNL     1       8.357   8.440  18.226  0.00  0.00    +0.000 A 
ATOM     26  N   UNL     1       8.628   7.383  19.021  0.00  0.00    +0.000 NA
ATOM     27  C   UNL     1       7.807   6.313  18.910  0.00  0.00    +0.000 A 
ENDBRANCH  21  22
ENDBRANCH   1  17
TORSDOF 3
ENDMDL
