MODEL 1
REMARK VINA RESULT:      -8.0      0.000      0.000
REMARK  Name = 
REMARK  5 active torsions:
REMARK  status: ('A' for Active; 'I' for Inactive)
REMARK    1  A    between atoms: C_1  and  N_2
REMARK    2  A    between atoms: C_4  and  C_5
REMARK    3  A    between atoms: C_5  and  N_6
REMARK    4  A    between atoms: C_15  and  C_16
REMARK    5  A    between atoms: N_18  and  C_19
REMARK                            x       y       z     vdW  Elec       q    Type
REMARK                         _______ _______ _______ _____ _____    ______ ____
ROOT
ATOM      1  N   UNL     1       5.894   4.384  16.817  0.00  0.00    +0.000 NA
ATOM      2  C   UNL     1       5.263   3.887  15.565  0.00  0.00    +0.000 C 
ATOM      3  C   UNL     1       6.079   3.969  14.294  0.00  0.00    +0.000 A 
ATOM      4  C   UNL     1       5.835   3.083  13.234  0.00  0.00    +0.000 A 
ATOM      5  C   UNL     1       6.477   3.255  12.007  0.00  0.00    +0.000 A 
ATOM      6  C   UNL     1       7.359   4.319  11.822  0.00  0.00    +0.000 A 
ATOM      7  C   UNL     1       7.600   5.213  12.866  0.00  0.00    +0.000 A 
ATOM      8  C   UNL     1       6.962   5.038  14.100  0.00  0.00    +0.000 A 
ATOM      9  C   UNL     1       7.148   6.002  15.235  0.00  0.00    +0.000 C 
ATOM     10  C   UNL     1       7.093   5.246  16.575  0.00  0.00    +0.000 C 
ENDROOT
BRANCH  10  11
ATOM     11  C   UNL     1       7.387   6.237  17.721  0.00  0.00    +0.000 C 
ATOM     12  O   UNL     1       7.596   5.881  18.880  0.00  0.00    +0.000 OA
ATOM     13  N   UNL     1       7.435   7.563  17.318  0.00  0.00    +0.000 N 
ATOM     14  H   UNL     1       7.229   7.776  16.350  0.00  0.00    +0.000 HD
BRANCH  13  15
ATOM     15  C   UNL     1       7.659   8.633  18.236  0.00  0.00    +0.000 C 
ATOM     16  C   UNL     1       8.157   9.964  17.745  0.00  0.00    +0.000 C 
ATOM     17  C   UNL     1       9.052   9.093  18.577  0.00  0.00    +0.000 C 
ENDBRANCH  13  15
ENDBRANCH  10  11
BRANCH   1  18
ATOM     18  C   UNL     1       4.847   4.997  17.668  0.00  0.00    +0.000 C 
BRANCH  18  22
ATOM     19  C   UNL     1       5.153   1.349  20.865  0.00  0.00    +0.000 C 
ATOM     20  N   UNL     1       4.580   2.504  20.214  0.00  0.00    +0.000 N 
ATOM     21  N   UNL     1       5.307   3.179  19.302  0.00  0.00    +0.000 NA
ATOM     22  C   UNL     1       4.454   4.101  18.824  0.00  0.00    +0.000 A 
ATOM     23  C   UNL     1       3.184   4.024  19.469  0.00  0.00    +0.000 A 
ATOM     24  C   UNL     1       1.955   4.702  19.367  0.00  0.00    +0.000 A 
ATOM     25  C   UNL     1       0.873   4.276  20.146  0.00  0.00    +0.000 A 
ATOM     26  C   UNL     1       1.007   3.198  21.023  0.00  0.00    +0.000 A 
ATOM     27  C   UNL     1       2.222   2.525  21.155  0.00  0.00    +0.000 A 
ATOM     28  C   UNL     1       3.294   2.959  20.359  0.00  0.00    +0.000 A 
ENDBRANCH  18  22
ENDBRANCH   1  18
TORSDOF 4
ENDMDL
MODEL 2
REMARK VINA RESULT:      -7.2      3.892      6.077
REMARK  Name = 
REMARK  5 active torsions:
REMARK  status: ('A' for Active; 'I' for Inactive)
REMARK    1  A    between atoms: C_1  and  N_2
REMARK    2  A    between atoms: C_4  and  C_5
REMARK    3  A    between atoms: C_5  and  N_6
REMARK    4  A    between atoms: C_15  and  C_16
REMARK    5  A    between atoms: N_18  and  C_19
REMARK                            x       y       z     vdW  Elec       q    Type
REMARK                         _______ _______ _______ _____ _____    ______ ____
ROOT
ATOM      1  N   UNL     1       3.255   6.690  18.630  0.00  0.00    +0.000 NA
ATOM      2  C   UNL     1       1.961   5.984  18.822  0.00  0.00    +0.000 C 
ATOM      3  C   UNL     1       1.975   4.473  18.754  0.00  0.00    +0.000 A 
ATOM      4  C   UNL     1       1.000   3.722  19.428  0.00  0.00    +0.000 A 
ATOM      5  C   UNL     1       0.918   2.342  19.243  0.00  0.00    +0.000 A 
ATOM      6  C   UNL     1       1.799   1.699  18.374  0.00  0.00    +0.000 A 
ATOM      7  C   UNL     1       2.764   2.439  17.688  0.00  0.00    +0.000 A 
ATOM      8  C   UNL     1       2.853   3.822  17.879  0.00  0.00    +0.000 A 
ATOM      9  C   UNL     1       3.838   4.668  17.126  0.00  0.00    +0.000 C 
ATOM     10  C   UNL     1       4.315   5.831  18.016  0.00  0.00    +0.000 C 
ENDROOT
BRANCH  10  11
ATOM     11  C   UNL     1       5.400   6.626  17.261  0.00  0.00    +0.000 C 
ATOM     12  O   UNL     1       5.307   6.929  16.072  0.00  0.00    +0.000 OA
ATOM     13  N   UNL     1       6.472   7.005  18.055  0.00  0.00    +0.000 N 
ATOM     14  H   UNL     1       6.486   6.698  19.019  0.00  0.00    +0.000 HD
BRANCH  13  15
ATOM     15  C   UNL     1       7.595   7.717  17.535  0.00  0.00    +0.000 C 
ATOM     16  C   UNL     1       8.613   8.317  18.464  0.00  0.00    +0.000 C 
ATOM     17  C   UNL     1       7.706   9.213  17.673  0.00  0.00    +0.000 C 
ENDBRANCH  13  15
ENDBRANCH  10  11
BRANCH   1  18
ATOM     18  C   UNL     1       3.002   7.968  17.923  0.00  0.00    +0.000 C 
BRANCH  18  22
ATOM     19  C   UNL     1      -0.998  10.726  17.827  0.00  0.00    +0.000 C 
ATOM     20  N   UNL     1       0.022   9.881  18.401  0.00  0.00    +0.000 N 
ATOM     21  N   UNL     1       0.908   9.269  17.591  0.00  0.00    +0.000 NA
ATOM     22  C   UNL     1       1.763   8.670  18.437  0.00  0.00    +0.000 A 
ATOM     23  C   UNL     1       1.388   8.882  19.797  0.00  0.00    +0.000 A 
ATOM     24  C   UNL     1       1.901   8.518  21.057  0.00  0.00    +0.000 A 
ATOM     25  C   UNL     1       1.274   8.995  22.214  0.00  0.00    +0.000 A 
ATOM     26  C   UNL     1       0.147   9.814  22.127  0.00  0.00    +0.000 A 
ATOM     27  C   UNL     1      -0.390  10.170  20.889  0.00  0.00    +0.000 A 
ATOM     28  C   UNL     1       0.257   9.691  19.739  0.00  0.00    +0.000 A 
ENDBRANCH  18  22
ENDBRANCH   1  18
TORSDOF 4
ENDMDL
MODEL 3
REMARK VINA RESULT:      -7.1      3.610      6.089
REMARK  Name = 
REMARK  5 active torsions:
REMARK  status: ('A' for Active; 'I' for Inactive)
REMARK    1  A    between atoms: C_1  and  N_2
REMARK    2  A    between atoms: C_4  and  C_5
REMARK    3  A    between atoms: C_5  and  N_6
REMARK    4  A    between atoms: C_15  and  C_16
REMARK    5  A    between atoms: N_18  and  C_19
REMARK                            x       y       z     vdW  Elec       q    Type
REMARK                         _______ _______ _______ _____ _____    ______ ____
ROOT
ATOM      1  N   UNL     1       3.054   5.914  17.570  0.00  0.00    +0.000 NA
ATOM      2  C   UNL     1       4.345   6.471  17.086  0.00  0.00    +0.000 C 
ATOM      3  C   UNL     1       5.148   5.629  16.120  0.00  0.00    +0.000 A 
ATOM      4  C   UNL     1       6.037   6.234  15.219  0.00  0.00    +0.000 A 
ATOM      5  C   UNL     1       6.890   5.456  14.436  0.00  0.00    +0.000 A 
ATOM      6  C   UNL     1       6.873   4.066  14.554  0.00  0.00    +0.000 A 
ATOM      7  C   UNL     1       6.001   3.455  15.457  0.00  0.00    +0.000 A 
ATOM      8  C   UNL     1       5.140   4.234  16.237  0.00  0.00    +0.000 A 
ATOM      9  C   UNL     1       4.223   3.627  17.258  0.00  0.00    +0.000 C 
ATOM     10  C   UNL     1       2.919   4.442  17.337  0.00  0.00    +0.000 C 
ENDROOT
BRANCH  10  11
ATOM     11  C   UNL     1       1.951   3.744  18.316  0.00  0.00    +0.000 C 
ATOM     12  O   UNL     1       0.731   3.727  18.159  0.00  0.00    +0.000 OA
ATOM     13  N   UNL     1       2.585   3.102  19.369  0.00  0.00    +0.000 N 
ATOM     14  H   UNL     1       3.592   3.181  19.442  0.00  0.00    +0.000 HD
BRANCH  13  15
ATOM     15  C   UNL     1       1.863   2.428  20.400  0.00  0.00    +0.000 C 
ATOM     16  C   UNL     1       1.209   3.210  21.506  0.00  0.00    +0.000 C 
ATOM     17  C   UNL     1       2.398   2.345  21.805  0.00  0.00    +0.000 C 
ENDBRANCH  13  15
ENDBRANCH  10  11
BRANCH   1  18
ATOM     18  C   UNL     1       2.844   6.344  18.974  0.00  0.00    +0.000 C 
BRANCH  18  22
ATOM     19  C   UNL     1       1.936  10.984  17.848  0.00  0.00    +0.000 C 
ATOM     20  N   UNL     1       1.818   9.743  18.578  0.00  0.00    +0.000 N 
ATOM     21  N   UNL     1       2.420   8.635  18.105  0.00  0.00    +0.000 NA
ATOM     22  C   UNL     1       2.209   7.716  19.061  0.00  0.00    +0.000 A 
ATOM     23  C   UNL     1       1.434   8.245  20.134  0.00  0.00    +0.000 A 
ATOM     24  C   UNL     1       0.940   7.762  21.361  0.00  0.00    +0.000 A 
ATOM     25  C   UNL     1       0.257   8.636  22.215  0.00  0.00    +0.000 A 
ATOM     26  C   UNL     1       0.055   9.969  21.856  0.00  0.00    +0.000 A 
ATOM     27  C   UNL     1       0.517  10.465  20.636  0.00  0.00    +0.000 A 
ATOM     28  C   UNL     1       1.209   9.577  19.796  0.00  0.00    +0.000 A 
ENDBRANCH  18  22
ENDBRANCH   1  18
TORSDOF 4
ENDMDL
MODEL 4
REMARK VINA RESULT:      -7.1      3.570      6.025
REMARK  Name = 
REMARK  5 active torsions:
REMARK  status: ('A' for Active; 'I' for Inactive)
REMARK    1  A    between atoms: C_1  and  N_2
REMARK    2  A    between atoms: C_4  and  C_5
REMARK    3  A    between atoms: C_5  and  N_6
REMARK    4  A    between atoms: C_15  and  C_16
REMARK    5  A    between atoms: N_18  and  C_19
REMARK                            x       y       z     vdW  Elec       q    Type
REMARK                         _______ _______ _______ _____ _____    ______ ____
ROOT
ATOM      1  N   UNL     1       3.274   5.792  17.987  0.00  0.00    +0.000 NA
ATOM      2  C   UNL     1       4.593   6.280  17.506  0.00  0.00    +0.000 C 
ATOM      3  C   UNL     1       5.208   5.569  16.320  0.00  0.00    +0.000 A 
ATOM      4  C   UNL     1       6.109   6.239  15.479  0.00  0.00    +0.000 A 
ATOM      5  C   UNL     1       6.794   5.545  14.481  0.00  0.00    +0.000 A 
ATOM      6  C   UNL     1       6.596   4.173  14.321  0.00  0.00    +0.000 A 
ATOM      7  C   UNL     1       5.712   3.495  15.161  0.00  0.00    +0.000 A 
ATOM      8  C   UNL     1       5.018   4.191  16.158  0.00  0.00    +0.000 A 
ATOM      9  C   UNL     1       4.098   3.498  17.119  0.00  0.00    +0.000 C 
ATOM     10  C   UNL     1       2.924   4.428  17.480  0.00  0.00    +0.000 C 
ENDROOT
BRANCH  10  11
ATOM     11  C   UNL     1       1.938   3.661  18.386  0.00  0.00    +0.000 C 
ATOM     12  O   UNL     1       0.730   3.597  18.163  0.00  0.00    +0.000 OA
ATOM     13  N   UNL     1       2.544   3.016  19.454  0.00  0.00    +0.000 N 
ATOM     14  H   UNL     1       3.540   3.136  19.583  0.00  0.00    +0.000 HD
BRANCH  13  15
ATOM     15  C   UNL     1       1.799   2.283  20.426  0.00  0.00    +0.000 C 
ATOM     16  C   UNL     1       1.075   3.002  21.531  0.00  0.00    +0.000 C 
ATOM     17  C   UNL     1       2.276   2.160  21.849  0.00  0.00    +0.000 C 
ENDBRANCH  13  15
ENDBRANCH  10  11
BRANCH   1  18
ATOM     18  C   UNL     1       3.219   5.940  19.461  0.00  0.00    +0.000 C 
BRANCH  18  22
ATOM     19  C   UNL     1      -0.273   8.215  21.961  0.00  0.00    +0.000 C 
ATOM     20  N   UNL     1       0.764   8.053  20.970  0.00  0.00    +0.000 N 
ATOM     21  N   UNL     1       1.527   6.943  20.984  0.00  0.00    +0.000 NA
ATOM     22  C   UNL     1       2.294   7.062  19.887  0.00  0.00    +0.000 A 
ATOM     23  C   UNL     1       2.031   8.279  19.193  0.00  0.00    +0.000 A 
ATOM     24  C   UNL     1       2.505   8.900  18.021  0.00  0.00    +0.000 A 
ATOM     25  C   UNL     1       1.930  10.106  17.606  0.00  0.00    +0.000 A 
ATOM     26  C   UNL     1       0.904  10.697  18.344  0.00  0.00    +0.000 A 
ATOM     27  C   UNL     1       0.432  10.111  19.519  0.00  0.00    +0.000 A 
ATOM     28  C   UNL     1       1.014   8.896  19.917  0.00  0.00    +0.000 A 
ENDBRANCH  18  22
ENDBRANCH   1  18
TORSDOF 4
ENDMDL
MODEL 5
REMARK VINA RESULT:      -7.0      1.538      2.188
REMARK  Name = 
REMARK  5 active torsions:
REMARK  status: ('A' for Active; 'I' for Inactive)
REMARK    1  A    between atoms: C_1  and  N_2
REMARK    2  A    between atoms: C_4  and  C_5
REMARK    3  A    between atoms: C_5  and  N_6
REMARK    4  A    between atoms: C_15  and  C_16
REMARK    5  A    between atoms: N_18  and  C_19
REMARK                            x       y       z     vdW  Elec       q    Type
REMARK                         _______ _______ _______ _____ _____    ______ ____
ROOT
ATOM      1  N   UNL     1       5.505   5.384  16.969  0.00  0.00    +0.000 NA
ATOM      2  C   UNL     1       4.812   5.003  15.710  0.00  0.00    +0.000 C 
ATOM      3  C   UNL     1       5.672   4.543  14.554  0.00  0.00    +0.000 A 
ATOM      4  C   UNL     1       5.149   3.683  13.576  0.00  0.00    +0.000 A 
ATOM      5  C   UNL     1       5.887   3.382  12.432  0.00  0.00    +0.000 A 
ATOM      6  C   UNL     1       7.149   3.946  12.244  0.00  0.00    +0.000 A 
ATOM      7  C   UNL     1       7.673   4.813  13.205  0.00  0.00    +0.000 A 
ATOM      8  C   UNL     1       6.937   5.110  14.357  0.00  0.00    +0.000 A 
ATOM      9  C   UNL     1       7.435   6.076  15.392  0.00  0.00    +0.000 C 
ATOM     10  C   UNL     1       6.970   5.627  16.790  0.00  0.00    +0.000 C 
ENDROOT
BRANCH  10  11
ATOM     11  C   UNL     1       7.576   6.575  17.847  0.00  0.00    +0.000 C 
ATOM     12  O   UNL     1       7.950   6.194  18.956  0.00  0.00    +0.000 OA
ATOM     13  N   UNL     1       7.700   7.888  17.418  0.00  0.00    +0.000 N 
ATOM     14  H   UNL     1       7.348   8.126  16.500  0.00  0.00    +0.000 HD
BRANCH  13  15
ATOM     15  C   UNL     1       8.206   8.922  18.261  0.00  0.00    +0.000 C 
ATOM     16  C   UNL     1       7.898  10.364  17.965  0.00  0.00    +0.000 C 
ATOM     17  C   UNL     1       9.297   9.849  17.795  0.00  0.00    +0.000 C 
ENDBRANCH  13  15
ENDBRANCH  10  11
BRANCH   1  18
ATOM     18  C   UNL     1       4.761   6.498  17.605  0.00  0.00    +0.000 C 
BRANCH  18  22
ATOM     19  C   UNL     1       1.205   6.704  20.911  0.00  0.00    +0.000 C 
ATOM     20  N   UNL     1       2.208   6.093  20.072  0.00  0.00    +0.000 N 
ATOM     21  N   UNL     1       2.823   6.831  19.128  0.00  0.00    +0.000 NA
ATOM     22  C   UNL     1       3.753   6.004  18.622  0.00  0.00    +0.000 A 
ATOM     23  C   UNL     1       3.699   4.718  19.235  0.00  0.00    +0.000 A 
ATOM     24  C   UNL     1       4.413   3.509  19.118  0.00  0.00    +0.000 A 
ATOM     25  C   UNL     1       4.104   2.448  19.976  0.00  0.00    +0.000 A 
ATOM     26  C   UNL     1       3.096   2.575  20.932  0.00  0.00    +0.000 A 
ATOM     27  C   UNL     1       2.361   3.755  21.052  0.00  0.00    +0.000 A 
ATOM     28  C   UNL     1       2.690   4.814  20.190  0.00  0.00    +0.000 A 
ENDBRANCH  18  22
ENDBRANCH   1  18
TORSDOF 4
ENDMDL
MODEL 6
REMARK VINA RESULT:      -7.0      1.600      2.095
REMARK  Name = 
REMARK  5 active torsions:
REMARK  status: ('A' for Active; 'I' for Inactive)
REMARK    1  A    between atoms: C_1  and  N_2
REMARK    2  A    between atoms: C_4  and  C_5
REMARK    3  A    between atoms: C_5  and  N_6
REMARK    4  A    between atoms: C_15  and  C_16
REMARK    5  A    between atoms: N_18  and  C_19
REMARK                            x       y       z     vdW  Elec       q    Type
REMARK                         _______ _______ _______ _____ _____    ______ ____
ROOT
ATOM      1  N   UNL     1       5.329   5.180  16.675  0.00  0.00    +0.000 NA
ATOM      2  C   UNL     1       4.706   4.845  15.367  0.00  0.00    +0.000 C 
ATOM      3  C   UNL     1       5.625   4.397  14.252  0.00  0.00    +0.000 A 
ATOM      4  C   UNL     1       5.146   3.573  13.223  0.00  0.00    +0.000 A 
ATOM      5  C   UNL     1       5.945   3.286  12.116  0.00  0.00    +0.000 A 
ATOM      6  C   UNL     1       7.226   3.829  12.019  0.00  0.00    +0.000 A 
ATOM      7  C   UNL     1       7.708   4.661  13.031  0.00  0.00    +0.000 A 
ATOM      8  C   UNL     1       6.910   4.943  14.146  0.00  0.00    +0.000 A 
ATOM      9  C   UNL     1       7.363   5.873  15.234  0.00  0.00    +0.000 C 
ATOM     10  C   UNL     1       6.807   5.398  16.589  0.00  0.00    +0.000 C 
ENDROOT
BRANCH  10  11
ATOM     11  C   UNL     1       7.367   6.306  17.705  0.00  0.00    +0.000 C 
ATOM     12  O   UNL     1       7.593   5.907  18.846  0.00  0.00    +0.000 OA
ATOM     13  N   UNL     1       7.630   7.604  17.292  0.00  0.00    +0.000 N 
ATOM     14  H   UNL     1       7.395   7.861  16.342  0.00  0.00    +0.000 HD
BRANCH  13  15
ATOM     15  C   UNL     1       8.118   8.605  18.185  0.00  0.00    +0.000 C 
ATOM     16  C   UNL     1       7.775  10.053  17.966  0.00  0.00    +0.000 C 
ATOM     17  C   UNL     1       9.184   9.580  17.760  0.00  0.00    +0.000 C 
ENDBRANCH  13  15
ENDBRANCH  10  11
BRANCH   1  18
ATOM     18  C   UNL     1       4.570   6.292  17.295  0.00  0.00    +0.000 C 
BRANCH  18  22
ATOM     19  C   UNL     1       1.426   6.256  21.000  0.00  0.00    +0.000 C 
ATOM     20  N   UNL     1       2.092   5.770  19.815  0.00  0.00    +0.000 N 
ATOM     21  N   UNL     1       2.943   6.578  19.154  0.00  0.00    +0.000 NA
ATOM     22  C   UNL     1       3.458   5.793  18.193  0.00  0.00    +0.000 A 
ATOM     23  C   UNL     1       2.897   4.482  18.231  0.00  0.00    +0.000 A 
ATOM     24  C   UNL     1       3.064   3.287  17.505  0.00  0.00    +0.000 A 
ATOM     25  C   UNL     1       2.363   2.143  17.902  0.00  0.00    +0.000 A 
ATOM     26  C   UNL     1       1.499   2.181  18.997  0.00  0.00    +0.000 A 
ATOM     27  C   UNL     1       1.302   3.359  19.718  0.00  0.00    +0.000 A 
ATOM     28  C   UNL     1       2.021   4.495  19.313  0.00  0.00    +0.000 A 
ENDBRANCH  18  22
ENDBRANCH   1  18
TORSDOF 4
ENDMDL
MODEL 7
REMARK VINA RESULT:      -6.9      3.674      6.938
REMARK  Name = 
REMARK  5 active torsions:
REMARK  status: ('A' for Active; 'I' for Inactive)
REMARK    1  A    between atoms: C_1  and  N_2
REMARK    2  A    between atoms: C_4  and  C_5
REMARK    3  A    between atoms: C_5  and  N_6
REMARK    4  A    between atoms: C_15  and  C_16
REMARK    5  A    between atoms: N_18  and  C_19
REMARK                            x       y       z     vdW  Elec       q    Type
REMARK                         _______ _______ _______ _____ _____    ______ ____
ROOT
ATOM      1  N   UNL     1       3.106   6.587  18.995  0.00  0.00    +0.000 NA
ATOM      2  C   UNL     1       2.087   5.875  19.811  0.00  0.00    +0.000 C 
ATOM      3  C   UNL     1       2.481   4.543  20.410  0.00  0.00    +0.000 A 
ATOM      4  C   UNL     1       1.856   4.075  21.576  0.00  0.00    +0.000 A 
ATOM      5  C   UNL     1       2.106   2.784  22.042  0.00  0.00    +0.000 A 
ATOM      6  C   UNL     1       2.971   1.943  21.343  0.00  0.00    +0.000 A 
ATOM      7  C   UNL     1       3.588   2.394  20.175  0.00  0.00    +0.000 A 
ATOM      8  C   UNL     1       3.345   3.691  19.710  0.00  0.00    +0.000 A 
ATOM      9  C   UNL     1       3.942   4.204  18.432  0.00  0.00    +0.000 C 
ATOM     10  C   UNL     1       4.239   5.710  18.563  0.00  0.00    +0.000 C 
ENDROOT
BRANCH  10  11
ATOM     11  C   UNL     1       4.945   6.193  17.278  0.00  0.00    +0.000 C 
ATOM     12  O   UNL     1       5.408   7.326  17.152  0.00  0.00    +0.000 OA
ATOM     13  N   UNL     1       5.046   5.222  16.294  0.00  0.00    +0.000 N 
ATOM     14  H   UNL     1       4.619   4.320  16.466  0.00  0.00    +0.000 HD
BRANCH  13  15
ATOM     15  C   UNL     1       5.634   5.483  15.020  0.00  0.00    +0.000 C 
ATOM     16  C   UNL     1       5.777   4.381  14.007  0.00  0.00    +0.000 C 
ATOM     17  C   UNL     1       6.998   4.954  14.664  0.00  0.00    +0.000 C 
ENDBRANCH  13  15
ENDBRANCH  10  11
BRANCH   1  18
ATOM     18  C   UNL     1       2.420   7.305  17.894  0.00  0.00    +0.000 C 
BRANCH  18  22
ATOM     19  C   UNL     1       2.403  12.165  17.876  0.00  0.00    +0.000 C 
ATOM     20  N   UNL     1       2.026  10.834  18.291  0.00  0.00    +0.000 N 
ATOM     21  N   UNL     1       2.456   9.772  17.582  0.00  0.00    +0.000 NA
ATOM     22  C   UNL     1       2.028   8.713  18.290  0.00  0.00    +0.000 A 
ATOM     23  C   UNL     1       1.291   9.117  19.442  0.00  0.00    +0.000 A 
ATOM     24  C   UNL     1       0.645   8.466  20.510  0.00  0.00    +0.000 A 
ATOM     25  C   UNL     1       0.072   9.232  21.532  0.00  0.00    +0.000 A 
ATOM     26  C   UNL     1       0.128  10.626  21.493  0.00  0.00    +0.000 A 
ATOM     27  C   UNL     1       0.745  11.293  20.434  0.00  0.00    +0.000 A 
ATOM     28  C   UNL     1       1.323  10.509  19.423  0.00  0.00    +0.000 A 
ENDBRANCH  18  22
ENDBRANCH   1  18
TORSDOF 4
ENDMDL
MODEL 8
REMARK VINA RESULT:      -6.9     10.324     12.440
REMARK  Name = 
REMARK  5 active torsions:
REMARK  status: ('A' for Active; 'I' for Inactive)
REMARK    1  A    between atoms: C_1  and  N_2
REMARK    2  A    between atoms: C_4  and  C_5
REMARK    3  A    between atoms: C_5  and  N_6
REMARK    4  A    between atoms: C_15  and  C_16
REMARK    5  A    between atoms: N_18  and  C_19
REMARK                            x       y       z     vdW  Elec       q    Type
REMARK                         _______ _______ _______ _____ _____    ______ ____
ROOT
ATOM      1  N   UNL     1      -0.921  13.798  19.840  0.00  0.00    +0.000 NA
ATOM      2  C   UNL     1      -0.040  14.745  20.573  0.00  0.00    +0.000 C 
ATOM      3  C   UNL     1       1.094  15.382  19.800  0.00  0.00    +0.000 A 
ATOM      4  C   UNL     1       1.610  16.626  20.192  0.00  0.00    +0.000 A 
ATOM      5  C   UNL     1       2.752  17.143  19.578  0.00  0.00    +0.000 A 
ATOM      6  C   UNL     1       3.397  16.417  18.577  0.00  0.00    +0.000 A 
ATOM      7  C   UNL     1       2.898  15.172  18.188  0.00  0.00    +0.000 A 
ATOM      8  C   UNL     1       1.749  14.657  18.797  0.00  0.00    +0.000 A 
ATOM      9  C   UNL     1       1.205  13.301  18.452  0.00  0.00    +0.000 C 
ATOM     10  C   UNL     1      -0.332  13.315  18.552  0.00  0.00    +0.000 C 
ENDROOT
BRANCH  10  11
ATOM     11  C   UNL     1      -0.875  11.945  18.095  0.00  0.00    +0.000 C 
ATOM     12  O   UNL     1      -0.359  10.875  18.417  0.00  0.00    +0.000 OA
ATOM     13  N   UNL     1      -2.023  12.027  17.321  0.00  0.00    +0.000 N 
ATOM     14  H   UNL     1      -2.373  12.945  17.080  0.00  0.00    +0.000 HD
BRANCH  13  15
ATOM     15  C   UNL     1      -2.658  10.872  16.772  0.00  0.00    +0.000 C 
ATOM     16  C   UNL     1      -3.061  10.841  15.323  0.00  0.00    +0.000 C 
ATOM     17  C   UNL     1      -4.115  10.887  16.390  0.00  0.00    +0.000 C 
ENDBRANCH  13  15
ENDBRANCH  10  11
BRANCH   1  18
ATOM     18  C   UNL     1      -1.348  12.725  20.770  0.00  0.00    +0.000 C 
BRANCH  18  22
ATOM     19  C   UNL     1      -6.063  13.207  19.698  0.00  0.00    +0.000 C 
ATOM     20  N   UNL     1      -4.906  12.934  20.516  0.00  0.00    +0.000 N 
ATOM     21  N   UNL     1      -3.689  12.865  19.942  0.00  0.00    +0.000 NA
ATOM     22  C   UNL     1      -2.848  12.715  20.979  0.00  0.00    +0.000 A 
ATOM     23  C   UNL     1      -3.550  12.655  22.219  0.00  0.00    +0.000 A 
ATOM     24  C   UNL     1      -3.199  12.526  23.576  0.00  0.00    +0.000 A 
ATOM     25  C   UNL     1      -4.202  12.585  24.550  0.00  0.00    +0.000 A 
ATOM     26  C   UNL     1      -5.538  12.761  24.187  0.00  0.00    +0.000 A 
ATOM     27  C   UNL     1      -5.911  12.870  22.847  0.00  0.00    +0.000 A 
ATOM     28  C   UNL     1      -4.891  12.819  21.883  0.00  0.00    +0.000 A 
ENDBRANCH  18  22
ENDBRANCH   1  18
TORSDOF 4
ENDMDL
MODEL 9
REMARK VINA RESULT:      -6.8      3.505      7.974
REMARK  Name = 
REMARK  5 active torsions:
REMARK  status: ('A' for Active; 'I' for Inactive)
REMARK    1  A    between atoms: C_1  and  N_2
REMARK    2  A    between atoms: C_4  and  C_5
REMARK    3  A    between atoms: C_5  and  N_6
REMARK    4  A    between atoms: C_15  and  C_16
REMARK    5  A    between atoms: N_18  and  C_19
REMARK                            x       y       z     vdW  Elec       q    Type
REMARK                         _______ _______ _______ _____ _____    ______ ____
ROOT
ATOM      1  N   UNL     1       2.705   7.067  19.532  0.00  0.00    +0.000 NA
ATOM      2  C   UNL     1       2.223   8.360  18.979  0.00  0.00    +0.000 C 
ATOM      3  C   UNL     1       1.271   9.171  19.831  0.00  0.00    +0.000 A 
ATOM      4  C   UNL     1       1.194  10.563  19.682  0.00  0.00    +0.000 A 
ATOM      5  C   UNL     1       0.213  11.293  20.353  0.00  0.00    +0.000 A 
ATOM      6  C   UNL     1      -0.710  10.638  21.170  0.00  0.00    +0.000 A 
ATOM      7  C   UNL     1      -0.649   9.251  21.315  0.00  0.00    +0.000 A 
ATOM      8  C   UNL     1       0.340   8.519  20.649  0.00  0.00    +0.000 A 
ATOM      9  C   UNL     1       0.413   7.022  20.731  0.00  0.00    +0.000 C 
ATOM     10  C   UNL     1       1.884   6.569  20.680  0.00  0.00    +0.000 C 
ENDROOT
BRANCH  10  11
ATOM     11  C   UNL     1       1.943   5.038  20.868  0.00  0.00    +0.000 C 
ATOM     12  O   UNL     1       2.684   4.489  21.682  0.00  0.00    +0.000 OA
ATOM     13  N   UNL     1       1.054   4.340  20.064  0.00  0.00    +0.000 N 
ATOM     14  H   UNL     1       0.494   4.863  19.404  0.00  0.00    +0.000 HD
BRANCH  13  15
ATOM     15  C   UNL     1       0.981   2.914  20.066  0.00  0.00    +0.000 C 
ATOM     16  C   UNL     1       2.028   2.098  19.360  0.00  0.00    +0.000 C 
ATOM     17  C   UNL     1       0.630   2.147  18.819  0.00  0.00    +0.000 C 
ENDBRANCH  13  15
ENDBRANCH  10  11
BRANCH   1  18
ATOM     18  C   UNL     1       2.869   6.102  18.418  0.00  0.00    +0.000 C 
BRANCH  18  22
ATOM     19  C   UNL     1       7.566   5.517  19.520  0.00  0.00    +0.000 C 
ATOM     20  N   UNL     1       6.356   5.393  18.743  0.00  0.00    +0.000 N 
ATOM     21  N   UNL     1       5.182   5.785  19.275  0.00  0.00    +0.000 NA
ATOM     22  C   UNL     1       4.304   5.641  18.269  0.00  0.00    +0.000 A 
ATOM     23  C   UNL     1       4.929   5.120  17.098  0.00  0.00    +0.000 A 
ATOM     24  C   UNL     1       4.519   4.793  15.792  0.00  0.00    +0.000 A 
ATOM     25  C   UNL     1       5.474   4.361  14.864  0.00  0.00    +0.000 A 
ATOM     26  C   UNL     1       6.817   4.246  15.225  0.00  0.00    +0.000 A 
ATOM     27  C   UNL     1       7.242   4.545  16.520  0.00  0.00    +0.000 A 
ATOM     28  C   UNL     1       6.273   4.986  17.436  0.00  0.00    +0.000 A 
ENDBRANCH  18  22
ENDBRANCH   1  18
TORSDOF 4
ENDMDL
