MODEL 1
REMARK VINA RESULT:      -8.5      0.000      0.000
REMARK  Name = 
REMARK  6 active torsions:
REMARK  status: ('A' for Active; 'I' for Inactive)
REMARK    1  A    between atoms: C_2  and  C_19
REMARK    2  A    between atoms: N_3  and  C_4
REMARK    3  A    between atoms: C_6  and  C_7
REMARK    4  A    between atoms: C_7  and  C_8
REMARK    5  A    between atoms: N_12  and  C_13
REMARK    6  A    between atoms: C_22  and  N_23
REMARK                            x       y       z     vdW  Elec       q    Type
REMARK                         _______ _______ _______ _____ _____    ______ ____
ROOT
ATOM      1  O   UNL     1       2.212   7.217  17.532  0.00  0.00    +0.000 OA
ATOM      2  C   UNL     1       2.473   7.513  18.683  0.00  0.00    +0.000 C 
ATOM      3  N   UNL     1       3.534   6.870  19.398  0.00  0.00    +0.000 N 
ATOM      4  H   UNL     1       3.580   6.932  20.408  0.00  0.00    +0.000 HD
ENDROOT
BRANCH   2   5
ATOM      5  C   UNL     1       1.631   8.427  19.481  0.00  0.00    +0.000 A 
ATOM      6  C   UNL     1       1.387   8.115  20.825  0.00  0.00    +0.000 A 
ATOM      7  C   UNL     1       0.588   8.954  21.607  0.00  0.00    +0.000 A 
ATOM      8  C   UNL     1       0.013  10.097  21.035  0.00  0.00    +0.000 A 
ATOM      9  C   UNL     1       0.272  10.407  19.687  0.00  0.00    +0.000 A 
ATOM     10  C   UNL     1       1.080   9.578  18.909  0.00  0.00    +0.000 A 
BRANCH   8  11
ATOM     11  N   UNL     1      -0.858  10.933  21.782  0.00  0.00    +0.000 N 
ATOM     12  C   UNL     1      -1.206  10.861  23.108  0.00  0.00    +0.000 A 
ATOM     13  N   UNL     1      -2.086  11.789  23.401  0.00  0.00    +0.000 NA
ATOM     14  C   UNL     1      -2.253  12.431  22.214  0.00  0.00    +0.000 A 
ATOM     15  N   UNL     1      -1.516  11.967  21.203  0.00  0.00    +0.000 NA
ENDBRANCH   8  11
ENDBRANCH   2   5
BRANCH   3  16
ATOM     16  C   UNL     1       4.299   5.895  18.769  0.00  0.00    +0.000 A 
ATOM     17  C   UNL     1       5.464   6.106  18.072  0.00  0.00    +0.000 A 
ATOM     18  C   UNL     1       5.900   4.819  17.690  0.00  0.00    +0.000 A 
ATOM     19  N   UNL     1       5.108   3.858  18.190  0.00  0.00    +0.000 NA
ATOM     20  N   UNL     1       4.069   4.525  18.756  0.00  0.00    +0.000 N 
BRANCH  20  21
ATOM     21  C   UNL     1       2.895   3.844  19.182  0.00  0.00    +0.000 A 
ATOM     22  C   UNL     1       2.589   3.775  20.544  0.00  0.00    +0.000 A 
ATOM     23  C   UNL     1       1.431   3.113  20.966  0.00  0.00    +0.000 A 
ATOM     24  C   UNL     1       0.594   2.495  20.035  0.00  0.00    +0.000 A 
ATOM     25  C   UNL     1       0.912   2.532  18.679  0.00  0.00    +0.000 A 
ATOM     26  C   UNL     1       2.053   3.205  18.251  0.00  0.00    +0.000 A 
ENDBRANCH  20  21
BRANCH  18  27
ATOM     27  C   UNL     1       7.104   4.482  16.862  0.00  0.00    +0.000 C 
BRANCH  27  28
ATOM     28  C   UNL     1       6.981   4.805  15.394  0.00  0.00    +0.000 C 
ATOM     29  C   UNL     1       5.603   5.067  14.837  0.00  0.00    +0.000 C 
ATOM     30  C   UNL     1       6.365   3.849  14.398  0.00  0.00    +0.000 C 
ENDBRANCH  27  28
ENDBRANCH  18  27
ENDBRANCH   3  16
TORSDOF 6
ENDMDL
MODEL 2
REMARK VINA RESULT:      -8.4      1.259      1.752
REMARK  Name = 
REMARK  6 active torsions:
REMARK  status: ('A' for Active; 'I' for Inactive)
REMARK    1  A    between atoms: C_2  and  C_19
REMARK    2  A    between atoms: N_3  and  C_4
REMARK    3  A    between atoms: C_6  and  C_7
REMARK    4  A    between atoms: C_7  and  C_8
REMARK    5  A    between atoms: N_12  and  C_13
REMARK    6  A    between atoms: C_22  and  N_23
REMARK                            x       y       z     vdW  Elec       q    Type
REMARK                         _______ _______ _______ _____ _____    ______ ____
ROOT
ATOM      1  O   UNL     1       2.033   9.360  17.479  0.00  0.00    +0.000 OA
ATOM      2  C   UNL     1       1.764   9.003  18.611  0.00  0.00    +0.000 C 
ATOM      3  N   UNL     1       2.229   7.752  19.130  0.00  0.00    +0.000 N 
ATOM      4  H   UNL     1       1.801   7.350  19.955  0.00  0.00    +0.000 HD
ENDROOT
BRANCH   2   5
ATOM      5  C   UNL     1       0.817   9.737  19.475  0.00  0.00    +0.000 A 
ATOM      6  C   UNL     1       0.799   9.451  20.846  0.00  0.00    +0.000 A 
ATOM      7  C   UNL     1      -0.091  10.122  21.691  0.00  0.00    +0.000 A 
ATOM      8  C   UNL     1      -0.979  11.065  21.157  0.00  0.00    +0.000 A 
ATOM      9  C   UNL     1      -0.945  11.353  19.780  0.00  0.00    +0.000 A 
ATOM     10  C   UNL     1      -0.049  10.694  18.938  0.00  0.00    +0.000 A 
BRANCH   8  11
ATOM     11  N   UNL     1      -1.940  11.714  21.975  0.00  0.00    +0.000 N 
ATOM     12  C   UNL     1      -2.101  11.658  23.338  0.00  0.00    +0.000 A 
ATOM     13  N   UNL     1      -3.148  12.359  23.704  0.00  0.00    +0.000 NA
ATOM     14  C   UNL     1      -3.610  12.851  22.522  0.00  0.00    +0.000 A 
ATOM     15  N   UNL     1      -2.902  12.508  21.444  0.00  0.00    +0.000 NA
ENDBRANCH   8  11
ENDBRANCH   2   5
BRANCH   3  16
ATOM     16  C   UNL     1       3.018   6.925  18.338  0.00  0.00    +0.000 A 
ATOM     17  C   UNL     1       3.791   7.323  17.274  0.00  0.00    +0.000 A 
ATOM     18  C   UNL     1       4.453   6.153  16.845  0.00  0.00    +0.000 A 
ATOM     19  N   UNL     1       4.180   5.108  17.642  0.00  0.00    +0.000 NA
ATOM     20  N   UNL     1       3.217   5.559  18.486  0.00  0.00    +0.000 N 
BRANCH  20  21
ATOM     21  C   UNL     1       2.492   4.668  19.327  0.00  0.00    +0.000 A 
ATOM     22  C   UNL     1       1.490   3.860  18.783  0.00  0.00    +0.000 A 
ATOM     23  C   UNL     1       0.781   2.979  19.606  0.00  0.00    +0.000 A 
ATOM     24  C   UNL     1       1.051   2.923  20.974  0.00  0.00    +0.000 A 
ATOM     25  C   UNL     1       2.026   3.749  21.528  0.00  0.00    +0.000 A 
ATOM     26  C   UNL     1       2.747   4.616  20.712  0.00  0.00    +0.000 A 
ENDBRANCH  20  21
BRANCH  18  27
ATOM     27  C   UNL     1       5.386   6.018  15.678  0.00  0.00    +0.000 C 
BRANCH  27  28
ATOM     28  C   UNL     1       5.769   4.602  15.329  0.00  0.00    +0.000 C 
ATOM     29  C   UNL     1       7.085   4.374  14.626  0.00  0.00    +0.000 C 
ATOM     30  C   UNL     1       5.797   4.094  13.905  0.00  0.00    +0.000 C 
ENDBRANCH  27  28
ENDBRANCH  18  27
ENDBRANCH   3  16
TORSDOF 6
ENDMDL
MODEL 3
REMARK VINA RESULT:      -8.4      1.030      1.702
REMARK  Name = 
REMARK  6 active torsions:
REMARK  status: ('A' for Active; 'I' for Inactive)
REMARK    1  A    between atoms: C_2  and  C_19
REMARK    2  A    between atoms: N_3  and  C_4
REMARK    3  A    between atoms: C_6  and  C_7
REMARK    4  A    between atoms: C_7  and  C_8
REMARK    5  A    between atoms: N_12  and  C_13
REMARK    6  A    between atoms: C_22  and  N_23
REMARK                            x       y       z     vdW  Elec       q    Type
REMARK                         _______ _______ _______ _____ _____    ______ ____
ROOT
ATOM      1  O   UNL     1       2.222   8.814  17.105  0.00  0.00    +0.000 OA
ATOM      2  C   UNL     1       2.067   8.571  18.287  0.00  0.00    +0.000 C 
ATOM      3  N   UNL     1       2.672   7.426  18.900  0.00  0.00    +0.000 N 
ATOM      4  H   UNL     1       2.340   7.091  19.797  0.00  0.00    +0.000 HD
ENDROOT
BRANCH   2   5
ATOM      5  C   UNL     1       1.128   9.327  19.140  0.00  0.00    +0.000 A 
ATOM      6  C   UNL     1       0.367  10.349  18.560  0.00  0.00    +0.000 A 
ATOM      7  C   UNL     1      -0.526  11.090  19.341  0.00  0.00    +0.000 A 
ATOM      8  C   UNL     1      -0.639  10.821  20.711  0.00  0.00    +0.000 A 
ATOM      9  C   UNL     1       0.123   9.785  21.283  0.00  0.00    +0.000 A 
ATOM     10  C   UNL     1       1.004   9.036  20.502  0.00  0.00    +0.000 A 
BRANCH   8  11
ATOM     11  N   UNL     1      -1.484  11.599  21.545  0.00  0.00    +0.000 N 
ATOM     12  C   UNL     1      -1.581  11.609  22.915  0.00  0.00    +0.000 A 
ATOM     13  N   UNL     1      -2.528  12.431  23.300  0.00  0.00    +0.000 NA
ATOM     14  C   UNL     1      -2.995  12.926  22.122  0.00  0.00    +0.000 A 
ATOM     15  N   UNL     1      -2.383  12.470  21.027  0.00  0.00    +0.000 NA
ENDBRANCH   8  11
ENDBRANCH   2   5
BRANCH   3  16
ATOM     16  C   UNL     1       3.467   6.575  18.141  0.00  0.00    +0.000 A 
ATOM     17  C   UNL     1       4.370   6.957  17.179  0.00  0.00    +0.000 A 
ATOM     18  C   UNL     1       4.975   5.757  16.749  0.00  0.00    +0.000 A 
ATOM     19  N   UNL     1       4.545   4.702  17.458  0.00  0.00    +0.000 NA
ATOM     20  N   UNL     1       3.542   5.191  18.231  0.00  0.00    +0.000 N 
BRANCH  20  21
ATOM     21  C   UNL     1       2.670   4.326  18.950  0.00  0.00    +0.000 A 
ATOM     22  C   UNL     1       1.689   3.603  18.265  0.00  0.00    +0.000 A 
ATOM     23  C   UNL     1       0.836   2.746  18.967  0.00  0.00    +0.000 A 
ATOM     24  C   UNL     1       0.941   2.631  20.355  0.00  0.00    +0.000 A 
ATOM     25  C   UNL     1       1.894   3.373  21.047  0.00  0.00    +0.000 A 
ATOM     26  C   UNL     1       2.758   4.215  20.352  0.00  0.00    +0.000 A 
ENDBRANCH  20  21
BRANCH  18  27
ATOM     27  C   UNL     1       6.005   5.600  15.669  0.00  0.00    +0.000 C 
BRANCH  27  28
ATOM     28  C   UNL     1       6.012   4.256  14.985  0.00  0.00    +0.000 C 
ATOM     29  C   UNL     1       6.683   4.147  13.638  0.00  0.00    +0.000 C 
ATOM     30  C   UNL     1       5.195   3.969  13.746  0.00  0.00    +0.000 C 
ENDBRANCH  27  28
ENDBRANCH  18  27
ENDBRANCH   3  16
TORSDOF 6
ENDMDL
MODEL 4
REMARK VINA RESULT:      -8.4      1.000      1.119
REMARK  Name = 
REMARK  6 active torsions:
REMARK  status: ('A' for Active; 'I' for Inactive)
REMARK    1  A    between atoms: C_2  and  C_19
REMARK    2  A    between atoms: N_3  and  C_4
REMARK    3  A    between atoms: C_6  and  C_7
REMARK    4  A    between atoms: C_7  and  C_8
REMARK    5  A    between atoms: N_12  and  C_13
REMARK    6  A    between atoms: C_22  and  N_23
REMARK                            x       y       z     vdW  Elec       q    Type
REMARK                         _______ _______ _______ _____ _____    ______ ____
ROOT
ATOM      1  O   UNL     1       1.579   6.647  17.484  0.00  0.00    +0.000 OA
ATOM      2  C   UNL     1       2.273   7.254  18.279  0.00  0.00    +0.000 C 
ATOM      3  N   UNL     1       3.624   6.860  18.547  0.00  0.00    +0.000 N 
ATOM      4  H   UNL     1       4.100   7.196  19.374  0.00  0.00    +0.000 HD
ENDROOT
BRANCH   2   5
ATOM      5  C   UNL     1       1.742   8.329  19.142  0.00  0.00    +0.000 A 
ATOM      6  C   UNL     1       1.582   8.075  20.510  0.00  0.00    +0.000 A 
ATOM      7  C   UNL     1       1.075   9.068  21.354  0.00  0.00    +0.000 A 
ATOM      8  C   UNL     1       0.705  10.310  20.821  0.00  0.00    +0.000 A 
ATOM      9  C   UNL     1       0.879  10.559  19.447  0.00  0.00    +0.000 A 
ATOM     10  C   UNL     1       1.398   9.573  18.606  0.00  0.00    +0.000 A 
BRANCH   8  11
ATOM     11  N   UNL     1       0.124  11.316  21.637  0.00  0.00    +0.000 N 
ATOM     12  C   UNL     1      -0.774  11.186  22.668  0.00  0.00    +0.000 A 
ATOM     13  N   UNL     1      -1.111  12.367  23.131  0.00  0.00    +0.000 NA
ATOM     14  C   UNL     1      -0.382  13.214  22.356  0.00  0.00    +0.000 A 
ATOM     15  N   UNL     1       0.400  12.629  21.448  0.00  0.00    +0.000 NA
ENDBRANCH   8  11
ENDBRANCH   2   5
BRANCH   3  16
ATOM     16  C   UNL     1       4.170   5.770  17.879  0.00  0.00    +0.000 A 
ATOM     17  C   UNL     1       5.093   5.825  16.862  0.00  0.00    +0.000 A 
ATOM     18  C   UNL     1       5.390   4.477  16.565  0.00  0.00    +0.000 A 
ATOM     19  N   UNL     1       4.762   3.635  17.400  0.00  0.00    +0.000 NA
ATOM     20  N   UNL     1       3.932   4.425  18.129  0.00  0.00    +0.000 N 
BRANCH  20  21
ATOM     21  C   UNL     1       2.919   3.869  18.959  0.00  0.00    +0.000 A 
ATOM     22  C   UNL     1       3.014   3.994  20.348  0.00  0.00    +0.000 A 
ATOM     23  C   UNL     1       2.016   3.455  21.167  0.00  0.00    +0.000 A 
ATOM     24  C   UNL     1       0.939   2.767  20.604  0.00  0.00    +0.000 A 
ATOM     25  C   UNL     1       0.856   2.611  19.222  0.00  0.00    +0.000 A 
ATOM     26  C   UNL     1       1.837   3.160  18.401  0.00  0.00    +0.000 A 
ENDBRANCH  20  21
BRANCH  18  27
ATOM     27  C   UNL     1       6.309   3.969  15.494  0.00  0.00    +0.000 C 
BRANCH  27  28
ATOM     28  C   UNL     1       6.069   4.547  14.121  0.00  0.00    +0.000 C 
ATOM     29  C   UNL     1       6.174   3.624  12.932  0.00  0.00    +0.000 C 
ATOM     30  C   UNL     1       7.177   4.729  13.109  0.00  0.00    +0.000 C 
ENDBRANCH  27  28
ENDBRANCH  18  27
ENDBRANCH   3  16
TORSDOF 6
ENDMDL
MODEL 5
REMARK VINA RESULT:      -8.3      1.162      1.681
REMARK  Name = 
REMARK  6 active torsions:
REMARK  status: ('A' for Active; 'I' for Inactive)
REMARK    1  A    between atoms: C_2  and  C_19
REMARK    2  A    between atoms: N_3  and  C_4
REMARK    3  A    between atoms: C_6  and  C_7
REMARK    4  A    between atoms: C_7  and  C_8
REMARK    5  A    between atoms: N_12  and  C_13
REMARK    6  A    between atoms: C_22  and  N_23
REMARK                            x       y       z     vdW  Elec       q    Type
REMARK                         _______ _______ _______ _____ _____    ______ ____
ROOT
ATOM      1  O   UNL     1       2.158   8.977  17.194  0.00  0.00    +0.000 OA
ATOM      2  C   UNL     1       1.975   8.716  18.368  0.00  0.00    +0.000 C 
ATOM      3  N   UNL     1       2.542   7.548  18.972  0.00  0.00    +0.000 N 
ATOM      4  H   UNL     1       2.186   7.205  19.856  0.00  0.00    +0.000 HD
ENDROOT
BRANCH   2   5
ATOM      5  C   UNL     1       1.038   9.479  19.218  0.00  0.00    +0.000 A 
ATOM      6  C   UNL     1       0.255  10.478  18.625  0.00  0.00    +0.000 A 
ATOM      7  C   UNL     1      -0.637  11.224  19.402  0.00  0.00    +0.000 A 
ATOM      8  C   UNL     1      -0.728  10.984  20.779  0.00  0.00    +0.000 A 
ATOM      9  C   UNL     1       0.056   9.971  21.363  0.00  0.00    +0.000 A 
ATOM     10  C   UNL     1       0.936   9.217  20.587  0.00  0.00    +0.000 A 
BRANCH   8  11
ATOM     11  N   UNL     1      -1.572  11.768  21.608  0.00  0.00    +0.000 N 
ATOM     12  C   UNL     1      -2.438  12.776  21.260  0.00  0.00    +0.000 A 
ATOM     13  N   UNL     1      -2.993  13.291  22.331  0.00  0.00    +0.000 NA
ATOM     14  C   UNL     1      -2.445  12.559  23.337  0.00  0.00    +0.000 A 
ATOM     15  N   UNL     1      -1.593  11.607  22.953  0.00  0.00    +0.000 NA
ENDBRANCH   8  11
ENDBRANCH   2   5
BRANCH   3  16
ATOM     16  C   UNL     1       3.332   6.692  18.212  0.00  0.00    +0.000 A 
ATOM     17  C   UNL     1       4.211   7.067  17.224  0.00  0.00    +0.000 A 
ATOM     18  C   UNL     1       4.822   5.866  16.804  0.00  0.00    +0.000 A 
ATOM     19  N   UNL     1       4.418   4.819  17.541  0.00  0.00    +0.000 NA
ATOM     20  N   UNL     1       3.426   5.311  18.326  0.00  0.00    +0.000 N 
BRANCH  20  21
ATOM     21  C   UNL     1       2.579   4.449  19.078  0.00  0.00    +0.000 A 
ATOM     22  C   UNL     1       2.700   4.399  20.470  0.00  0.00    +0.000 A 
ATOM     23  C   UNL     1       1.865   3.559  21.213  0.00  0.00    +0.000 A 
ATOM     24  C   UNL     1       0.929   2.747  20.568  0.00  0.00    +0.000 A 
ATOM     25  C   UNL     1       0.827   2.768  19.179  0.00  0.00    +0.000 A 
ATOM     26  C   UNL     1       1.643   3.615  18.435  0.00  0.00    +0.000 A 
ENDBRANCH  20  21
BRANCH  18  27
ATOM     27  C   UNL     1       5.831   5.701  15.707  0.00  0.00    +0.000 C 
BRANCH  27  28
ATOM     28  C   UNL     1       5.852   4.339  15.059  0.00  0.00    +0.000 C 
ATOM     29  C   UNL     1       6.772   4.125  13.883  0.00  0.00    +0.000 C 
ATOM     30  C   UNL     1       5.284   4.083  13.682  0.00  0.00    +0.000 C 
ENDBRANCH  27  28
ENDBRANCH  18  27
ENDBRANCH   3  16
TORSDOF 6
ENDMDL
MODEL 6
REMARK VINA RESULT:      -8.3      0.776      1.533
REMARK  Name = 
REMARK  6 active torsions:
REMARK  status: ('A' for Active; 'I' for Inactive)
REMARK    1  A    between atoms: C_2  and  C_19
REMARK    2  A    between atoms: N_3  and  C_4
REMARK    3  A    between atoms: C_6  and  C_7
REMARK    4  A    between atoms: C_7  and  C_8
REMARK    5  A    between atoms: N_12  and  C_13
REMARK    6  A    between atoms: C_22  and  N_23
REMARK                            x       y       z     vdW  Elec       q    Type
REMARK                         _______ _______ _______ _____ _____    ______ ____
ROOT
ATOM      1  O   UNL     1       1.775   7.104  17.446  0.00  0.00    +0.000 OA
ATOM      2  C   UNL     1       2.315   7.561  18.436  0.00  0.00    +0.000 C 
ATOM      3  N   UNL     1       3.584   7.075  18.888  0.00  0.00    +0.000 N 
ATOM      4  H   UNL     1       3.900   7.270  19.830  0.00  0.00    +0.000 HD
ENDROOT
BRANCH   2   5
ATOM      5  C   UNL     1       1.647   8.524  19.335  0.00  0.00    +0.000 A 
ATOM      6  C   UNL     1       1.182   9.732  18.799  0.00  0.00    +0.000 A 
ATOM      7  C   UNL     1       0.552  10.669  19.623  0.00  0.00    +0.000 A 
ATOM      8  C   UNL     1       0.408  10.406  20.992  0.00  0.00    +0.000 A 
ATOM      9  C   UNL     1       0.869   9.185  21.518  0.00  0.00    +0.000 A 
ATOM     10  C   UNL     1       1.486   8.243  20.694  0.00  0.00    +0.000 A 
BRANCH   8  11
ATOM     11  N   UNL     1      -0.165  11.364  21.868  0.00  0.00    +0.000 N 
ATOM     12  C   UNL     1      -1.058  11.178  22.894  0.00  0.00    +0.000 A 
ATOM     13  N   UNL     1      -1.388  12.330  23.428  0.00  0.00    +0.000 NA
ATOM     14  C   UNL     1      -0.660  13.219  22.700  0.00  0.00    +0.000 A 
ATOM     15  N   UNL     1       0.116  12.685  21.755  0.00  0.00    +0.000 NA
ENDBRANCH   8  11
ENDBRANCH   2   5
BRANCH   3  16
ATOM     16  C   UNL     1       4.231   6.069  18.179  0.00  0.00    +0.000 A 
ATOM     17  C   UNL     1       5.258   6.243  17.283  0.00  0.00    +0.000 A 
ATOM     18  C   UNL     1       5.622   4.939  16.887  0.00  0.00    +0.000 A 
ATOM     19  N   UNL     1       4.930   4.004  17.558  0.00  0.00    +0.000 NA
ATOM     20  N   UNL     1       4.004   4.701  18.265  0.00  0.00    +0.000 N 
BRANCH  20  21
ATOM     21  C   UNL     1       2.922   4.046  18.917  0.00  0.00    +0.000 A 
ATOM     22  C   UNL     1       1.986   3.333  18.162  0.00  0.00    +0.000 A 
ATOM     23  C   UNL     1       0.926   2.682  18.800  0.00  0.00    +0.000 A 
ATOM     24  C   UNL     1       0.781   2.765  20.187  0.00  0.00    +0.000 A 
ATOM     25  C   UNL     1       1.691   3.502  20.940  0.00  0.00    +0.000 A 
ATOM     26  C   UNL     1       2.759   4.138  20.313  0.00  0.00    +0.000 A 
ENDBRANCH  20  21
BRANCH  18  27
ATOM     27  C   UNL     1       6.666   4.558  15.879  0.00  0.00    +0.000 C 
BRANCH  27  28
ATOM     28  C   UNL     1       6.327   4.899  14.450  0.00  0.00    +0.000 C 
ATOM     29  C   UNL     1       5.908   3.778  13.531  0.00  0.00    +0.000 C 
ATOM     30  C   UNL     1       7.204   4.497  13.286  0.00  0.00    +0.000 C 
ENDBRANCH  27  28
ENDBRANCH  18  27
ENDBRANCH   3  16
TORSDOF 6
ENDMDL
MODEL 7
REMARK VINA RESULT:      -8.2      1.062      1.570
REMARK  Name = 
REMARK  6 active torsions:
REMARK  status: ('A' for Active; 'I' for Inactive)
REMARK    1  A    between atoms: C_2  and  C_19
REMARK    2  A    between atoms: N_3  and  C_4
REMARK    3  A    between atoms: C_6  and  C_7
REMARK    4  A    between atoms: C_7  and  C_8
REMARK    5  A    between atoms: N_12  and  C_13
REMARK    6  A    between atoms: C_22  and  N_23
REMARK                            x       y       z     vdW  Elec       q    Type
REMARK                         _______ _______ _______ _____ _____    ______ ____
ROOT
ATOM      1  O   UNL     1       2.100   8.643  17.006  0.00  0.00    +0.000 OA
ATOM      2  C   UNL     1       2.133   8.539  18.218  0.00  0.00    +0.000 C 
ATOM      3  N   UNL     1       2.884   7.502  18.860  0.00  0.00    +0.000 N 
ATOM      4  H   UNL     1       2.705   7.266  19.828  0.00  0.00    +0.000 HD
ENDROOT
BRANCH   2   5
ATOM      5  C   UNL     1       1.288   9.357  19.112  0.00  0.00    +0.000 A 
ATOM      6  C   UNL     1       1.091   8.927  20.430  0.00  0.00    +0.000 A 
ATOM      7  C   UNL     1       0.290   9.673  21.300  0.00  0.00    +0.000 A 
ATOM      8  C   UNL     1      -0.333  10.841  20.841  0.00  0.00    +0.000 A 
ATOM      9  C   UNL     1      -0.121  11.270  19.518  0.00  0.00    +0.000 A 
ATOM     10  C   UNL     1       0.689  10.534  18.653  0.00  0.00    +0.000 A 
BRANCH   8  11
ATOM     11  N   UNL     1      -1.206  11.585  21.677  0.00  0.00    +0.000 N 
ATOM     12  C   UNL     1      -2.261  12.393  21.331  0.00  0.00    +0.000 A 
ATOM     13  N   UNL     1      -2.781  12.949  22.400  0.00  0.00    +0.000 NA
ATOM     14  C   UNL     1      -2.015  12.445  23.405  0.00  0.00    +0.000 A 
ATOM     15  N   UNL     1      -1.059  11.596  23.024  0.00  0.00    +0.000 NA
ENDBRANCH   8  11
ENDBRANCH   2   5
BRANCH   3  16
ATOM     16  C   UNL     1       3.606   6.596  18.091  0.00  0.00    +0.000 A 
ATOM     17  C   UNL     1       4.511   6.912  17.107  0.00  0.00    +0.000 A 
ATOM     18  C   UNL     1       5.029   5.673  16.674  0.00  0.00    +0.000 A 
ATOM     19  N   UNL     1       4.546   4.652  17.401  0.00  0.00    +0.000 NA
ATOM     20  N   UNL     1       3.594   5.211  18.191  0.00  0.00    +0.000 N 
BRANCH  20  21
ATOM     21  C   UNL     1       2.683   4.408  18.934  0.00  0.00    +0.000 A 
ATOM     22  C   UNL     1       1.843   3.512  18.267  0.00  0.00    +0.000 A 
ATOM     23  C   UNL     1       0.953   2.717  18.996  0.00  0.00    +0.000 A 
ATOM     24  C   UNL     1       0.879   2.834  20.385  0.00  0.00    +0.000 A 
ATOM     25  C   UNL     1       1.690   3.749  21.052  0.00  0.00    +0.000 A 
ATOM     26  C   UNL     1       2.591   4.531  20.335  0.00  0.00    +0.000 A 
ENDBRANCH  20  21
BRANCH  18  27
ATOM     27  C   UNL     1       6.024   5.442  15.575  0.00  0.00    +0.000 C 
BRANCH  27  28
ATOM     28  C   UNL     1       5.862   4.140  14.832  0.00  0.00    +0.000 C 
ATOM     29  C   UNL     1       6.604   3.967  13.530  0.00  0.00    +0.000 C 
ATOM     30  C   UNL     1       5.104   4.035  13.528  0.00  0.00    +0.000 C 
ENDBRANCH  27  28
ENDBRANCH  18  27
ENDBRANCH   3  16
TORSDOF 6
ENDMDL
MODEL 8
REMARK VINA RESULT:      -8.2      1.247      1.715
REMARK  Name = 
REMARK  6 active torsions:
REMARK  status: ('A' for Active; 'I' for Inactive)
REMARK    1  A    between atoms: C_2  and  C_19
REMARK    2  A    between atoms: N_3  and  C_4
REMARK    3  A    between atoms: C_6  and  C_7
REMARK    4  A    between atoms: C_7  and  C_8
REMARK    5  A    between atoms: N_12  and  C_13
REMARK    6  A    between atoms: C_22  and  N_23
REMARK                            x       y       z     vdW  Elec       q    Type
REMARK                         _______ _______ _______ _____ _____    ______ ____
ROOT
ATOM      1  O   UNL     1       1.503   6.589  17.361  0.00  0.00    +0.000 OA
ATOM      2  C   UNL     1       2.253   7.249  18.056  0.00  0.00    +0.000 C 
ATOM      3  N   UNL     1       3.615   6.859  18.266  0.00  0.00    +0.000 N 
ATOM      4  H   UNL     1       4.148   7.256  19.030  0.00  0.00    +0.000 HD
ENDROOT
BRANCH   2   5
ATOM      5  C   UNL     1       1.790   8.400  18.858  0.00  0.00    +0.000 A 
ATOM      6  C   UNL     1       1.562   8.215  20.228  0.00  0.00    +0.000 A 
ATOM      7  C   UNL     1       1.116   9.281  21.015  0.00  0.00    +0.000 A 
ATOM      8  C   UNL     1       0.877  10.529  20.424  0.00  0.00    +0.000 A 
ATOM      9  C   UNL     1       1.119  10.707  19.049  0.00  0.00    +0.000 A 
ATOM     10  C   UNL     1       1.576   9.647  18.265  0.00  0.00    +0.000 A 
BRANCH   8  11
ATOM     11  N   UNL     1       0.359  11.613  21.181  0.00  0.00    +0.000 N 
ATOM     12  C   UNL     1       0.769  12.923  21.212  0.00  0.00    +0.000 A 
ATOM     13  N   UNL     1       0.065  13.601  22.089  0.00  0.00    +0.000 NA
ATOM     14  C   UNL     1      -0.789  12.663  22.580  0.00  0.00    +0.000 A 
ATOM     15  N   UNL     1      -0.668  11.445  22.048  0.00  0.00    +0.000 NA
ENDBRANCH   8  11
ENDBRANCH   2   5
BRANCH   3  16
ATOM     16  C   UNL     1       4.106   5.709  17.658  0.00  0.00    +0.000 A 
ATOM     17  C   UNL     1       4.949   5.666  16.574  0.00  0.00    +0.000 A 
ATOM     18  C   UNL     1       5.218   4.295  16.375  0.00  0.00    +0.000 A 
ATOM     19  N   UNL     1       4.653   3.535  17.326  0.00  0.00    +0.000 NA
ATOM     20  N   UNL     1       3.883   4.393  18.043  0.00  0.00    +0.000 N 
BRANCH  20  21
ATOM     21  C   UNL     1       2.934   3.922  18.993  0.00  0.00    +0.000 A 
ATOM     22  C   UNL     1       1.772   3.280  18.553  0.00  0.00    +0.000 A 
ATOM     23  C   UNL     1       0.841   2.809  19.485  0.00  0.00    +0.000 A 
ATOM     24  C   UNL     1       1.053   3.003  20.851  0.00  0.00    +0.000 A 
ATOM     25  C   UNL     1       2.192   3.671  21.293  0.00  0.00    +0.000 A 
ATOM     26  C   UNL     1       3.131   4.127  20.373  0.00  0.00    +0.000 A 
ENDBRANCH  20  21
BRANCH  18  27
ATOM     27  C   UNL     1       6.052   3.686  15.287  0.00  0.00    +0.000 C 
BRANCH  27  28
ATOM     28  C   UNL     1       5.907   4.335  13.933  0.00  0.00    +0.000 C 
ATOM     29  C   UNL     1       5.192   3.568  12.849  0.00  0.00    +0.000 C 
ATOM     30  C   UNL     1       6.660   3.855  12.715  0.00  0.00    +0.000 C 
ENDBRANCH  27  28
ENDBRANCH  18  27
ENDBRANCH   3  16
TORSDOF 6
ENDMDL
MODEL 9
REMARK VINA RESULT:      -8.1      0.697      1.165
REMARK  Name = 
REMARK  6 active torsions:
REMARK  status: ('A' for Active; 'I' for Inactive)
REMARK    1  A    between atoms: C_2  and  C_19
REMARK    2  A    between atoms: N_3  and  C_4
REMARK    3  A    between atoms: C_6  and  C_7
REMARK    4  A    between atoms: C_7  and  C_8
REMARK    5  A    between atoms: N_12  and  C_13
REMARK    6  A    between atoms: C_22  and  N_23
REMARK                            x       y       z     vdW  Elec       q    Type
REMARK                         _______ _______ _______ _____ _____    ______ ____
ROOT
ATOM      1  O   UNL     1       2.792   7.930  16.998  0.00  0.00    +0.000 OA
ATOM      2  C   UNL     1       2.619   7.931  18.203  0.00  0.00    +0.000 C 
ATOM      3  N   UNL     1       3.257   6.968  19.050  0.00  0.00    +0.000 N 
ATOM      4  H   UNL     1       2.919   6.812  19.992  0.00  0.00    +0.000 HD
ENDROOT
BRANCH   2   5
ATOM      5  C   UNL     1       1.630   8.804  18.866  0.00  0.00    +0.000 A 
ATOM      6  C   UNL     1       0.968   9.772  18.100  0.00  0.00    +0.000 A 
ATOM      7  C   UNL     1       0.031  10.620  18.698  0.00  0.00    +0.000 A 
ATOM      8  C   UNL     1      -0.228  10.513  20.071  0.00  0.00    +0.000 A 
ATOM      9  C   UNL     1       0.435   9.530  20.829  0.00  0.00    +0.000 A 
ATOM     10  C   UNL     1       1.361   8.674  20.231  0.00  0.00    +0.000 A 
BRANCH   8  11
ATOM     11  N   UNL     1      -1.122  11.402  20.722  0.00  0.00    +0.000 N 
ATOM     12  C   UNL     1      -1.262  11.665  22.062  0.00  0.00    +0.000 A 
ATOM     13  N   UNL     1      -2.246  12.511  22.261  0.00  0.00    +0.000 NA
ATOM     14  C   UNL     1      -2.690  12.759  21.000  0.00  0.00    +0.000 A 
ATOM     15  N   UNL     1      -2.030  12.129  20.027  0.00  0.00    +0.000 NA
ENDBRANCH   8  11
ENDBRANCH   2   5
BRANCH   3  16
ATOM     16  C   UNL     1       4.106   6.016  18.497  0.00  0.00    +0.000 A 
ATOM     17  C   UNL     1       5.251   6.271  17.781  0.00  0.00    +0.000 A 
ATOM     18  C   UNL     1       5.797   5.001  17.500  0.00  0.00    +0.000 A 
ATOM     19  N   UNL     1       5.089   4.017  18.077  0.00  0.00    +0.000 NA
ATOM     20  N   UNL     1       3.995   4.634  18.592  0.00  0.00    +0.000 N 
BRANCH  20  21
ATOM     21  C   UNL     1       2.882   3.890  19.074  0.00  0.00    +0.000 A 
ATOM     22  C   UNL     1       2.716   3.702  20.449  0.00  0.00    +0.000 A 
ATOM     23  C   UNL     1       1.619   2.978  20.927  0.00  0.00    +0.000 A 
ATOM     24  C   UNL     1       0.704   2.417  20.035  0.00  0.00    +0.000 A 
ATOM     25  C   UNL     1       0.881   2.573  18.662  0.00  0.00    +0.000 A 
ATOM     26  C   UNL     1       1.961   3.308  18.180  0.00  0.00    +0.000 A 
ENDBRANCH  20  21
BRANCH  18  27
ATOM     27  C   UNL     1       7.029   4.704  16.697  0.00  0.00    +0.000 C 
BRANCH  27  28
ATOM     28  C   UNL     1       6.883   4.901  15.209  0.00  0.00    +0.000 C 
ATOM     29  C   UNL     1       5.490   5.011  14.639  0.00  0.00    +0.000 C 
ATOM     30  C   UNL     1       6.344   3.825  14.294  0.00  0.00    +0.000 C 
ENDBRANCH  27  28
ENDBRANCH  18  27
ENDBRANCH   3  16
TORSDOF 6
ENDMDL
