MODEL 1
REMARK VINA RESULT:      -9.1      0.000      0.000
REMARK  Name = 
REMARK  7 active torsions:
REMARK  status: ('A' for Active; 'I' for Inactive)
REMARK    1  A    between atoms: C_1  and  N_2
REMARK    2  A    between atoms: C_6  and  C_7
REMARK    3  A    between atoms: C_7  and  C_8
REMARK    4  A    between atoms: C_8  and  C_9
REMARK    5  A    between atoms: C_13  and  C_14
REMARK    6  A    between atoms: C_14  and  C_15
REMARK    7  A    between atoms: C_19  and  C_20
REMARK                            x       y       z     vdW  Elec       q    Type
REMARK                         _______ _______ _______ _____ _____    ______ ____
ROOT
ATOM      1  C   UNL     1       2.660   5.239  18.955  0.00  0.00    +0.000 A 
ATOM      2  C   UNL     1       2.289   5.334  20.312  0.00  0.00    +0.000 A 
ATOM      3  C   UNL     1       1.855   6.539  20.871  0.00  0.00    +0.000 A 
ATOM      4  C   UNL     1       1.800   7.694  20.095  0.00  0.00    +0.000 A 
ATOM      5  C   UNL     1       2.196   7.657  18.756  0.00  0.00    +0.000 A 
ATOM      6  C   UNL     1       2.606   6.431  18.209  0.00  0.00    +0.000 A 
ENDROOT
BRANCH   1   7
ATOM      7  C   UNL     1       3.112   3.863  18.264  0.00  0.00    +0.000 C 
ATOM      8  C   UNL     1       3.560   2.718  19.214  0.00  0.00    +0.000 C 
ATOM      9  O   UNL     1       2.561   1.815  18.702  0.00  0.00    +0.000 OA
ATOM     10  C   UNL     1       1.979   2.861  17.895  0.00  0.00    +0.000 C 
BRANCH   7  11
ATOM     11  C   UNL     1       4.159   4.124  17.162  0.00  0.00    +0.000 C 
BRANCH  11  17
ATOM     12  C   UNL     1       6.820   4.238  15.460  0.00  0.00    +0.000 C 
ATOM     13  N   UNL     1       6.689   4.404  16.883  0.00  0.00    +0.000 N 
ATOM     14  C   UNL     1       7.709   4.707  17.732  0.00  0.00    +0.000 A 
ATOM     15  N   UNL     1       7.258   4.735  18.963  0.00  0.00    +0.000 NA
ATOM     16  N   UNL     1       5.908   4.489  18.917  0.00  0.00    +0.000 NA
ATOM     17  C   UNL     1       5.557   4.311  17.656  0.00  0.00    +0.000 A 
ENDBRANCH  11  17
ENDBRANCH   7  11
ENDBRANCH   1   7
BRANCH   5  18
ATOM     18  C   UNL     1       2.182   8.888  17.886  0.00  0.00    +0.000 C 
BRANCH  18  19
ATOM     19  C   UNL     1       1.045   9.837  18.187  0.00  0.00    +0.000 A 
ATOM     20  C   UNL     1       1.271  10.988  18.954  0.00  0.00    +0.000 A 
ATOM     21  C   UNL     1       0.227  11.861  19.247  0.00  0.00    +0.000 A 
ATOM     22  C   UNL     1      -1.060  11.599  18.779  0.00  0.00    +0.000 A 
ATOM     23  C   UNL     1      -1.314  10.456  18.002  0.00  0.00    +0.000 A 
ATOM     24  C   UNL     1      -0.253   9.579  17.717  0.00  0.00    +0.000 A 
BRANCH  23  25
ATOM     25  C   UNL     1      -2.696  10.172  17.469  0.00  0.00    +0.000 C 
ATOM     26  F   UNL     1      -2.739  10.025  16.114  0.00  0.00    +0.000 F 
ATOM     27  F   UNL     1      -3.226   9.026  17.980  0.00  0.00    +0.000 F 
ATOM     28  F   UNL     1      -3.586  11.160  17.762  0.00  0.00    +0.000 F 
ENDBRANCH  23  25
ENDBRANCH  18  19
ENDBRANCH   5  18
TORSDOF 6
ENDMDL
MODEL 2
REMARK VINA RESULT:      -9.0      2.063      3.112
REMARK  Name = 
REMARK  7 active torsions:
REMARK  status: ('A' for Active; 'I' for Inactive)
REMARK    1  A    between atoms: C_1  and  N_2
REMARK    2  A    between atoms: C_6  and  C_7
REMARK    3  A    between atoms: C_7  and  C_8
REMARK    4  A    between atoms: C_8  and  C_9
REMARK    5  A    between atoms: C_13  and  C_14
REMARK    6  A    between atoms: C_14  and  C_15
REMARK    7  A    between atoms: C_19  and  C_20
REMARK                            x       y       z     vdW  Elec       q    Type
REMARK                         _______ _______ _______ _____ _____    ______ ____
ROOT
ATOM      1  C   UNL     1       3.610   5.974  18.511  0.00  0.00    +0.000 A 
ATOM      2  C   UNL     1       3.054   5.684  19.774  0.00  0.00    +0.000 A 
ATOM      3  C   UNL     1       2.147   6.549  20.393  0.00  0.00    +0.000 A 
ATOM      4  C   UNL     1       1.784   7.745  19.777  0.00  0.00    +0.000 A 
ATOM      5  C   UNL     1       2.341   8.093  18.542  0.00  0.00    +0.000 A 
ATOM      6  C   UNL     1       3.231   7.198  17.929  0.00  0.00    +0.000 A 
ENDROOT
BRANCH   1   7
ATOM      7  C   UNL     1       4.612   4.981  17.746  0.00  0.00    +0.000 C 
ATOM      8  C   UNL     1       5.800   5.635  16.987  0.00  0.00    +0.000 C 
ATOM      9  O   UNL     1       6.776   4.888  17.738  0.00  0.00    +0.000 OA
ATOM     10  C   UNL     1       5.750   4.345  18.596  0.00  0.00    +0.000 C 
BRANCH   7  11
ATOM     11  C   UNL     1       3.830   4.009  16.840  0.00  0.00    +0.000 C 
BRANCH  11  17
ATOM     12  C   UNL     1       3.727   1.369  18.577  0.00  0.00    +0.000 C 
ATOM     13  N   UNL     1       2.634   2.254  18.272  0.00  0.00    +0.000 N 
ATOM     14  C   UNL     1       1.365   2.123  18.748  0.00  0.00    +0.000 A 
ATOM     15  N   UNL     1       0.608   3.063  18.236  0.00  0.00    +0.000 NA
ATOM     16  N   UNL     1       1.404   3.852  17.443  0.00  0.00    +0.000 NA
ATOM     17  C   UNL     1       2.636   3.378  17.481  0.00  0.00    +0.000 A 
ENDBRANCH  11  17
ENDBRANCH   7  11
ENDBRANCH   1   7
BRANCH   5  18
ATOM     18  C   UNL     1       2.000   9.389  17.853  0.00  0.00    +0.000 C 
BRANCH  18  19
ATOM     19  C   UNL     1       0.706  10.012  18.323  0.00  0.00    +0.000 A 
ATOM     20  C   UNL     1       0.687  10.826  19.462  0.00  0.00    +0.000 A 
ATOM     21  C   UNL     1      -0.502  11.393  19.910  0.00  0.00    +0.000 A 
ATOM     22  C   UNL     1      -1.694  11.155  19.226  0.00  0.00    +0.000 A 
ATOM     23  C   UNL     1      -1.704  10.348  18.076  0.00  0.00    +0.000 A 
ATOM     24  C   UNL     1      -0.497   9.777  17.637  0.00  0.00    +0.000 A 
BRANCH  23  25
ATOM     25  C   UNL     1      -2.982  10.102  17.312  0.00  0.00    +0.000 C 
ATOM     26  F   UNL     1      -3.874   9.316  17.978  0.00  0.00    +0.000 F 
ATOM     27  F   UNL     1      -3.648  11.256  17.028  0.00  0.00    +0.000 F 
ATOM     28  F   UNL     1      -2.769   9.488  16.115  0.00  0.00    +0.000 F 
ENDBRANCH  23  25
ENDBRANCH  18  19
ENDBRANCH   5  18
TORSDOF 6
ENDMDL
MODEL 3
REMARK VINA RESULT:      -8.9      0.788      1.091
REMARK  Name = 
REMARK  7 active torsions:
REMARK  status: ('A' for Active; 'I' for Inactive)
REMARK    1  A    between atoms: C_1  and  N_2
REMARK    2  A    between atoms: C_6  and  C_7
REMARK    3  A    between atoms: C_7  and  C_8
REMARK    4  A    between atoms: C_8  and  C_9
REMARK    5  A    between atoms: C_13  and  C_14
REMARK    6  A    between atoms: C_14  and  C_15
REMARK    7  A    between atoms: C_19  and  C_20
REMARK                            x       y       z     vdW  Elec       q    Type
REMARK                         _______ _______ _______ _____ _____    ______ ____
ROOT
ATOM      1  C   UNL     1       2.595   5.294  18.991  0.00  0.00    +0.000 A 
ATOM      2  C   UNL     1       2.228   5.445  20.344  0.00  0.00    +0.000 A 
ATOM      3  C   UNL     1       1.803   6.674  20.856  0.00  0.00    +0.000 A 
ATOM      4  C   UNL     1       1.753   7.798  20.035  0.00  0.00    +0.000 A 
ATOM      5  C   UNL     1       2.146   7.705  18.696  0.00  0.00    +0.000 A 
ATOM      6  C   UNL     1       2.546   6.456  18.198  0.00  0.00    +0.000 A 
ENDROOT
BRANCH   1   7
ATOM      7  C   UNL     1       3.036   3.889  18.354  0.00  0.00    +0.000 C 
ATOM      8  C   UNL     1       3.187   2.693  19.336  0.00  0.00    +0.000 C 
ATOM      9  O   UNL     1       2.221   1.899  18.620  0.00  0.00    +0.000 OA
ATOM     10  C   UNL     1       1.903   3.007  17.751  0.00  0.00    +0.000 C 
BRANCH   7  11
ATOM     11  C   UNL     1       4.291   4.059  17.474  0.00  0.00    +0.000 C 
BRANCH  11  17
ATOM     12  C   UNL     1       5.967   6.601  16.626  0.00  0.00    +0.000 C 
ATOM     13  N   UNL     1       6.148   5.792  17.802  0.00  0.00    +0.000 N 
ATOM     14  C   UNL     1       7.051   6.038  18.791  0.00  0.00    +0.000 A 
ATOM     15  N   UNL     1       6.990   5.082  19.686  0.00  0.00    +0.000 NA
ATOM     16  N   UNL     1       5.997   4.215  19.300  0.00  0.00    +0.000 NA
ATOM     17  C   UNL     1       5.471   4.655  18.172  0.00  0.00    +0.000 A 
ENDBRANCH  11  17
ENDBRANCH   7  11
ENDBRANCH   1   7
BRANCH   5  18
ATOM     18  C   UNL     1       2.137   8.901  17.779  0.00  0.00    +0.000 C 
BRANCH  18  19
ATOM     19  C   UNL     1       1.081   9.927  18.119  0.00  0.00    +0.000 A 
ATOM     20  C   UNL     1       1.434  11.108  18.785  0.00  0.00    +0.000 A 
ATOM     21  C   UNL     1       0.466  12.053  19.114  0.00  0.00    +0.000 A 
ATOM     22  C   UNL     1      -0.871  11.833  18.785  0.00  0.00    +0.000 A 
ATOM     23  C   UNL     1      -1.253  10.659  18.112  0.00  0.00    +0.000 A 
ATOM     24  C   UNL     1      -0.267   9.710  17.789  0.00  0.00    +0.000 A 
BRANCH  23  25
ATOM     25  C   UNL     1      -2.692  10.419  17.727  0.00  0.00    +0.000 C 
ATOM     26  F   UNL     1      -3.576  11.211  18.398  0.00  0.00    +0.000 F 
ATOM     27  F   UNL     1      -2.922  10.650  16.405  0.00  0.00    +0.000 F 
ATOM     28  F   UNL     1      -3.091   9.138  17.960  0.00  0.00    +0.000 F 
ENDBRANCH  23  25
ENDBRANCH  18  19
ENDBRANCH   5  18
TORSDOF 6
ENDMDL
MODEL 4
REMARK VINA RESULT:      -8.8      1.068      1.597
REMARK  Name = 
REMARK  7 active torsions:
REMARK  status: ('A' for Active; 'I' for Inactive)
REMARK    1  A    between atoms: C_1  and  N_2
REMARK    2  A    between atoms: C_6  and  C_7
REMARK    3  A    between atoms: C_7  and  C_8
REMARK    4  A    between atoms: C_8  and  C_9
REMARK    5  A    between atoms: C_13  and  C_14
REMARK    6  A    between atoms: C_14  and  C_15
REMARK    7  A    between atoms: C_19  and  C_20
REMARK                            x       y       z     vdW  Elec       q    Type
REMARK                         _______ _______ _______ _____ _____    ______ ____
ROOT
ATOM      1  C   UNL     1       2.848   5.317  18.972  0.00  0.00    +0.000 A 
ATOM      2  C   UNL     1       2.362   5.362  20.295  0.00  0.00    +0.000 A 
ATOM      3  C   UNL     1       1.800   6.524  20.832  0.00  0.00    +0.000 A 
ATOM      4  C   UNL     1       1.728   7.686  20.068  0.00  0.00    +0.000 A 
ATOM      5  C   UNL     1       2.235   7.700  18.765  0.00  0.00    +0.000 A 
ATOM      6  C   UNL     1       2.773   6.516  18.239  0.00  0.00    +0.000 A 
ENDROOT
BRANCH   1   7
ATOM      7  C   UNL     1       3.450   3.988  18.305  0.00  0.00    +0.000 C 
ATOM      8  C   UNL     1       2.974   2.632  18.895  0.00  0.00    +0.000 C 
ATOM      9  O   UNL     1       2.470   2.181  17.623  0.00  0.00    +0.000 OA
ATOM     10  C   UNL     1       2.738   3.466  17.022  0.00  0.00    +0.000 C 
BRANCH   7  11
ATOM     11  C   UNL     1       4.989   4.063  18.231  0.00  0.00    +0.000 C 
BRANCH  11  17
ATOM     12  C   UNL     1       6.051   6.798  17.054  0.00  0.00    +0.000 C 
ATOM     13  N   UNL     1       6.039   5.516  16.402  0.00  0.00    +0.000 N 
ATOM     14  C   UNL     1       6.554   5.261  15.167  0.00  0.00    +0.000 A 
ATOM     15  N   UNL     1       6.332   4.008  14.853  0.00  0.00    +0.000 NA
ATOM     16  N   UNL     1       5.698   3.418  15.917  0.00  0.00    +0.000 NA
ATOM     17  C   UNL     1       5.539   4.323  16.866  0.00  0.00    +0.000 A 
ENDBRANCH  11  17
ENDBRANCH   7  11
ENDBRANCH   1   7
BRANCH   5  18
ATOM     18  C   UNL     1       2.205   8.944  17.913  0.00  0.00    +0.000 C 
BRANCH  18  19
ATOM     19  C   UNL     1       1.007   9.829  18.162  0.00  0.00    +0.000 A 
ATOM     20  C   UNL     1       1.132  10.982  18.948  0.00  0.00    +0.000 A 
ATOM     21  C   UNL     1       0.031  11.797  19.194  0.00  0.00    +0.000 A 
ATOM     22  C   UNL     1      -1.216  11.473  18.658  0.00  0.00    +0.000 A 
ATOM     23  C   UNL     1      -1.370  10.326  17.861  0.00  0.00    +0.000 A 
ATOM     24  C   UNL     1      -0.250   9.508  17.624  0.00  0.00    +0.000 A 
BRANCH  23  25
ATOM     25  C   UNL     1      -2.706   9.976  17.255  0.00  0.00    +0.000 C 
ATOM     26  F   UNL     1      -3.404   9.048  17.969  0.00  0.00    +0.000 F 
ATOM     27  F   UNL     1      -3.530  11.056  17.154  0.00  0.00    +0.000 F 
ATOM     28  F   UNL     1      -2.596   9.468  15.996  0.00  0.00    +0.000 F 
ENDBRANCH  23  25
ENDBRANCH  18  19
ENDBRANCH   5  18
TORSDOF 6
ENDMDL
MODEL 5
REMARK VINA RESULT:      -8.7      1.312      2.016
REMARK  Name = 
REMARK  7 active torsions:
REMARK  status: ('A' for Active; 'I' for Inactive)
REMARK    1  A    between atoms: C_1  and  N_2
REMARK    2  A    between atoms: C_6  and  C_7
REMARK    3  A    between atoms: C_7  and  C_8
REMARK    4  A    between atoms: C_8  and  C_9
REMARK    5  A    between atoms: C_13  and  C_14
REMARK    6  A    between atoms: C_14  and  C_15
REMARK    7  A    between atoms: C_19  and  C_20
REMARK                            x       y       z     vdW  Elec       q    Type
REMARK                         _______ _______ _______ _____ _____    ______ ____
ROOT
ATOM      1  C   UNL     1       2.585   6.827  19.015  0.00  0.00    +0.000 A 
ATOM      2  C   UNL     1       2.099   6.594  20.318  0.00  0.00    +0.000 A 
ATOM      3  C   UNL     1       1.360   7.559  21.009  0.00  0.00    +0.000 A 
ATOM      4  C   UNL     1       1.102   8.797  20.426  0.00  0.00    +0.000 A 
ATOM      5  C   UNL     1       1.598   9.087  19.152  0.00  0.00    +0.000 A 
ATOM      6  C   UNL     1       2.317   8.096  18.467  0.00  0.00    +0.000 A 
ENDROOT
BRANCH   1   7
ATOM      7  C   UNL     1       3.390   5.727  18.170  0.00  0.00    +0.000 C 
ATOM      8  C   UNL     1       4.233   4.703  18.980  0.00  0.00    +0.000 C 
ATOM      9  O   UNL     1       3.529   3.579  18.417  0.00  0.00    +0.000 OA
ATOM     10  C   UNL     1       2.599   4.455  17.744  0.00  0.00    +0.000 C 
BRANCH   7  11
ATOM     11  C   UNL     1       4.227   6.395  17.060  0.00  0.00    +0.000 C 
BRANCH  11  17
ATOM     12  C   UNL     1       7.310   6.453  17.752  0.00  0.00    +0.000 C 
ATOM     13  N   UNL     1       6.637   5.557  16.850  0.00  0.00    +0.000 N 
ATOM     14  C   UNL     1       7.229   4.527  16.184  0.00  0.00    +0.000 A 
ATOM     15  N   UNL     1       6.346   3.946  15.408  0.00  0.00    +0.000 NA
ATOM     16  N   UNL     1       5.143   4.578  15.601  0.00  0.00    +0.000 NA
ATOM     17  C   UNL     1       5.311   5.539  16.490  0.00  0.00    +0.000 A 
ENDBRANCH  11  17
ENDBRANCH   7  11
ENDBRANCH   1   7
BRANCH   5  18
ATOM     18  C   UNL     1       1.368  10.424  18.494  0.00  0.00    +0.000 C 
BRANCH  18  19
ATOM     19  C   UNL     1      -0.058  10.915  18.585  0.00  0.00    +0.000 A 
ATOM     20  C   UNL     1      -0.361  12.072  19.314  0.00  0.00    +0.000 A 
ATOM     21  C   UNL     1      -1.673  12.525  19.414  0.00  0.00    +0.000 A 
ATOM     22  C   UNL     1      -2.706  11.828  18.786  0.00  0.00    +0.000 A 
ATOM     23  C   UNL     1      -2.430  10.668  18.043  0.00  0.00    +0.000 A 
ATOM     24  C   UNL     1      -1.101  10.218  17.954  0.00  0.00    +0.000 A 
BRANCH  23  25
ATOM     25  C   UNL     1      -3.533   9.918  17.338  0.00  0.00    +0.000 C 
ATOM     26  F   UNL     1      -3.960   8.813  18.014  0.00  0.00    +0.000 F 
ATOM     27  F   UNL     1      -4.644  10.684  17.148  0.00  0.00    +0.000 F 
ATOM     28  F   UNL     1      -3.165   9.478  16.103  0.00  0.00    +0.000 F 
ENDBRANCH  23  25
ENDBRANCH  18  19
ENDBRANCH   5  18
TORSDOF 6
ENDMDL
MODEL 6
REMARK VINA RESULT:      -8.6      2.089      3.193
REMARK  Name = 
REMARK  7 active torsions:
REMARK  status: ('A' for Active; 'I' for Inactive)
REMARK    1  A    between atoms: C_1  and  N_2
REMARK    2  A    between atoms: C_6  and  C_7
REMARK    3  A    between atoms: C_7  and  C_8
REMARK    4  A    between atoms: C_8  and  C_9
REMARK    5  A    between atoms: C_13  and  C_14
REMARK    6  A    between atoms: C_14  and  C_15
REMARK    7  A    between atoms: C_19  and  C_20
REMARK                            x       y       z     vdW  Elec       q    Type
REMARK                         _______ _______ _______ _____ _____    ______ ____
ROOT
ATOM      1  C   UNL     1       2.535   7.090  19.165  0.00  0.00    +0.000 A 
ATOM      2  C   UNL     1       2.030   6.858  20.461  0.00  0.00    +0.000 A 
ATOM      3  C   UNL     1       1.229   7.798  21.115  0.00  0.00    +0.000 A 
ATOM      4  C   UNL     1       0.927   9.012  20.502  0.00  0.00    +0.000 A 
ATOM      5  C   UNL     1       1.439   9.302  19.234  0.00  0.00    +0.000 A 
ATOM      6  C   UNL     1       2.221   8.333  18.586  0.00  0.00    +0.000 A 
ENDROOT
BRANCH   1   7
ATOM      7  C   UNL     1       3.412   6.013  18.361  0.00  0.00    +0.000 C 
ATOM      8  C   UNL     1       4.460   6.573  17.359  0.00  0.00    +0.000 C 
ATOM      9  O   UNL     1       5.549   5.902  18.021  0.00  0.00    +0.000 OA
ATOM     10  C   UNL     1       4.676   5.461  19.084  0.00  0.00    +0.000 C 
BRANCH   7  11
ATOM     11  C   UNL     1       2.505   4.956  17.699  0.00  0.00    +0.000 C 
BRANCH  11  17
ATOM     12  C   UNL     1       1.010   3.432  20.029  0.00  0.00    +0.000 C 
ATOM     13  N   UNL     1       2.025   2.905  19.156  0.00  0.00    +0.000 N 
ATOM     14  C   UNL     1       2.466   1.618  19.156  0.00  0.00    +0.000 A 
ATOM     15  N   UNL     1       3.428   1.487  18.275  0.00  0.00    +0.000 NA
ATOM     16  N   UNL     1       3.592   2.700  17.654  0.00  0.00    +0.000 NA
ATOM     17  C   UNL     1       2.728   3.555  18.170  0.00  0.00    +0.000 A 
ENDBRANCH  11  17
ENDBRANCH   7  11
ENDBRANCH   1   7
BRANCH   5  18
ATOM     18  C   UNL     1       1.162  10.614  18.545  0.00  0.00    +0.000 C 
BRANCH  18  19
ATOM     19  C   UNL     1      -0.276  11.067  18.644  0.00  0.00    +0.000 A 
ATOM     20  C   UNL     1      -0.609  12.192  19.410  0.00  0.00    +0.000 A 
ATOM     21  C   UNL     1      -1.933  12.609  19.518  0.00  0.00    +0.000 A 
ATOM     22  C   UNL     1      -2.946  11.909  18.863  0.00  0.00    +0.000 A 
ATOM     23  C   UNL     1      -2.639  10.781  18.082  0.00  0.00    +0.000 A 
ATOM     24  C   UNL     1      -1.299  10.367  17.985  0.00  0.00    +0.000 A 
BRANCH  23  25
ATOM     25  C   UNL     1      -3.721  10.029  17.348  0.00  0.00    +0.000 C 
ATOM     26  F   UNL     1      -3.373   9.672  16.079  0.00  0.00    +0.000 F 
ATOM     27  F   UNL     1      -4.064   8.869  17.974  0.00  0.00    +0.000 F 
ATOM     28  F   UNL     1      -4.872  10.746  17.229  0.00  0.00    +0.000 F 
ENDBRANCH  23  25
ENDBRANCH  18  19
ENDBRANCH   5  18
TORSDOF 6
ENDMDL
MODEL 7
REMARK VINA RESULT:      -8.6      2.455      3.497
REMARK  Name = 
REMARK  7 active torsions:
REMARK  status: ('A' for Active; 'I' for Inactive)
REMARK    1  A    between atoms: C_1  and  N_2
REMARK    2  A    between atoms: C_6  and  C_7
REMARK    3  A    between atoms: C_7  and  C_8
REMARK    4  A    between atoms: C_8  and  C_9
REMARK    5  A    between atoms: C_13  and  C_14
REMARK    6  A    between atoms: C_14  and  C_15
REMARK    7  A    between atoms: C_19  and  C_20
REMARK                            x       y       z     vdW  Elec       q    Type
REMARK                         _______ _______ _______ _____ _____    ______ ____
ROOT
ATOM      1  C   UNL     1       2.204   7.350  19.404  0.00  0.00    +0.000 A 
ATOM      2  C   UNL     1       1.793   7.168  20.741  0.00  0.00    +0.000 A 
ATOM      3  C   UNL     1       1.068   8.147  21.425  0.00  0.00    +0.000 A 
ATOM      4  C   UNL     1       0.749   9.350  20.800  0.00  0.00    +0.000 A 
ATOM      5  C   UNL     1       1.170   9.591  19.490  0.00  0.00    +0.000 A 
ATOM      6  C   UNL     1       1.877   8.585  18.814  0.00  0.00    +0.000 A 
ENDROOT
BRANCH   1   7
ATOM      7  C   UNL     1       2.991   6.229  18.569  0.00  0.00    +0.000 C 
ATOM      8  C   UNL     1       4.003   6.733  17.502  0.00  0.00    +0.000 C 
ATOM      9  O   UNL     1       5.100   6.027  18.114  0.00  0.00    +0.000 OA
ATOM     10  C   UNL     1       4.271   5.635  19.229  0.00  0.00    +0.000 C 
BRANCH   7  11
ATOM     11  C   UNL     1       2.008   5.202  17.973  0.00  0.00    +0.000 C 
BRANCH  11  17
ATOM     12  C   UNL     1       3.271   2.313  17.745  0.00  0.00    +0.000 C 
ATOM     13  N   UNL     1       2.346   2.782  18.742  0.00  0.00    +0.000 N 
ATOM     14  C   UNL     1       1.908   2.055  19.807  0.00  0.00    +0.000 A 
ATOM     15  N   UNL     1       1.037   2.761  20.487  0.00  0.00    +0.000 NA
ATOM     16  N   UNL     1       0.933   3.989  19.882  0.00  0.00    +0.000 NA
ATOM     17  C   UNL     1       1.742   4.013  18.839  0.00  0.00    +0.000 A 
ENDBRANCH  11  17
ENDBRANCH   7  11
ENDBRANCH   1   7
BRANCH   5  18
ATOM     18  C   UNL     1       0.874  10.891  18.784  0.00  0.00    +0.000 C 
BRANCH  18  19
ATOM     19  C   UNL     1      -0.599  11.151  18.572  0.00  0.00    +0.000 A 
ATOM     20  C   UNL     1      -1.334  11.865  19.528  0.00  0.00    +0.000 A 
ATOM     21  C   UNL     1      -2.694  12.098  19.347  0.00  0.00    +0.000 A 
ATOM     22  C   UNL     1      -3.343  11.622  18.209  0.00  0.00    +0.000 A 
ATOM     23  C   UNL     1      -2.630  10.908  17.231  0.00  0.00    +0.000 A 
ATOM     24  C   UNL     1      -1.257  10.675  17.427  0.00  0.00    +0.000 A 
BRANCH  23  25
ATOM     25  C   UNL     1      -3.313  10.408  15.982  0.00  0.00    +0.000 C 
ATOM     26  F   UNL     1      -4.600  10.841  15.853  0.00  0.00    +0.000 F 
ATOM     27  F   UNL     1      -2.677  10.807  14.846  0.00  0.00    +0.000 F 
ATOM     28  F   UNL     1      -3.371   9.049  15.923  0.00  0.00    +0.000 F 
ENDBRANCH  23  25
ENDBRANCH  18  19
ENDBRANCH   5  18
TORSDOF 6
ENDMDL
MODEL 8
REMARK VINA RESULT:      -8.6      3.081      4.109
REMARK  Name = 
REMARK  7 active torsions:
REMARK  status: ('A' for Active; 'I' for Inactive)
REMARK    1  A    between atoms: C_1  and  N_2
REMARK    2  A    between atoms: C_6  and  C_7
REMARK    3  A    between atoms: C_7  and  C_8
REMARK    4  A    between atoms: C_8  and  C_9
REMARK    5  A    between atoms: C_13  and  C_14
REMARK    6  A    between atoms: C_14  and  C_15
REMARK    7  A    between atoms: C_19  and  C_20
REMARK                            x       y       z     vdW  Elec       q    Type
REMARK                         _______ _______ _______ _____ _____    ______ ____
ROOT
ATOM      1  C   UNL     1       5.398   5.770  18.585  0.00  0.00    +0.000 A 
ATOM      2  C   UNL     1       4.832   4.842  19.484  0.00  0.00    +0.000 A 
ATOM      3  C   UNL     1       3.455   4.791  19.717  0.00  0.00    +0.000 A 
ATOM      4  C   UNL     1       2.601   5.684  19.074  0.00  0.00    +0.000 A 
ATOM      5  C   UNL     1       3.121   6.647  18.205  0.00  0.00    +0.000 A 
ATOM      6  C   UNL     1       4.503   6.664  17.968  0.00  0.00    +0.000 A 
ENDROOT
BRANCH   1   7
ATOM      7  C   UNL     1       6.966   5.823  18.252  0.00  0.00    +0.000 C 
ATOM      8  C   UNL     1       7.501   7.135  17.614  0.00  0.00    +0.000 C 
ATOM      9  O   UNL     1       8.450   7.342  18.678  0.00  0.00    +0.000 OA
ATOM     10  C   UNL     1       7.916   6.225  19.419  0.00  0.00    +0.000 C 
BRANCH   7  11
ATOM     11  C   UNL     1       7.393   4.584  17.439  0.00  0.00    +0.000 C 
BRANCH  11  17
ATOM     12  C   UNL     1       4.739   3.451  16.150  0.00  0.00    +0.000 C 
ATOM     13  N   UNL     1       5.803   4.149  15.479  0.00  0.00    +0.000 N 
ATOM     14  C   UNL     1       5.804   4.494  14.163  0.00  0.00    +0.000 A 
ATOM     15  N   UNL     1       6.943   5.072  13.864  0.00  0.00    +0.000 NA
ATOM     16  N   UNL     1       7.686   5.146  15.016  0.00  0.00    +0.000 NA
ATOM     17  C   UNL     1       6.989   4.608  16.000  0.00  0.00    +0.000 A 
ENDBRANCH  11  17
ENDBRANCH   7  11
ENDBRANCH   1   7
BRANCH   5  18
ATOM     18  C   UNL     1       2.237   7.652  17.510  0.00  0.00    +0.000 C 
BRANCH  18  19
ATOM     19  C   UNL     1       1.784   8.787  18.399  0.00  0.00    +0.000 A 
ATOM     20  C   UNL     1       1.886  10.113  17.958  0.00  0.00    +0.000 A 
ATOM     21  C   UNL     1       1.482  11.165  18.774  0.00  0.00    +0.000 A 
ATOM     22  C   UNL     1       0.971  10.911  20.047  0.00  0.00    +0.000 A 
ATOM     23  C   UNL     1       0.851   9.590  20.513  0.00  0.00    +0.000 A 
ATOM     24  C   UNL     1       1.267   8.536  19.680  0.00  0.00    +0.000 A 
BRANCH  23  25
ATOM     25  C   UNL     1       0.277   9.298  21.877  0.00  0.00    +0.000 C 
ATOM     26  F   UNL     1      -0.402  10.349  22.420  0.00  0.00    +0.000 F 
ATOM     27  F   UNL     1      -0.607   8.261  21.858  0.00  0.00    +0.000 F 
ATOM     28  F   UNL     1       1.231   8.963  22.789  0.00  0.00    +0.000 F 
ENDBRANCH  23  25
ENDBRANCH  18  19
ENDBRANCH   5  18
TORSDOF 6
ENDMDL
MODEL 9
REMARK VINA RESULT:      -8.6      1.121      1.387
REMARK  Name = 
REMARK  7 active torsions:
REMARK  status: ('A' for Active; 'I' for Inactive)
REMARK    1  A    between atoms: C_1  and  N_2
REMARK    2  A    between atoms: C_6  and  C_7
REMARK    3  A    between atoms: C_7  and  C_8
REMARK    4  A    between atoms: C_8  and  C_9
REMARK    5  A    between atoms: C_13  and  C_14
REMARK    6  A    between atoms: C_14  and  C_15
REMARK    7  A    between atoms: C_19  and  C_20
REMARK                            x       y       z     vdW  Elec       q    Type
REMARK                         _______ _______ _______ _____ _____    ______ ____
ROOT
ATOM      1  C   UNL     1       2.878   5.817  18.914  0.00  0.00    +0.000 A 
ATOM      2  C   UNL     1       2.405   5.765  20.241  0.00  0.00    +0.000 A 
ATOM      3  C   UNL     1       1.748   6.850  20.829  0.00  0.00    +0.000 A 
ATOM      4  C   UNL     1       1.564   8.031  20.115  0.00  0.00    +0.000 A 
ATOM      5  C   UNL     1       2.052   8.142  18.810  0.00  0.00    +0.000 A 
ATOM      6  C   UNL     1       2.688   7.033  18.232  0.00  0.00    +0.000 A 
ENDROOT
BRANCH   1   7
ATOM      7  C   UNL     1       3.589   4.575  18.188  0.00  0.00    +0.000 C 
ATOM      8  C   UNL     1       4.760   3.895  18.952  0.00  0.00    +0.000 C 
ATOM      9  O   UNL     1       4.109   2.610  18.936  0.00  0.00    +0.000 OA
ATOM     10  C   UNL     1       2.914   3.183  18.363  0.00  0.00    +0.000 C 
BRANCH   7  11
ATOM     11  C   UNL     1       3.994   4.945  16.747  0.00  0.00    +0.000 C 
BRANCH  11  17
ATOM     12  C   UNL     1       6.084   3.631  14.773  0.00  0.00    +0.000 C 
ATOM     13  N   UNL     1       6.307   4.736  15.667  0.00  0.00    +0.000 N 
ATOM     14  C   UNL     1       7.464   5.447  15.759  0.00  0.00    +0.000 A 
ATOM     15  N   UNL     1       7.348   6.348  16.704  0.00  0.00    +0.000 NA
ATOM     16  N   UNL     1       6.076   6.256  17.213  0.00  0.00    +0.000 NA
ATOM     17  C   UNL     1       5.436   5.296  16.571  0.00  0.00    +0.000 A 
ENDBRANCH  11  17
ENDBRANCH   7  11
ENDBRANCH   1   7
BRANCH   5  18
ATOM     18  C   UNL     1       1.902   9.411  18.009  0.00  0.00    +0.000 C 
BRANCH  18  19
ATOM     19  C   UNL     1       0.610  10.149  18.267  0.00  0.00    +0.000 A 
ATOM     20  C   UNL     1       0.594  11.274  19.103  0.00  0.00    +0.000 A 
ATOM     21  C   UNL     1      -0.594  11.953  19.357  0.00  0.00    +0.000 A 
ATOM     22  C   UNL     1      -1.788  11.519  18.781  0.00  0.00    +0.000 A 
ATOM     23  C   UNL     1      -1.801  10.397  17.933  0.00  0.00    +0.000 A 
ATOM     24  C   UNL     1      -0.595   9.717  17.689  0.00  0.00    +0.000 A 
BRANCH  23  25
ATOM     25  C   UNL     1      -3.080   9.931  17.284  0.00  0.00    +0.000 C 
ATOM     26  F   UNL     1      -3.715   8.942  17.975  0.00  0.00    +0.000 F 
ATOM     27  F   UNL     1      -3.993  10.933  17.155  0.00  0.00    +0.000 F 
ATOM     28  F   UNL     1      -2.884   9.439  16.029  0.00  0.00    +0.000 F 
ENDBRANCH  23  25
ENDBRANCH  18  19
ENDBRANCH   5  18
TORSDOF 6
ENDMDL
