MODEL 1
REMARK VINA RESULT:      -7.8      0.000      0.000
REMARK  Name = 
REMARK  5 active torsions:
REMARK  status: ('A' for Active; 'I' for Inactive)
REMARK    1  A    between atoms: C_1  and  C_2
REMARK    2  A    between atoms: C_2  and  C_3
REMARK    3  A    between atoms: C_7  and  N_8
REMARK    4  A    between atoms: C_13  and  N_14
REMARK    5  A    between atoms: C_20  and  C_21
REMARK                            x       y       z     vdW  Elec       q    Type
REMARK                         _______ _______ _______ _____ _____    ______ ____
ROOT
ATOM      1  N   UNL     1      -0.152  11.287  18.489  0.00  0.00    +0.000 N 
ATOM      2  C   UNL     1       0.584  10.530  19.531  0.00  0.00    +0.000 C 
ATOM      3  C   UNL     1       0.107  11.190  20.793  0.00  0.00    +0.000 A 
ATOM      4  C   UNL     1      -0.245  12.503  20.465  0.00  0.00    +0.000 A 
ATOM      5  C   UNL     1      -0.928  13.347  21.330  0.00  0.00    +0.000 A 
ATOM      6  C   UNL     1      -1.291  12.847  22.579  0.00  0.00    +0.000 A 
ATOM      7  C   UNL     1      -0.905  11.526  22.920  0.00  0.00    +0.000 A 
ATOM      8  C   UNL     1      -0.225  10.665  22.031  0.00  0.00    +0.000 A 
ATOM      9  C   UNL     1      -0.234  12.613  18.989  0.00  0.00    +0.000 C 
ATOM     10  O   UNL     1      -0.457  13.644  18.377  0.00  0.00    +0.000 OA
ENDROOT
BRANCH   1  15
ATOM     11  C   UNL     1      -3.821  11.223  18.133  0.00  0.00    +0.000 A 
ATOM     12  C   UNL     1      -3.843  10.624  16.856  0.00  0.00    +0.000 A 
ATOM     13  C   UNL     1      -2.766   9.900  16.356  0.00  0.00    +0.000 A 
ATOM     14  C   UNL     1      -1.582   9.852  17.075  0.00  0.00    +0.000 A 
ATOM     15  C   UNL     1      -1.438  10.646  18.220  0.00  0.00    +0.000 A 
ATOM     16  C   UNL     1      -2.587  11.190  18.815  0.00  0.00    +0.000 A 
BRANCH  11  18
ATOM     17  C   UNL     1      -4.771  12.782  19.948  0.00  0.00    +0.000 C 
ATOM     18  C   UNL     1      -5.094  11.980  18.692  0.00  0.00    +0.000 C 
ATOM     19  C   UNL     1      -6.020  12.668  17.680  0.00  0.00    +0.000 C 
ATOM     20  C   UNL     1      -7.000  11.620  18.115  0.00  0.00    +0.000 C 
ATOM     21  N   UNL     1      -6.212  11.039  18.940  0.00  0.00    +0.000 NA
ENDBRANCH  11  18
ENDBRANCH   1  15
BRANCH   6  22
ATOM     22  N   UNL     1      -2.075  13.546  23.499  0.00  0.00    +0.000 N 
ATOM     23  C   UNL     1      -3.391  13.052  23.926  0.00  0.00    +0.000 C 
ATOM     24  C   UNL     1      -4.354  14.177  23.570  0.00  0.00    +0.000 C 
ATOM     25  C   UNL     1      -3.503  15.421  23.750  0.00  0.00    +0.000 C 
ATOM     26  C   UNL     1      -2.131  14.991  23.242  0.00  0.00    +0.000 C 
ENDBRANCH   6  22
BRANCH   8  27
ATOM     27  C   UNL     1      -0.043   9.222  22.417  0.00  0.00    +0.000 C 
ATOM     28  F   UNL     1      -0.821   8.353  21.719  0.00  0.00    +0.000 F 
ATOM     29  F   UNL     1       1.238   8.796  22.232  0.00  0.00    +0.000 F 
ATOM     30  F   UNL     1      -0.324   8.994  23.730  0.00  0.00    +0.000 F 
ENDBRANCH   8  27
TORSDOF 4
ENDMDL
MODEL 2
REMARK VINA RESULT:      -7.7      4.357      7.055
REMARK  Name = 
REMARK  5 active torsions:
REMARK  status: ('A' for Active; 'I' for Inactive)
REMARK    1  A    between atoms: C_1  and  C_2
REMARK    2  A    between atoms: C_2  and  C_3
REMARK    3  A    between atoms: C_7  and  N_8
REMARK    4  A    between atoms: C_13  and  N_14
REMARK    5  A    between atoms: C_20  and  C_21
REMARK                            x       y       z     vdW  Elec       q    Type
REMARK                         _______ _______ _______ _____ _____    ______ ____
ROOT
ATOM      1  N   UNL     1       0.675   8.248  21.394  0.00  0.00    +0.000 N 
ATOM      2  C   UNL     1      -0.548   8.641  20.651  0.00  0.00    +0.000 C 
ATOM      3  C   UNL     1      -0.251  10.069  20.290  0.00  0.00    +0.000 A 
ATOM      4  C   UNL     1       0.623  10.567  21.262  0.00  0.00    +0.000 A 
ATOM      5  C   UNL     1       1.282  11.782  21.141  0.00  0.00    +0.000 A 
ATOM      6  C   UNL     1       1.070  12.529  19.984  0.00  0.00    +0.000 A 
ATOM      7  C   UNL     1       0.160  12.035  19.016  0.00  0.00    +0.000 A 
ATOM      8  C   UNL     1      -0.497  10.791  19.134  0.00  0.00    +0.000 A 
ATOM      9  C   UNL     1       1.075   9.422  22.085  0.00  0.00    +0.000 C 
ATOM     10  O   UNL     1       1.816   9.522  23.049  0.00  0.00    +0.000 OA
ENDROOT
BRANCH   1  15
ATOM     11  C   UNL     1       2.213   5.587  19.359  0.00  0.00    +0.000 A 
ATOM     12  C   UNL     1       2.247   6.315  18.151  0.00  0.00    +0.000 A 
ATOM     13  C   UNL     1       2.184   7.703  18.119  0.00  0.00    +0.000 A 
ATOM     14  C   UNL     1       1.966   8.406  19.294  0.00  0.00    +0.000 A 
ATOM     15  C   UNL     1       1.668   7.705  20.470  0.00  0.00    +0.000 A 
ATOM     16  C   UNL     1       1.946   6.330  20.527  0.00  0.00    +0.000 A 
BRANCH  11  18
ATOM     17  C   UNL     1       3.816   3.573  19.352  0.00  0.00    +0.000 C 
ATOM     18  C   UNL     1       2.355   4.010  19.355  0.00  0.00    +0.000 C 
ATOM     19  C   UNL     1       1.418   3.203  20.264  0.00  0.00    +0.000 C 
ATOM     20  C   UNL     1       0.852   2.713  18.964  0.00  0.00    +0.000 C 
ATOM     21  N   UNL     1       1.623   3.408  18.215  0.00  0.00    +0.000 NA
ENDBRANCH  11  18
ENDBRANCH   1  15
BRANCH   6  22
ATOM     22  N   UNL     1       1.752  13.709  19.683  0.00  0.00    +0.000 N 
ATOM     23  C   UNL     1       2.067  14.090  18.300  0.00  0.00    +0.000 C 
ATOM     24  C   UNL     1       3.582  14.236  18.279  0.00  0.00    +0.000 C 
ATOM     25  C   UNL     1       3.894  14.725  19.682  0.00  0.00    +0.000 C 
ATOM     26  C   UNL     1       2.909  13.955  20.555  0.00  0.00    +0.000 C 
ENDBRANCH   6  22
BRANCH   8  27
ATOM     27  C   UNL     1      -1.282  10.271  17.961  0.00  0.00    +0.000 C 
ATOM     28  F   UNL     1      -2.424   9.614  18.298  0.00  0.00    +0.000 F 
ATOM     29  F   UNL     1      -1.669  11.268  17.116  0.00  0.00    +0.000 F 
ATOM     30  F   UNL     1      -0.566   9.397  17.200  0.00  0.00    +0.000 F 
ENDBRANCH   8  27
TORSDOF 4
ENDMDL
MODEL 3
REMARK VINA RESULT:      -7.7      4.434      7.146
REMARK  Name = 
REMARK  5 active torsions:
REMARK  status: ('A' for Active; 'I' for Inactive)
REMARK    1  A    between atoms: C_1  and  C_2
REMARK    2  A    between atoms: C_2  and  C_3
REMARK    3  A    between atoms: C_7  and  N_8
REMARK    4  A    between atoms: C_13  and  N_14
REMARK    5  A    between atoms: C_20  and  C_21
REMARK                            x       y       z     vdW  Elec       q    Type
REMARK                         _______ _______ _______ _____ _____    ______ ____
ROOT
ATOM      1  N   UNL     1       0.742   8.272  21.282  0.00  0.00    +0.000 N 
ATOM      2  C   UNL     1      -0.509   8.641  20.576  0.00  0.00    +0.000 C 
ATOM      3  C   UNL     1      -0.247  10.072  20.201  0.00  0.00    +0.000 A 
ATOM      4  C   UNL     1       0.648  10.589  21.143  0.00  0.00    +0.000 A 
ATOM      5  C   UNL     1       1.283  11.814  20.998  0.00  0.00    +0.000 A 
ATOM      6  C   UNL     1       1.023  12.552  19.846  0.00  0.00    +0.000 A 
ATOM      7  C   UNL     1       0.092  12.040  18.907  0.00  0.00    +0.000 A 
ATOM      8  C   UNL     1      -0.540  10.786  19.050  0.00  0.00    +0.000 A 
ATOM      9  C   UNL     1       1.144   9.455  21.956  0.00  0.00    +0.000 C 
ATOM     10  O   UNL     1       1.912   9.571  22.896  0.00  0.00    +0.000 OA
ENDROOT
BRANCH   1  15
ATOM     11  C   UNL     1       2.178   5.668  19.103  0.00  0.00    +0.000 A 
ATOM     12  C   UNL     1       2.244   6.460  17.937  0.00  0.00    +0.000 A 
ATOM     13  C   UNL     1       2.238   7.849  17.982  0.00  0.00    +0.000 A 
ATOM     14  C   UNL     1       2.044   8.493  19.194  0.00  0.00    +0.000 A 
ATOM     15  C   UNL     1       1.716   7.741  20.330  0.00  0.00    +0.000 A 
ATOM     16  C   UNL     1       1.938   6.355  20.310  0.00  0.00    +0.000 A 
BRANCH  11  18
ATOM     17  C   UNL     1       1.283   3.416  19.972  0.00  0.00    +0.000 C 
ATOM     18  C   UNL     1       2.257   4.089  19.012  0.00  0.00    +0.000 C 
ATOM     19  C   UNL     1       2.367   3.456  17.618  0.00  0.00    +0.000 C 
ATOM     20  C   UNL     1       3.733   3.056  18.089  0.00  0.00    +0.000 C 
ATOM     21  N   UNL     1       3.641   3.607  19.241  0.00  0.00    +0.000 NA
ENDBRANCH  11  18
ENDBRANCH   1  15
BRANCH   6  22
ATOM     22  N   UNL     1       1.676  13.743  19.519  0.00  0.00    +0.000 N 
ATOM     23  C   UNL     1       2.268  13.962  18.193  0.00  0.00    +0.000 C 
ATOM     24  C   UNL     1       3.736  14.252  18.473  0.00  0.00    +0.000 C 
ATOM     25  C   UNL     1       3.691  14.955  19.819  0.00  0.00    +0.000 C 
ATOM     26  C   UNL     1       2.588  14.216  20.569  0.00  0.00    +0.000 C 
ENDBRANCH   6  22
BRANCH   8  27
ATOM     27  C   UNL     1      -1.353  10.248  17.904  0.00  0.00    +0.000 C 
ATOM     28  F   UNL     1      -0.708   9.321  17.146  0.00  0.00    +0.000 F 
ATOM     29  F   UNL     1      -2.500   9.645  18.322  0.00  0.00    +0.000 F 
ATOM     30  F   UNL     1      -1.741  11.225  17.037  0.00  0.00    +0.000 F 
ENDBRANCH   8  27
TORSDOF 4
ENDMDL
MODEL 4
REMARK VINA RESULT:      -7.6      4.300      6.805
REMARK  Name = 
REMARK  5 active torsions:
REMARK  status: ('A' for Active; 'I' for Inactive)
REMARK    1  A    between atoms: C_1  and  C_2
REMARK    2  A    between atoms: C_2  and  C_3
REMARK    3  A    between atoms: C_7  and  N_8
REMARK    4  A    between atoms: C_13  and  N_14
REMARK    5  A    between atoms: C_20  and  C_21
REMARK                            x       y       z     vdW  Elec       q    Type
REMARK                         _______ _______ _______ _____ _____    ______ ____
ROOT
ATOM      1  N   UNL     1       0.763   8.234  21.282  0.00  0.00    +0.000 N 
ATOM      2  C   UNL     1      -0.503   8.577  20.588  0.00  0.00    +0.000 C 
ATOM      3  C   UNL     1      -0.274  10.013  20.210  0.00  0.00    +0.000 A 
ATOM      4  C   UNL     1       0.619  10.548  21.144  0.00  0.00    +0.000 A 
ATOM      5  C   UNL     1       1.227  11.787  20.992  0.00  0.00    +0.000 A 
ATOM      6  C   UNL     1       0.940  12.519  19.842  0.00  0.00    +0.000 A 
ATOM      7  C   UNL     1       0.011  11.987  18.913  0.00  0.00    +0.000 A 
ATOM      8  C   UNL     1      -0.593  10.719  19.062  0.00  0.00    +0.000 A 
ATOM      9  C   UNL     1       1.147   9.426  21.952  0.00  0.00    +0.000 C 
ATOM     10  O   UNL     1       1.921   9.558  22.885  0.00  0.00    +0.000 OA
ENDROOT
BRANCH   1  15
ATOM     11  C   UNL     1       2.236   5.657  19.097  0.00  0.00    +0.000 A 
ATOM     12  C   UNL     1       2.270   6.446  17.927  0.00  0.00    +0.000 A 
ATOM     13  C   UNL     1       2.230   7.834  17.967  0.00  0.00    +0.000 A 
ATOM     14  C   UNL     1       2.035   8.479  19.179  0.00  0.00    +0.000 A 
ATOM     15  C   UNL     1       1.738   7.723  20.321  0.00  0.00    +0.000 A 
ATOM     16  C   UNL     1       1.993   6.343  20.304  0.00  0.00    +0.000 A 
BRANCH  11  18
ATOM     17  C   UNL     1       3.788   3.631  18.759  0.00  0.00    +0.000 C 
ATOM     18  C   UNL     1       2.353   4.080  19.010  0.00  0.00    +0.000 C 
ATOM     19  C   UNL     1       1.559   3.246  20.025  0.00  0.00    +0.000 C 
ATOM     20  C   UNL     1       0.787   2.814  18.815  0.00  0.00    +0.000 C 
ATOM     21  N   UNL     1       1.440   3.531  17.979  0.00  0.00    +0.000 NA
ENDBRANCH  11  18
ENDBRANCH   1  15
BRANCH   6  22
ATOM     22  N   UNL     1       1.565  13.722  19.508  0.00  0.00    +0.000 N 
ATOM     23  C   UNL     1       2.471  14.408  20.440  0.00  0.00    +0.000 C 
ATOM     24  C   UNL     1       1.854  15.788  20.625  0.00  0.00    +0.000 C 
ATOM     25  C   UNL     1       1.209  16.054  19.277  0.00  0.00    +0.000 C 
ATOM     26  C   UNL     1       0.666  14.691  18.866  0.00  0.00    +0.000 C 
ENDBRANCH   6  22
BRANCH   8  27
ATOM     27  C   UNL     1      -1.405  10.165  17.924  0.00  0.00    +0.000 C 
ATOM     28  F   UNL     1      -2.537   9.515  18.307  0.00  0.00    +0.000 F 
ATOM     29  F   UNL     1      -1.815  11.136  17.061  0.00  0.00    +0.000 F 
ATOM     30  F   UNL     1      -0.706   9.270  17.172  0.00  0.00    +0.000 F 
ENDBRANCH   8  27
TORSDOF 4
ENDMDL
MODEL 5
REMARK VINA RESULT:      -7.5      4.360      7.085
REMARK  Name = 
REMARK  5 active torsions:
REMARK  status: ('A' for Active; 'I' for Inactive)
REMARK    1  A    between atoms: C_1  and  C_2
REMARK    2  A    between atoms: C_2  and  C_3
REMARK    3  A    between atoms: C_7  and  N_8
REMARK    4  A    between atoms: C_13  and  N_14
REMARK    5  A    between atoms: C_20  and  C_21
REMARK                            x       y       z     vdW  Elec       q    Type
REMARK                         _______ _______ _______ _____ _____    ______ ____
ROOT
ATOM      1  N   UNL     1       0.732   8.254  21.328  0.00  0.00    +0.000 N 
ATOM      2  C   UNL     1      -0.511   8.637  20.612  0.00  0.00    +0.000 C 
ATOM      3  C   UNL     1      -0.232  10.068  20.246  0.00  0.00    +0.000 A 
ATOM      4  C   UNL     1       0.659  10.572  21.198  0.00  0.00    +0.000 A 
ATOM      5  C   UNL     1       1.306  11.793  21.064  0.00  0.00    +0.000 A 
ATOM      6  C   UNL     1       1.062  12.538  19.912  0.00  0.00    +0.000 A 
ATOM      7  C   UNL     1       0.134  12.038  18.963  0.00  0.00    +0.000 A 
ATOM      8  C   UNL     1      -0.509  10.788  19.095  0.00  0.00    +0.000 A 
ATOM      9  C   UNL     1       1.138   9.431  22.010  0.00  0.00    +0.000 C 
ATOM     10  O   UNL     1       1.899   9.536  22.957  0.00  0.00    +0.000 OA
ENDROOT
BRANCH   1  15
ATOM     11  C   UNL     1       2.177   5.638  19.169  0.00  0.00    +0.000 A 
ATOM     12  C   UNL     1       2.246   6.423  17.999  0.00  0.00    +0.000 A 
ATOM     13  C   UNL     1       2.238   7.813  18.035  0.00  0.00    +0.000 A 
ATOM     14  C   UNL     1       2.040   8.464  19.242  0.00  0.00    +0.000 A 
ATOM     15  C   UNL     1       1.709   7.719  20.382  0.00  0.00    +0.000 A 
ATOM     16  C   UNL     1       1.932   6.333  20.372  0.00  0.00    +0.000 A 
BRANCH  11  18
ATOM     17  C   UNL     1       2.164   3.560  17.650  0.00  0.00    +0.000 C 
ATOM     18  C   UNL     1       2.259   4.059  19.088  0.00  0.00    +0.000 C 
ATOM     19  C   UNL     1       3.289   3.348  19.976  0.00  0.00    +0.000 C 
ATOM     20  C   UNL     1       2.073   2.808  20.668  0.00  0.00    +0.000 C 
ATOM     21  N   UNL     1       1.222   3.424  19.936  0.00  0.00    +0.000 NA
ENDBRANCH  11  18
ENDBRANCH   1  15
BRANCH   6  22
ATOM     22  N   UNL     1       1.728  13.724  19.596  0.00  0.00    +0.000 N 
ATOM     23  C   UNL     1       2.192  14.011  18.232  0.00  0.00    +0.000 C 
ATOM     24  C   UNL     1       3.692  14.230  18.378  0.00  0.00    +0.000 C 
ATOM     25  C   UNL     1       3.812  14.841  19.763  0.00  0.00    +0.000 C 
ATOM     26  C   UNL     1       2.761  14.093  20.574  0.00  0.00    +0.000 C 
ENDBRANCH   6  22
BRANCH   8  27
ATOM     27  C   UNL     1      -1.316  10.263  17.940  0.00  0.00    +0.000 C 
ATOM     28  F   UNL     1      -1.719  11.216  17.058  0.00  0.00    +0.000 F 
ATOM     29  F   UNL     1      -0.627   9.349  17.201  0.00  0.00    +0.000 F 
ATOM     30  F   UNL     1      -2.455   9.632  18.342  0.00  0.00    +0.000 F 
ENDBRANCH   8  27
TORSDOF 4
ENDMDL
MODEL 6
REMARK VINA RESULT:      -7.5      4.382      6.944
REMARK  Name = 
REMARK  5 active torsions:
REMARK  status: ('A' for Active; 'I' for Inactive)
REMARK    1  A    between atoms: C_1  and  C_2
REMARK    2  A    between atoms: C_2  and  C_3
REMARK    3  A    between atoms: C_7  and  N_8
REMARK    4  A    between atoms: C_13  and  N_14
REMARK    5  A    between atoms: C_20  and  C_21
REMARK                            x       y       z     vdW  Elec       q    Type
REMARK                         _______ _______ _______ _____ _____    ______ ____
ROOT
ATOM      1  N   UNL     1       0.732   8.265  21.285  0.00  0.00    +0.000 N 
ATOM      2  C   UNL     1      -0.523   8.626  20.579  0.00  0.00    +0.000 C 
ATOM      3  C   UNL     1      -0.271  10.059  20.205  0.00  0.00    +0.000 A 
ATOM      4  C   UNL     1       0.620  10.581  21.148  0.00  0.00    +0.000 A 
ATOM      5  C   UNL     1       1.246  11.812  21.004  0.00  0.00    +0.000 A 
ATOM      6  C   UNL     1       0.980  12.549  19.852  0.00  0.00    +0.000 A 
ATOM      7  C   UNL     1       0.053  12.031  18.913  0.00  0.00    +0.000 A 
ATOM      8  C   UNL     1      -0.569  10.771  19.055  0.00  0.00    +0.000 A 
ATOM      9  C   UNL     1       1.125   9.451  21.960  0.00  0.00    +0.000 C 
ATOM     10  O   UNL     1       1.892   9.572  22.900  0.00  0.00    +0.000 OA
ENDROOT
BRANCH   1  15
ATOM     11  C   UNL     1       2.186   5.674  19.103  0.00  0.00    +0.000 A 
ATOM     12  C   UNL     1       2.248   6.469  17.938  0.00  0.00    +0.000 A 
ATOM     13  C   UNL     1       2.232   7.858  17.985  0.00  0.00    +0.000 A 
ATOM     14  C   UNL     1       2.033   8.499  19.198  0.00  0.00    +0.000 A 
ATOM     15  C   UNL     1       1.709   7.743  20.332  0.00  0.00    +0.000 A 
ATOM     16  C   UNL     1       1.940   6.358  20.311  0.00  0.00    +0.000 A 
BRANCH  11  18
ATOM     17  C   UNL     1       1.270   3.415  19.930  0.00  0.00    +0.000 C 
ATOM     18  C   UNL     1       2.276   4.096  19.009  0.00  0.00    +0.000 C 
ATOM     19  C   UNL     1       2.440   3.469  17.618  0.00  0.00    +0.000 C 
ATOM     20  C   UNL     1       3.789   3.074  18.138  0.00  0.00    +0.000 C 
ATOM     21  N   UNL     1       3.652   3.620  19.288  0.00  0.00    +0.000 NA
ENDBRANCH  11  18
ENDBRANCH   1  15
BRANCH   6  22
ATOM     22  N   UNL     1       1.625  13.744  19.527  0.00  0.00    +0.000 N 
ATOM     23  C   UNL     1       2.578  14.384  20.443  0.00  0.00    +0.000 C 
ATOM     24  C   UNL     1       2.004  15.774  20.682  0.00  0.00    +0.000 C 
ATOM     25  C   UNL     1       1.322  16.090  19.363  0.00  0.00    +0.000 C 
ATOM     26  C   UNL     1       0.730  14.750  18.938  0.00  0.00    +0.000 C 
ENDBRANCH   6  22
BRANCH   8  27
ATOM     27  C   UNL     1      -1.378  10.229  17.908  0.00  0.00    +0.000 C 
ATOM     28  F   UNL     1      -2.521   9.593  18.279  0.00  0.00    +0.000 F 
ATOM     29  F   UNL     1      -1.766  11.207  17.042  0.00  0.00    +0.000 F 
ATOM     30  F   UNL     1      -0.682   9.327  17.161  0.00  0.00    +0.000 F 
ENDBRANCH   8  27
TORSDOF 4
ENDMDL
MODEL 7
REMARK VINA RESULT:      -7.5      4.303      6.930
REMARK  Name = 
REMARK  5 active torsions:
REMARK  status: ('A' for Active; 'I' for Inactive)
REMARK    1  A    between atoms: C_1  and  C_2
REMARK    2  A    between atoms: C_2  and  C_3
REMARK    3  A    between atoms: C_7  and  N_8
REMARK    4  A    between atoms: C_13  and  N_14
REMARK    5  A    between atoms: C_20  and  C_21
REMARK                            x       y       z     vdW  Elec       q    Type
REMARK                         _______ _______ _______ _____ _____    ______ ____
ROOT
ATOM      1  N   UNL     1       0.701   8.266  21.396  0.00  0.00    +0.000 N 
ATOM      2  C   UNL     1      -0.515   8.686  20.657  0.00  0.00    +0.000 C 
ATOM      3  C   UNL     1      -0.202  10.119  20.327  0.00  0.00    +0.000 A 
ATOM      4  C   UNL     1       0.673  10.587  21.311  0.00  0.00    +0.000 A 
ATOM      5  C   UNL     1       1.346  11.798  21.218  0.00  0.00    +0.000 A 
ATOM      6  C   UNL     1       1.145  12.570  20.076  0.00  0.00    +0.000 A 
ATOM      7  C   UNL     1       0.234  12.106  19.094  0.00  0.00    +0.000 A 
ATOM      8  C   UNL     1      -0.436  10.867  19.185  0.00  0.00    +0.000 A 
ATOM      9  C   UNL     1       1.111   9.421  22.112  0.00  0.00    +0.000 C 
ATOM     10  O   UNL     1       1.849   9.493  23.080  0.00  0.00    +0.000 OA
ENDROOT
BRANCH   1  15
ATOM     11  C   UNL     1       2.234   5.624  19.332  0.00  0.00    +0.000 A 
ATOM     12  C   UNL     1       2.265   6.364  18.130  0.00  0.00    +0.000 A 
ATOM     13  C   UNL     1       2.203   7.752  18.112  0.00  0.00    +0.000 A 
ATOM     14  C   UNL     1       1.987   8.443  19.294  0.00  0.00    +0.000 A 
ATOM     15  C   UNL     1       1.692   7.732  20.464  0.00  0.00    +0.000 A 
ATOM     16  C   UNL     1       1.970   6.356  20.507  0.00  0.00    +0.000 A 
BRANCH  11  18
ATOM     17  C   UNL     1       3.836   3.611  19.262  0.00  0.00    +0.000 C 
ATOM     18  C   UNL     1       2.376   4.047  19.312  0.00  0.00    +0.000 C 
ATOM     19  C   UNL     1       1.467   3.234  20.243  0.00  0.00    +0.000 C 
ATOM     20  C   UNL     1       0.862   2.753  18.959  0.00  0.00    +0.000 C 
ATOM     21  N   UNL     1       1.609   3.453  18.191  0.00  0.00    +0.000 NA
ENDBRANCH  11  18
ENDBRANCH   1  15
BRANCH   6  22
ATOM     22  N   UNL     1       1.841  13.750  19.801  0.00  0.00    +0.000 N 
ATOM     23  C   UNL     1       1.222  15.071  19.970  0.00  0.00    +0.000 C 
ATOM     24  C   UNL     1       1.325  15.719  18.596  0.00  0.00    +0.000 C 
ATOM     25  C   UNL     1       2.617  15.140  18.045  0.00  0.00    +0.000 C 
ATOM     26  C   UNL     1       2.604  13.700  18.547  0.00  0.00    +0.000 C 
ENDBRANCH   6  22
BRANCH   8  27
ATOM     27  C   UNL     1      -1.222  10.380  17.998  0.00  0.00    +0.000 C 
ATOM     28  F   UNL     1      -1.602  11.361  17.136  0.00  0.00    +0.000 F 
ATOM     29  F   UNL     1      -0.523   9.483  17.248  0.00  0.00    +0.000 F 
ATOM     30  F   UNL     1      -2.372   9.745  18.360  0.00  0.00    +0.000 F 
ENDBRANCH   8  27
TORSDOF 4
ENDMDL
MODEL 8
REMARK VINA RESULT:      -7.5      0.698      1.041
REMARK  Name = 
REMARK  5 active torsions:
REMARK  status: ('A' for Active; 'I' for Inactive)
REMARK    1  A    between atoms: C_1  and  C_2
REMARK    2  A    between atoms: C_2  and  C_3
REMARK    3  A    between atoms: C_7  and  N_8
REMARK    4  A    between atoms: C_13  and  N_14
REMARK    5  A    between atoms: C_20  and  C_21
REMARK                            x       y       z     vdW  Elec       q    Type
REMARK                         _______ _______ _______ _____ _____    ______ ____
ROOT
ATOM      1  N   UNL     1      -0.315  11.466  18.592  0.00  0.00    +0.000 N 
ATOM      2  C   UNL     1       0.478  10.771  19.636  0.00  0.00    +0.000 C 
ATOM      3  C   UNL     1      -0.117  11.323  20.901  0.00  0.00    +0.000 A 
ATOM      4  C   UNL     1      -0.620  12.592  20.600  0.00  0.00    +0.000 A 
ATOM      5  C   UNL     1      -1.429  13.314  21.467  0.00  0.00    +0.000 A 
ATOM      6  C   UNL     1      -1.765  12.731  22.686  0.00  0.00    +0.000 A 
ATOM      7  C   UNL     1      -1.228  11.457  23.000  0.00  0.00    +0.000 A 
ATOM      8  C   UNL     1      -0.418  10.718  22.110  0.00  0.00    +0.000 A 
ATOM      9  C   UNL     1      -0.577  12.753  19.129  0.00  0.00    +0.000 C 
ATOM     10  O   UNL     1      -0.909  13.769  18.542  0.00  0.00    +0.000 OA
ENDROOT
BRANCH   1  15
ATOM     11  C   UNL     1      -3.937  10.950  18.138  0.00  0.00    +0.000 A 
ATOM     12  C   UNL     1      -3.856  10.419  16.833  0.00  0.00    +0.000 A 
ATOM     13  C   UNL     1      -2.686   9.865  16.329  0.00  0.00    +0.000 A 
ATOM     14  C   UNL     1      -1.520   9.932  17.075  0.00  0.00    +0.000 A 
ATOM     15  C   UNL     1      -1.502  10.680  18.260  0.00  0.00    +0.000 A 
ATOM     16  C   UNL     1      -2.723  11.041  18.850  0.00  0.00    +0.000 A 
BRANCH  11  18
ATOM     17  C   UNL     1      -6.398  10.443  18.698  0.00  0.00    +0.000 C 
ATOM     18  C   UNL     1      -5.309  11.509  18.699  0.00  0.00    +0.000 C 
ATOM     19  C   UNL     1      -5.261  12.416  19.936  0.00  0.00    +0.000 C 
ATOM     20  C   UNL     1      -5.732  13.468  18.976  0.00  0.00    +0.000 C 
ATOM     21  N   UNL     1      -5.746  12.709  17.946  0.00  0.00    +0.000 NA
ENDBRANCH  11  18
ENDBRANCH   1  15
BRANCH   6  22
ATOM     22  N   UNL     1      -2.659  13.294  23.599  0.00  0.00    +0.000 N 
ATOM     23  C   UNL     1      -3.720  12.502  24.233  0.00  0.00    +0.000 C 
ATOM     24  C   UNL     1      -5.009  13.220  23.857  0.00  0.00    +0.000 C 
ATOM     25  C   UNL     1      -4.578  14.674  23.784  0.00  0.00    +0.000 C 
ATOM     26  C   UNL     1      -3.181  14.601  23.176  0.00  0.00    +0.000 C 
ENDBRANCH   6  22
BRANCH   8  27
ATOM     27  C   UNL     1      -0.069   9.297  22.458  0.00  0.00    +0.000 C 
ATOM     28  F   UNL     1      -0.769   8.361  21.762  0.00  0.00    +0.000 F 
ATOM     29  F   UNL     1       1.245   9.017  22.228  0.00  0.00    +0.000 F 
ATOM     30  F   UNL     1      -0.284   9.014  23.773  0.00  0.00    +0.000 F 
ENDBRANCH   8  27
TORSDOF 4
ENDMDL
MODEL 9
REMARK VINA RESULT:      -7.4      0.659      1.185
REMARK  Name = 
REMARK  5 active torsions:
REMARK  status: ('A' for Active; 'I' for Inactive)
REMARK    1  A    between atoms: C_1  and  C_2
REMARK    2  A    between atoms: C_2  and  C_3
REMARK    3  A    between atoms: C_7  and  N_8
REMARK    4  A    between atoms: C_13  and  N_14
REMARK    5  A    between atoms: C_20  and  C_21
REMARK                            x       y       z     vdW  Elec       q    Type
REMARK                         _______ _______ _______ _____ _____    ______ ____
ROOT
ATOM      1  N   UNL     1      -0.118  11.265  18.410  0.00  0.00    +0.000 N 
ATOM      2  C   UNL     1       0.564  10.642  19.571  0.00  0.00    +0.000 C 
ATOM      3  C   UNL     1       0.089  11.499  20.710  0.00  0.00    +0.000 A 
ATOM      4  C   UNL     1      -0.200  12.762  20.184  0.00  0.00    +0.000 A 
ATOM      5  C   UNL     1      -0.864  13.750  20.898  0.00  0.00    +0.000 A 
ATOM      6  C   UNL     1      -1.274  13.454  22.196  0.00  0.00    +0.000 A 
ATOM      7  C   UNL     1      -0.952  12.183  22.737  0.00  0.00    +0.000 A 
ATOM      8  C   UNL     1      -0.291  11.175  22.002  0.00  0.00    +0.000 A 
ATOM      9  C   UNL     1      -0.153  12.652  18.709  0.00  0.00    +0.000 C 
ATOM     10  O   UNL     1      -0.320  13.590  17.947  0.00  0.00    +0.000 OA
ENDROOT
BRANCH   1  15
ATOM     11  C   UNL     1      -3.799  11.258  18.202  0.00  0.00    +0.000 A 
ATOM     12  C   UNL     1      -3.881  10.639  16.936  0.00  0.00    +0.000 A 
ATOM     13  C   UNL     1      -2.838   9.888  16.408  0.00  0.00    +0.000 A 
ATOM     14  C   UNL     1      -1.627   9.831  17.080  0.00  0.00    +0.000 A 
ATOM     15  C   UNL     1      -1.424  10.642  18.204  0.00  0.00    +0.000 A 
ATOM     16  C   UNL     1      -2.539  11.215  18.835  0.00  0.00    +0.000 A 
BRANCH  11  18
ATOM     17  C   UNL     1      -4.648  12.869  20.021  0.00  0.00    +0.000 C 
ATOM     18  C   UNL     1      -5.036  12.047  18.797  0.00  0.00    +0.000 C 
ATOM     19  C   UNL     1      -5.994  12.728  17.810  0.00  0.00    +0.000 C 
ATOM     20  C   UNL     1      -6.969  11.704  18.309  0.00  0.00    +0.000 C 
ATOM     21  N   UNL     1      -6.156  11.128  19.112  0.00  0.00    +0.000 NA
ENDBRANCH  11  18
ENDBRANCH   1  15
BRANCH   6  22
ATOM     22  N   UNL     1      -2.047  14.310  22.983  0.00  0.00    +0.000 N 
ATOM     23  C   UNL     1      -1.449  15.420  23.736  0.00  0.00    +0.000 C 
ATOM     24  C   UNL     1      -1.841  15.155  25.183  0.00  0.00    +0.000 C 
ATOM     25  C   UNL     1      -3.196  14.483  25.049  0.00  0.00    +0.000 C 
ATOM     26  C   UNL     1      -3.040  13.610  23.809  0.00  0.00    +0.000 C 
ENDBRANCH   6  22
BRANCH   8  27
ATOM     27  C   UNL     1      -0.178   9.799  22.600  0.00  0.00    +0.000 C 
ATOM     28  F   UNL     1      -0.755   9.671  23.825  0.00  0.00    +0.000 F 
ATOM     29  F   UNL     1      -0.761   8.847  21.819  0.00  0.00    +0.000 F 
ATOM     30  F   UNL     1       1.116   9.405  22.761  0.00  0.00    +0.000 F 
ENDBRANCH   8  27
TORSDOF 4
ENDMDL
