MODEL 1
REMARK VINA RESULT:      -9.0      0.000      0.000
REMARK  Name = 
REMARK  4 active torsions:
REMARK  status: ('A' for Active; 'I' for Inactive)
REMARK    1  A    between atoms: C_2  and  C_16
REMARK    2  A    between atoms: N_3  and  C_4
REMARK    3  A    between atoms: C_8  and  C_9
REMARK    4  A    between atoms: N_19  and  C_20
REMARK                            x       y       z     vdW  Elec       q    Type
REMARK                         _______ _______ _______ _____ _____    ______ ____
ROOT
ATOM      1  O   UNL     1       1.900   8.315  19.167  0.00  0.00    +0.000 OA
ATOM      2  C   UNL     1       1.590   7.968  20.298  0.00  0.00    +0.000 C 
ATOM      3  N   UNL     1       1.688   6.674  20.798  0.00  0.00    +0.000 N 
ATOM      4  H   UNL     1       1.234   6.478  21.678  0.00  0.00    +0.000 HD
ENDROOT
BRANCH   3   5
ATOM      5  C   UNL     1       2.279   5.581  20.116  0.00  0.00    +0.000 A 
ATOM      6  C   UNL     1       1.539   4.449  19.752  0.00  0.00    +0.000 A 
ATOM      7  C   UNL     1       2.134   3.365  19.114  0.00  0.00    +0.000 A 
ATOM      8  C   UNL     1       3.481   3.413  18.793  0.00  0.00    +0.000 A 
ATOM      9  C   UNL     1       4.229   4.557  19.090  0.00  0.00    +0.000 A 
ATOM     10  C   UNL     1       3.638   5.638  19.768  0.00  0.00    +0.000 A 
BRANCH   9  11
ATOM     11  C   UNL     1       5.636   4.604  18.665  0.00  0.00    +0.000 A 
ATOM     12  N   UNL     1       6.660   4.827  19.416  0.00  0.00    +0.000 NA
ATOM     13  O   UNL     1       7.788   4.752  18.527  0.00  0.00    +0.000 OA
ATOM     14  C   UNL     1       7.278   4.511  17.276  0.00  0.00    +0.000 A 
ATOM     15  O   UNL     1       7.921   4.406  16.245  0.00  0.00    +0.000 OA
ATOM     16  N   UNL     1       5.947   4.416  17.376  0.00  0.00    +0.000 N 
ATOM     17  H   UNL     1       5.342   4.289  16.581  0.00  0.00    +0.000 HD
ENDBRANCH   9  11
ENDBRANCH   3   5
BRANCH   2  18
ATOM     18  C   UNL     1       1.057   8.963  21.212  0.00  0.00    +0.000 A 
ATOM     19  C   UNL     1       1.219   8.960  22.612  0.00  0.00    +0.000 A 
ATOM     20  N   UNL     1       0.601   9.977  23.210  0.00  0.00    +0.000 NA
ATOM     21  N   UNL     1      -0.013  10.649  22.202  0.00  0.00    +0.000 N 
ATOM     22  C   UNL     1       0.273  10.073  20.979  0.00  0.00    +0.000 A 
BRANCH  21  23
ATOM     23  C   UNL     1      -0.837  11.769  22.491  0.00  0.00    +0.000 A 
ATOM     24  C   UNL     1      -2.078  11.568  23.121  0.00  0.00    +0.000 A 
ATOM     25  C   UNL     1      -2.916  12.652  23.392  0.00  0.00    +0.000 A 
ATOM     26  C   UNL     1      -2.527  13.942  23.041  0.00  0.00    +0.000 A 
ATOM     27  C   UNL     1      -1.297  14.149  22.421  0.00  0.00    +0.000 A 
ATOM     28  C   UNL     1      -0.460  13.069  22.150  0.00  0.00    +0.000 A 
ATOM     29  F   UNL     1       0.707  13.341  21.550  0.00  0.00    +0.000 F 
ENDBRANCH  21  23
ENDBRANCH   2  18
TORSDOF 4
ENDMDL
MODEL 2
REMARK VINA RESULT:      -8.6      2.674      4.166
REMARK  Name = 
REMARK  4 active torsions:
REMARK  status: ('A' for Active; 'I' for Inactive)
REMARK    1  A    between atoms: C_2  and  C_16
REMARK    2  A    between atoms: N_3  and  C_4
REMARK    3  A    between atoms: C_8  and  C_9
REMARK    4  A    between atoms: N_19  and  C_20
REMARK                            x       y       z     vdW  Elec       q    Type
REMARK                         _______ _______ _______ _____ _____    ______ ____
ROOT
ATOM      1  O   UNL     1       2.765   5.531  17.938  0.00  0.00    +0.000 OA
ATOM      2  C   UNL     1       3.246   6.620  18.218  0.00  0.00    +0.000 C 
ATOM      3  N   UNL     1       4.599   6.938  18.170  0.00  0.00    +0.000 N 
ATOM      4  H   UNL     1       4.890   7.806  18.597  0.00  0.00    +0.000 HD
ENDROOT
BRANCH   3   5
ATOM      5  C   UNL     1       5.617   6.089  17.671  0.00  0.00    +0.000 A 
ATOM      6  C   UNL     1       6.554   5.480  18.515  0.00  0.00    +0.000 A 
ATOM      7  C   UNL     1       7.572   4.676  18.013  0.00  0.00    +0.000 A 
ATOM      8  C   UNL     1       7.647   4.434  16.651  0.00  0.00    +0.000 A 
ATOM      9  C   UNL     1       6.688   4.980  15.791  0.00  0.00    +0.000 A 
ATOM     10  C   UNL     1       5.680   5.824  16.293  0.00  0.00    +0.000 A 
BRANCH   9  11
ATOM     11  C   UNL     1       6.752   4.640  14.362  0.00  0.00    +0.000 A 
ATOM     12  N   UNL     1       7.426   5.259  13.454  0.00  0.00    +0.000 NA
ATOM     13  O   UNL     1       7.162   4.527  12.243  0.00  0.00    +0.000 OA
ATOM     14  C   UNL     1       6.291   3.522  12.581  0.00  0.00    +0.000 A 
ATOM     15  O   UNL     1       5.811   2.699  11.819  0.00  0.00    +0.000 OA
ATOM     16  N   UNL     1       6.050   3.599  13.895  0.00  0.00    +0.000 N 
ATOM     17  H   UNL     1       5.400   2.996  14.373  0.00  0.00    +0.000 HD
ENDBRANCH   9  11
ENDBRANCH   3   5
BRANCH   2  18
ATOM     18  C   UNL     1       2.359   7.683  18.656  0.00  0.00    +0.000 A 
ATOM     19  C   UNL     1       1.943   8.779  17.873  0.00  0.00    +0.000 A 
ATOM     20  N   UNL     1       1.150   9.621  18.533  0.00  0.00    +0.000 NA
ATOM     21  N   UNL     1       1.063   9.103  19.786  0.00  0.00    +0.000 N 
ATOM     22  C   UNL     1       1.761   7.913  19.878  0.00  0.00    +0.000 A 
BRANCH  21  23
ATOM     23  C   UNL     1       0.342   9.794  20.794  0.00  0.00    +0.000 A 
ATOM     24  C   UNL     1       0.306   9.271  22.098  0.00  0.00    +0.000 A 
ATOM     25  C   UNL     1      -0.419   9.922  23.101  0.00  0.00    +0.000 A 
ATOM     26  C   UNL     1      -1.110  11.096  22.814  0.00  0.00    +0.000 A 
ATOM     27  C   UNL     1      -1.074  11.623  21.525  0.00  0.00    +0.000 A 
ATOM     28  C   UNL     1      -0.352  10.975  20.525  0.00  0.00    +0.000 A 
ATOM     29  F   UNL     1      -0.365  11.536  19.307  0.00  0.00    +0.000 F 
ENDBRANCH  21  23
ENDBRANCH   2  18
TORSDOF 4
ENDMDL
MODEL 3
REMARK VINA RESULT:      -8.6      2.811      4.216
REMARK  Name = 
REMARK  4 active torsions:
REMARK  status: ('A' for Active; 'I' for Inactive)
REMARK    1  A    between atoms: C_2  and  C_16
REMARK    2  A    between atoms: N_3  and  C_4
REMARK    3  A    between atoms: C_8  and  C_9
REMARK    4  A    between atoms: N_19  and  C_20
REMARK                            x       y       z     vdW  Elec       q    Type
REMARK                         _______ _______ _______ _____ _____    ______ ____
ROOT
ATOM      1  O   UNL     1       3.030   5.621  19.010  0.00  0.00    +0.000 OA
ATOM      2  C   UNL     1       3.273   6.739  18.577  0.00  0.00    +0.000 C 
ATOM      3  N   UNL     1       4.423   7.101  17.884  0.00  0.00    +0.000 N 
ATOM      4  H   UNL     1       4.590   8.087  17.739  0.00  0.00    +0.000 HD
ENDROOT
BRANCH   3   5
ATOM      5  C   UNL     1       5.437   6.204  17.464  0.00  0.00    +0.000 A 
ATOM      6  C   UNL     1       6.319   5.607  18.372  0.00  0.00    +0.000 A 
ATOM      7  C   UNL     1       7.334   4.755  17.948  0.00  0.00    +0.000 A 
ATOM      8  C   UNL     1       7.459   4.454  16.601  0.00  0.00    +0.000 A 
ATOM      9  C   UNL     1       6.552   4.988  15.679  0.00  0.00    +0.000 A 
ATOM     10  C   UNL     1       5.550   5.880  16.102  0.00  0.00    +0.000 A 
BRANCH   9  11
ATOM     11  C   UNL     1       6.666   4.587  14.269  0.00  0.00    +0.000 A 
ATOM     12  N   UNL     1       7.390   5.152  13.364  0.00  0.00    +0.000 NA
ATOM     13  O   UNL     1       7.158   4.375  12.175  0.00  0.00    +0.000 OA
ATOM     14  C   UNL     1       6.251   3.404  12.519  0.00  0.00    +0.000 A 
ATOM     15  O   UNL     1       5.783   2.560  11.773  0.00  0.00    +0.000 OA
ATOM     16  N   UNL     1       5.959   3.543  13.818  0.00  0.00    +0.000 N 
ATOM     17  H   UNL     1       5.277   2.974  14.293  0.00  0.00    +0.000 HD
ENDBRANCH   9  11
ENDBRANCH   3   5
BRANCH   2  18
ATOM     18  C   UNL     1       2.307   7.800  18.803  0.00  0.00    +0.000 A 
ATOM     19  C   UNL     1       1.830   8.696  17.825  0.00  0.00    +0.000 A 
ATOM     20  N   UNL     1       0.970   9.588  18.311  0.00  0.00    +0.000 NA
ATOM     21  N   UNL     1       0.898   9.310  19.639  0.00  0.00    +0.000 N 
ATOM     22  C   UNL     1       1.674   8.212  19.957  0.00  0.00    +0.000 A 
BRANCH  21  23
ATOM     23  C   UNL     1       0.114  10.126  20.496  0.00  0.00    +0.000 A 
ATOM     24  C   UNL     1      -0.517  11.270  19.974  0.00  0.00    +0.000 A 
ATOM     25  C   UNL     1      -1.273  12.102  20.804  0.00  0.00    +0.000 A 
ATOM     26  C   UNL     1      -1.409  11.802  22.157  0.00  0.00    +0.000 A 
ATOM     27  C   UNL     1      -0.792  10.669  22.680  0.00  0.00    +0.000 A 
ATOM     28  C   UNL     1      -0.037   9.838  21.854  0.00  0.00    +0.000 A 
ATOM     29  F   UNL     1       0.531   8.767  22.425  0.00  0.00    +0.000 F 
ENDBRANCH  21  23
ENDBRANCH   2  18
TORSDOF 4
ENDMDL
MODEL 4
REMARK VINA RESULT:      -8.6      1.148      1.465
REMARK  Name = 
REMARK  4 active torsions:
REMARK  status: ('A' for Active; 'I' for Inactive)
REMARK    1  A    between atoms: C_2  and  C_16
REMARK    2  A    between atoms: N_3  and  C_4
REMARK    3  A    between atoms: C_8  and  C_9
REMARK    4  A    between atoms: N_19  and  C_20
REMARK                            x       y       z     vdW  Elec       q    Type
REMARK                         _______ _______ _______ _____ _____    ______ ____
ROOT
ATOM      1  O   UNL     1       1.947   7.803  18.809  0.00  0.00    +0.000 OA
ATOM      2  C   UNL     1       1.859   7.633  20.017  0.00  0.00    +0.000 C 
ATOM      3  N   UNL     1       2.204   6.468  20.692  0.00  0.00    +0.000 N 
ATOM      4  H   UNL     1       1.917   6.385  21.657  0.00  0.00    +0.000 HD
ENDROOT
BRANCH   3   5
ATOM      5  C   UNL     1       2.828   5.340  20.103  0.00  0.00    +0.000 A 
ATOM      6  C   UNL     1       2.264   4.061  20.176  0.00  0.00    +0.000 A 
ATOM      7  C   UNL     1       2.900   2.952  19.626  0.00  0.00    +0.000 A 
ATOM      8  C   UNL     1       4.102   3.114  18.954  0.00  0.00    +0.000 A 
ATOM      9  C   UNL     1       4.656   4.391  18.814  0.00  0.00    +0.000 A 
ATOM     10  C   UNL     1       4.033   5.506  19.402  0.00  0.00    +0.000 A 
BRANCH   9  11
ATOM     11  C   UNL     1       5.891   4.536  18.030  0.00  0.00    +0.000 A 
ATOM     12  N   UNL     1       7.097   4.386  18.458  0.00  0.00    +0.000 NA
ATOM     13  O   UNL     1       7.926   4.622  17.306  0.00  0.00    +0.000 OA
ATOM     14  C   UNL     1       7.074   4.932  16.275  0.00  0.00    +0.000 A 
ATOM     15  O   UNL     1       7.400   5.221  15.135  0.00  0.00    +0.000 OA
ATOM     16  N   UNL     1       5.819   4.870  16.734  0.00  0.00    +0.000 N 
ATOM     17  H   UNL     1       5.015   5.105  16.175  0.00  0.00    +0.000 HD
ENDBRANCH   9  11
ENDBRANCH   3   5
BRANCH   2  18
ATOM     18  C   UNL     1       1.339   8.713  20.837  0.00  0.00    +0.000 A 
ATOM     19  C   UNL     1       1.486   8.824  22.235  0.00  0.00    +0.000 A 
ATOM     20  N   UNL     1       0.885   9.901  22.737  0.00  0.00    +0.000 NA
ATOM     21  N   UNL     1       0.297  10.499  21.669  0.00  0.00    +0.000 N 
ATOM     22  C   UNL     1       0.582   9.816  20.502  0.00  0.00    +0.000 A 
BRANCH  21  23
ATOM     23  C   UNL     1      -0.504  11.657  21.853  0.00  0.00    +0.000 A 
ATOM     24  C   UNL     1      -0.243  12.806  21.086  0.00  0.00    +0.000 A 
ATOM     25  C   UNL     1      -1.003  13.965  21.267  0.00  0.00    +0.000 A 
ATOM     26  C   UNL     1      -2.028  13.988  22.210  0.00  0.00    +0.000 A 
ATOM     27  C   UNL     1      -2.295  12.852  22.970  0.00  0.00    +0.000 A 
ATOM     28  C   UNL     1      -1.538  11.696  22.790  0.00  0.00    +0.000 A 
ATOM     29  F   UNL     1      -1.849  10.642  23.557  0.00  0.00    +0.000 F 
ENDBRANCH  21  23
ENDBRANCH   2  18
TORSDOF 4
ENDMDL
MODEL 5
REMARK VINA RESULT:      -8.5      6.675      8.645
REMARK  Name = 
REMARK  4 active torsions:
REMARK  status: ('A' for Active; 'I' for Inactive)
REMARK    1  A    between atoms: C_2  and  C_16
REMARK    2  A    between atoms: N_3  and  C_4
REMARK    3  A    between atoms: C_8  and  C_9
REMARK    4  A    between atoms: N_19  and  C_20
REMARK                            x       y       z     vdW  Elec       q    Type
REMARK                         _______ _______ _______ _____ _____    ______ ____
ROOT
ATOM      1  O   UNL     1       8.369   7.015  18.853  0.00  0.00    +0.000 OA
ATOM      2  C   UNL     1       7.910   7.837  18.073  0.00  0.00    +0.000 C 
ATOM      3  N   UNL     1       7.012   7.558  17.048  0.00  0.00    +0.000 N 
ATOM      4  H   UNL     1       6.848   8.281  16.361  0.00  0.00    +0.000 HD
ENDROOT
BRANCH   3   5
ATOM      5  C   UNL     1       6.394   6.302  16.825  0.00  0.00    +0.000 A 
ATOM      6  C   UNL     1       6.921   5.368  15.926  0.00  0.00    +0.000 A 
ATOM      7  C   UNL     1       6.289   4.151  15.688  0.00  0.00    +0.000 A 
ATOM      8  C   UNL     1       5.132   3.831  16.380  0.00  0.00    +0.000 A 
ATOM      9  C   UNL     1       4.619   4.721  17.329  0.00  0.00    +0.000 A 
ATOM     10  C   UNL     1       5.235   5.967  17.544  0.00  0.00    +0.000 A 
BRANCH   9  11
ATOM     11  C   UNL     1       3.434   4.317  18.100  0.00  0.00    +0.000 A 
ATOM     12  N   UNL     1       3.130   4.688  19.297  0.00  0.00    +0.000 NA
ATOM     13  O   UNL     1       1.882   4.029  19.578  0.00  0.00    +0.000 OA
ATOM     14  C   UNL     1       1.585   3.276  18.469  0.00  0.00    +0.000 A 
ATOM     15  O   UNL     1       0.614   2.551  18.331  0.00  0.00    +0.000 OA
ATOM     16  N   UNL     1       2.550   3.467  17.561  0.00  0.00    +0.000 N 
ATOM     17  H   UNL     1       2.580   2.982  16.678  0.00  0.00    +0.000 HD
ENDBRANCH   9  11
ENDBRANCH   3   5
BRANCH   2  18
ATOM     18  C   UNL     1       8.330   9.222  18.190  0.00  0.00    +0.000 A 
ATOM     19  C   UNL     1       7.840  10.295  17.418  0.00  0.00    +0.000 A 
ATOM     20  N   UNL     1       8.418  11.457  17.715  0.00  0.00    +0.000 NA
ATOM     21  N   UNL     1       9.334  11.153  18.671  0.00  0.00    +0.000 N 
ATOM     22  C   UNL     1       9.279   9.811  18.998  0.00  0.00    +0.000 A 
BRANCH  21  23
ATOM     23  C   UNL     1      10.199  12.159  19.176  0.00  0.00    +0.000 A 
ATOM     24  C   UNL     1       9.722  13.054  20.149  0.00  0.00    +0.000 A 
ATOM     25  C   UNL     1      10.547  14.069  20.642  0.00  0.00    +0.000 A 
ATOM     26  C   UNL     1      11.851  14.199  20.172  0.00  0.00    +0.000 A 
ATOM     27  C   UNL     1      12.332  13.314  19.211  0.00  0.00    +0.000 A 
ATOM     28  C   UNL     1      11.510  12.302  18.719  0.00  0.00    +0.000 A 
ATOM     29  F   UNL     1      12.037  11.488  17.794  0.00  0.00    +0.000 F 
ENDBRANCH  21  23
ENDBRANCH   2  18
TORSDOF 4
ENDMDL
MODEL 6
REMARK VINA RESULT:      -8.4      3.249      4.509
REMARK  Name = 
REMARK  4 active torsions:
REMARK  status: ('A' for Active; 'I' for Inactive)
REMARK    1  A    between atoms: C_2  and  C_16
REMARK    2  A    between atoms: N_3  and  C_4
REMARK    3  A    between atoms: C_8  and  C_9
REMARK    4  A    between atoms: N_19  and  C_20
REMARK                            x       y       z     vdW  Elec       q    Type
REMARK                         _______ _______ _______ _____ _____    ______ ____
ROOT
ATOM      1  O   UNL     1       2.868   5.400  18.015  0.00  0.00    +0.000 OA
ATOM      2  C   UNL     1       3.328   6.511  18.233  0.00  0.00    +0.000 C 
ATOM      3  N   UNL     1       4.667   6.866  18.111  0.00  0.00    +0.000 N 
ATOM      4  H   UNL     1       4.950   7.758  18.492  0.00  0.00    +0.000 HD
ENDROOT
BRANCH   3   5
ATOM      5  C   UNL     1       5.688   6.029  17.596  0.00  0.00    +0.000 A 
ATOM      6  C   UNL     1       6.642   5.429  18.427  0.00  0.00    +0.000 A 
ATOM      7  C   UNL     1       7.662   4.636  17.909  0.00  0.00    +0.000 A 
ATOM      8  C   UNL     1       7.721   4.398  16.545  0.00  0.00    +0.000 A 
ATOM      9  C   UNL     1       6.744   4.935  15.700  0.00  0.00    +0.000 A 
ATOM     10  C   UNL     1       5.734   5.767  16.217  0.00  0.00    +0.000 A 
BRANCH   9  11
ATOM     11  C   UNL     1       6.792   4.598  14.270  0.00  0.00    +0.000 A 
ATOM     12  N   UNL     1       7.438   5.232  13.351  0.00  0.00    +0.000 NA
ATOM     13  O   UNL     1       7.170   4.496  12.144  0.00  0.00    +0.000 OA
ATOM     14  C   UNL     1       6.325   3.472  12.495  0.00  0.00    +0.000 A 
ATOM     15  O   UNL     1       5.850   2.641  11.739  0.00  0.00    +0.000 OA
ATOM     16  N   UNL     1       6.104   3.544  13.813  0.00  0.00    +0.000 N 
ATOM     17  H   UNL     1       5.475   2.926  14.300  0.00  0.00    +0.000 HD
ENDBRANCH   9  11
ENDBRANCH   3   5
BRANCH   2  18
ATOM     18  C   UNL     1       2.429   7.564  18.673  0.00  0.00    +0.000 A 
ATOM     19  C   UNL     1       2.000   7.773  20.000  0.00  0.00    +0.000 A 
ATOM     20  N   UNL     1       1.154   8.794  20.118  0.00  0.00    +0.000 NA
ATOM     21  N   UNL     1       0.985   9.252  18.850  0.00  0.00    +0.000 N 
ATOM     22  C   UNL     1       1.770   8.544  17.961  0.00  0.00    +0.000 A 
BRANCH  21  23
ATOM     23  C   UNL     1       0.074  10.310  18.591  0.00  0.00    +0.000 A 
ATOM     24  C   UNL     1      -1.106  10.044  17.875  0.00  0.00    +0.000 A 
ATOM     25  C   UNL     1      -2.005  11.074  17.586  0.00  0.00    +0.000 A 
ATOM     26  C   UNL     1      -1.737  12.374  18.007  0.00  0.00    +0.000 A 
ATOM     27  C   UNL     1      -0.572  12.644  18.720  0.00  0.00    +0.000 A 
ATOM     28  C   UNL     1       0.325  11.618  19.010  0.00  0.00    +0.000 A 
ATOM     29  F   UNL     1       1.427  11.950  19.697  0.00  0.00    +0.000 F 
ENDBRANCH  21  23
ENDBRANCH   2  18
TORSDOF 4
ENDMDL
MODEL 7
REMARK VINA RESULT:      -8.4      1.317      1.377
REMARK  Name = 
REMARK  4 active torsions:
REMARK  status: ('A' for Active; 'I' for Inactive)
REMARK    1  A    between atoms: C_2  and  C_16
REMARK    2  A    between atoms: N_3  and  C_4
REMARK    3  A    between atoms: C_8  and  C_9
REMARK    4  A    between atoms: N_19  and  C_20
REMARK                            x       y       z     vdW  Elec       q    Type
REMARK                         _______ _______ _______ _____ _____    ______ ____
ROOT
ATOM      1  O   UNL     1       2.155   7.761  18.680  0.00  0.00    +0.000 OA
ATOM      2  C   UNL     1       1.885   7.599  19.862  0.00  0.00    +0.000 C 
ATOM      3  N   UNL     1       2.101   6.430  20.583  0.00  0.00    +0.000 N 
ATOM      4  H   UNL     1       1.672   6.357  21.495  0.00  0.00    +0.000 HD
ENDROOT
BRANCH   3   5
ATOM      5  C   UNL     1       2.783   5.287  20.096  0.00  0.00    +0.000 A 
ATOM      6  C   UNL     1       2.270   3.994  20.258  0.00  0.00    +0.000 A 
ATOM      7  C   UNL     1       2.962   2.875  19.807  0.00  0.00    +0.000 A 
ATOM      8  C   UNL     1       4.171   3.034  19.148  0.00  0.00    +0.000 A 
ATOM      9  C   UNL     1       4.676   4.318  18.918  0.00  0.00    +0.000 A 
ATOM     10  C   UNL     1       3.996   5.449  19.406  0.00  0.00    +0.000 A 
BRANCH   9  11
ATOM     11  C   UNL     1       5.921   4.455  18.148  0.00  0.00    +0.000 A 
ATOM     12  N   UNL     1       7.121   4.446  18.617  0.00  0.00    +0.000 NA
ATOM     13  O   UNL     1       7.965   4.597  17.461  0.00  0.00    +0.000 OA
ATOM     14  C   UNL     1       7.125   4.716  16.382  0.00  0.00    +0.000 A 
ATOM     15  O   UNL     1       7.463   4.886  15.223  0.00  0.00    +0.000 OA
ATOM     16  N   UNL     1       5.864   4.622  16.819  0.00  0.00    +0.000 N 
ATOM     17  H   UNL     1       5.063   4.728  16.219  0.00  0.00    +0.000 HD
ENDBRANCH   9  11
ENDBRANCH   3   5
BRANCH   2  18
ATOM     18  C   UNL     1       1.270   8.692  20.594  0.00  0.00    +0.000 A 
ATOM     19  C   UNL     1       1.394   8.923  21.979  0.00  0.00    +0.000 A 
ATOM     20  N   UNL     1       0.703   9.983  22.394  0.00  0.00    +0.000 NA
ATOM     21  N   UNL     1       0.078  10.446  21.281  0.00  0.00    +0.000 N 
ATOM     22  C   UNL     1       0.429   9.700  20.171  0.00  0.00    +0.000 A 
BRANCH  21  23
ATOM     23  C   UNL     1      -0.817  11.544  21.371  0.00  0.00    +0.000 A 
ATOM     24  C   UNL     1      -0.863  12.301  22.554  0.00  0.00    +0.000 A 
ATOM     25  C   UNL     1      -1.754  13.371  22.675  0.00  0.00    +0.000 A 
ATOM     26  C   UNL     1      -2.604  13.696  21.620  0.00  0.00    +0.000 A 
ATOM     27  C   UNL     1      -2.560  12.953  20.443  0.00  0.00    +0.000 A 
ATOM     28  C   UNL     1      -1.672  11.886  20.322  0.00  0.00    +0.000 A 
ATOM     29  F   UNL     1      -1.686  11.213  19.162  0.00  0.00    +0.000 F 
ENDBRANCH  21  23
ENDBRANCH   2  18
TORSDOF 4
ENDMDL
MODEL 8
REMARK VINA RESULT:      -8.3      4.309     10.097
REMARK  Name = 
REMARK  4 active torsions:
REMARK  status: ('A' for Active; 'I' for Inactive)
REMARK    1  A    between atoms: C_2  and  C_16
REMARK    2  A    between atoms: N_3  and  C_4
REMARK    3  A    between atoms: C_8  and  C_9
REMARK    4  A    between atoms: N_19  and  C_20
REMARK                            x       y       z     vdW  Elec       q    Type
REMARK                         _______ _______ _______ _____ _____    ______ ____
ROOT
ATOM      1  O   UNL     1       2.210  10.064  17.453  0.00  0.00    +0.000 OA
ATOM      2  C   UNL     1       1.889   9.135  18.181  0.00  0.00    +0.000 C 
ATOM      3  N   UNL     1       0.890   9.179  19.147  0.00  0.00    +0.000 N 
ATOM      4  H   UNL     1       0.842   8.413  19.804  0.00  0.00    +0.000 HD
ENDROOT
BRANCH   3   5
ATOM      5  C   UNL     1       0.005  10.266  19.354  0.00  0.00    +0.000 A 
ATOM      6  C   UNL     1       0.292  11.290  20.265  0.00  0.00    +0.000 A 
ATOM      7  C   UNL     1      -0.599  12.336  20.488  0.00  0.00    +0.000 A 
ATOM      8  C   UNL     1      -1.782  12.395  19.770  0.00  0.00    +0.000 A 
ATOM      9  C   UNL     1      -2.065  11.418  18.809  0.00  0.00    +0.000 A 
ATOM     10  C   UNL     1      -1.184  10.340  18.610  0.00  0.00    +0.000 A 
BRANCH   9  11
ATOM     11  C   UNL     1      -3.292  11.553  18.012  0.00  0.00    +0.000 A 
ATOM     12  N   UNL     1      -3.484  11.118  16.813  0.00  0.00    +0.000 NA
ATOM     13  O   UNL     1      -4.838  11.493  16.502  0.00  0.00    +0.000 OA
ATOM     14  C   UNL     1      -5.313  12.171  17.596  0.00  0.00    +0.000 A 
ATOM     15  O   UNL     1      -6.420  12.671  17.708  0.00  0.00    +0.000 OA
ATOM     16  N   UNL     1      -4.350  12.197  18.525  0.00  0.00    +0.000 N 
ATOM     17  H   UNL     1      -4.443  12.682  19.403  0.00  0.00    +0.000 HD
ENDBRANCH   9  11
ENDBRANCH   3   5
BRANCH   2  18
ATOM     18  C   UNL     1       2.602   7.875  18.061  0.00  0.00    +0.000 A 
ATOM     19  C   UNL     1       3.814   7.683  17.366  0.00  0.00    +0.000 A 
ATOM     20  N   UNL     1       4.234   6.420  17.393  0.00  0.00    +0.000 NA
ATOM     21  N   UNL     1       3.274   5.750  18.082  0.00  0.00    +0.000 N 
ATOM     22  C   UNL     1       2.290   6.615  18.524  0.00  0.00    +0.000 A 
BRANCH  21  23
ATOM     23  C   UNL     1       3.363   4.343  18.243  0.00  0.00    +0.000 A 
ATOM     24  C   UNL     1       2.451   3.512  17.568  0.00  0.00    +0.000 A 
ATOM     25  C   UNL     1       2.504   2.126  17.731  0.00  0.00    +0.000 A 
ATOM     26  C   UNL     1       3.464   1.555  18.563  0.00  0.00    +0.000 A 
ATOM     27  C   UNL     1       4.374   2.371  19.230  0.00  0.00    +0.000 A 
ATOM     28  C   UNL     1       4.322   3.754  19.069  0.00  0.00    +0.000 A 
ATOM     29  F   UNL     1       5.226   4.478  19.743  0.00  0.00    +0.000 F 
ENDBRANCH  21  23
ENDBRANCH   2  18
TORSDOF 4
ENDMDL
MODEL 9
REMARK VINA RESULT:      -8.3      4.283     10.229
REMARK  Name = 
REMARK  4 active torsions:
REMARK  status: ('A' for Active; 'I' for Inactive)
REMARK    1  A    between atoms: C_2  and  C_16
REMARK    2  A    between atoms: N_3  and  C_4
REMARK    3  A    between atoms: C_8  and  C_9
REMARK    4  A    between atoms: N_19  and  C_20
REMARK                            x       y       z     vdW  Elec       q    Type
REMARK                         _______ _______ _______ _____ _____    ______ ____
ROOT
ATOM      1  O   UNL     1       1.965  10.086  17.487  0.00  0.00    +0.000 OA
ATOM      2  C   UNL     1       1.791   9.209  18.321  0.00  0.00    +0.000 C 
ATOM      3  N   UNL     1       0.872   9.260  19.363  0.00  0.00    +0.000 N 
ATOM      4  H   UNL     1       0.949   8.561  20.088  0.00  0.00    +0.000 HD
ENDROOT
BRANCH   3   5
ATOM      5  C   UNL     1      -0.094  10.280  19.547  0.00  0.00    +0.000 A 
ATOM      6  C   UNL     1       0.023  11.235  20.564  0.00  0.00    +0.000 A 
ATOM      7  C   UNL     1      -0.948  12.213  20.759  0.00  0.00    +0.000 A 
ATOM      8  C   UNL     1      -2.041  12.275  19.909  0.00  0.00    +0.000 A 
ATOM      9  C   UNL     1      -2.151  11.371  18.848  0.00  0.00    +0.000 A 
ATOM     10  C   UNL     1      -1.190  10.359  18.672  0.00  0.00    +0.000 A 
BRANCH   9  11
ATOM     11  C   UNL     1      -3.283  11.513  17.920  0.00  0.00    +0.000 A 
ATOM     12  N   UNL     1      -3.307  11.174  16.677  0.00  0.00    +0.000 NA
ATOM     13  O   UNL     1      -4.635  11.506  16.233  0.00  0.00    +0.000 OA
ATOM     14  C   UNL     1      -5.274  12.063  17.313  0.00  0.00    +0.000 A 
ATOM     15  O   UNL     1      -6.414  12.496  17.329  0.00  0.00    +0.000 OA
ATOM     16  N   UNL     1      -4.429  12.057  18.351  0.00  0.00    +0.000 N 
ATOM     17  H   UNL     1      -4.653  12.460  19.246  0.00  0.00    +0.000 HD
ENDBRANCH   9  11
ENDBRANCH   3   5
BRANCH   2  18
ATOM     18  C   UNL     1       2.611   8.011  18.255  0.00  0.00    +0.000 A 
ATOM     19  C   UNL     1       2.498   6.893  19.106  0.00  0.00    +0.000 A 
ATOM     20  N   UNL     1       3.394   5.945  18.841  0.00  0.00    +0.000 NA
ATOM     21  N   UNL     1       4.141   6.449  17.825  0.00  0.00    +0.000 N 
ATOM     22  C   UNL     1       3.668   7.686  17.431  0.00  0.00    +0.000 A 
BRANCH  21  23
ATOM     23  C   UNL     1       5.254   5.721  17.330  0.00  0.00    +0.000 A 
ATOM     24  C   UNL     1       5.272   5.318  15.983  0.00  0.00    +0.000 A 
ATOM     25  C   UNL     1       6.346   4.578  15.481  0.00  0.00    +0.000 A 
ATOM     26  C   UNL     1       7.410   4.237  16.313  0.00  0.00    +0.000 A 
ATOM     27  C   UNL     1       7.401   4.636  17.646  0.00  0.00    +0.000 A 
ATOM     28  C   UNL     1       6.331   5.374  18.149  0.00  0.00    +0.000 A 
ATOM     29  F   UNL     1       6.387   5.722  19.442  0.00  0.00    +0.000 F 
ENDBRANCH  21  23
ENDBRANCH   2  18
TORSDOF 4
ENDMDL
