MODEL 1
REMARK VINA RESULT:      -8.1      0.000      0.000
REMARK  Name = 
REMARK  7 active torsions:
REMARK  status: ('A' for Active; 'I' for Inactive)
REMARK    1  A    between atoms: C_2  and  C_3
REMARK    2  A    between atoms: C_3  and  C_4
REMARK    3  A    between atoms: C_4  and  C_5
REMARK    4  A    between atoms: C_7  and  C_8
REMARK    5  A    between atoms: N_16  and  C_17
REMARK    6  A    between atoms: C_17  and  C_18
REMARK    7  A    between atoms: C_18  and  C_19
REMARK                            x       y       z     vdW  Elec       q    Type
REMARK                         _______ _______ _______ _____ _____    ______ ____
ROOT
ATOM      1  O   UNL     1       2.527   2.315  17.396  0.00  0.00    +0.000 OA
ATOM      2  C   UNL     1       3.623   2.373  17.945  0.00  0.00    +0.000 C 
ATOM      3  N   UNL     1       4.652   3.178  17.506  0.00  0.00    +0.000 N 
ATOM      4  H   UNL     1       5.559   3.069  17.939  0.00  0.00    +0.000 HD
ENDROOT
BRANCH   2   5
ATOM      5  C   UNL     1       3.947   1.598  19.207  0.00  0.00    +0.000 C 
BRANCH   5   6
ATOM      6  C   UNL     1       4.172   2.533  20.389  0.00  0.00    +0.000 C 
BRANCH   6   7
ATOM      7  C   UNL     1       3.230   3.677  20.357  0.00  0.00    +0.000 A 
ATOM      8  N   UNL     1       3.429   4.905  19.933  0.00  0.00    +0.000 NA
ATOM      9  C   UNL     1       2.212   5.505  20.189  0.00  0.00    +0.000 A 
ATOM     10  N   UNL     1       1.303   4.683  20.741  0.00  0.00    +0.000 NA
ATOM     11  O   UNL     1       1.980   3.472  20.855  0.00  0.00    +0.000 OA
BRANCH   9  12
ATOM     12  C   UNL     1       1.954   6.900  19.875  0.00  0.00    +0.000 A 
ATOM     13  C   UNL     1       1.309   7.758  20.772  0.00  0.00    +0.000 A 
ATOM     14  C   UNL     1       1.072   9.086  20.416  0.00  0.00    +0.000 A 
ATOM     15  C   UNL     1       1.491   9.514  19.166  0.00  0.00    +0.000 A 
ATOM     16  N   UNL     1       2.121   8.721  18.275  0.00  0.00    +0.000 NA
ATOM     17  C   UNL     1       2.336   7.435  18.649  0.00  0.00    +0.000 A 
ENDBRANCH   9  12
ENDBRANCH   6   7
ENDBRANCH   5   6
ENDBRANCH   2   5
BRANCH   3  18
ATOM     18  C   UNL     1       4.526   3.930  16.268  0.00  0.00    +0.000 C 
BRANCH  18  19
ATOM     19  C   UNL     1       5.758   4.818  16.020  0.00  0.00    +0.000 C 
ATOM     20  C   UNL     1       6.919   4.760  17.095  0.00  0.00    +0.000 C 
ATOM     21  C   UNL     1       7.068   6.285  16.937  0.00  0.00    +0.000 C 
ATOM     22  C   UNL     1       5.610   6.331  16.450  0.00  0.00    +0.000 C 
BRANCH  19  23
ATOM     23  C   UNL     1       6.245   4.570  14.477  0.00  0.00    +0.000 A 
ATOM     24  C   UNL     1       7.380   5.213  13.941  0.00  0.00    +0.000 A 
ATOM     25  C   UNL     1       7.834   4.963  12.642  0.00  0.00    +0.000 A 
ATOM     26  C   UNL     1       7.153   4.068  11.828  0.00  0.00    +0.000 A 
ATOM     27  C   UNL     1       6.006   3.443  12.304  0.00  0.00    +0.000 A 
ATOM     28  C   UNL     1       5.559   3.699  13.604  0.00  0.00    +0.000 A 
ENDBRANCH  19  23
ENDBRANCH  18  19
ENDBRANCH   3  18
TORSDOF 7
ENDMDL
MODEL 2
REMARK VINA RESULT:      -8.0      2.016      3.095
REMARK  Name = 
REMARK  7 active torsions:
REMARK  status: ('A' for Active; 'I' for Inactive)
REMARK    1  A    between atoms: C_2  and  C_3
REMARK    2  A    between atoms: C_3  and  C_4
REMARK    3  A    between atoms: C_4  and  C_5
REMARK    4  A    between atoms: C_7  and  C_8
REMARK    5  A    between atoms: N_16  and  C_17
REMARK    6  A    between atoms: C_17  and  C_18
REMARK    7  A    between atoms: C_18  and  C_19
REMARK                            x       y       z     vdW  Elec       q    Type
REMARK                         _______ _______ _______ _____ _____    ______ ____
ROOT
ATOM      1  O   UNL     1       3.969   3.385  19.283  0.00  0.00    +0.000 OA
ATOM      2  C   UNL     1       3.399   4.170  18.532  0.00  0.00    +0.000 C 
ATOM      3  N   UNL     1       3.758   4.359  17.214  0.00  0.00    +0.000 N 
ATOM      4  H   UNL     1       3.318   5.114  16.706  0.00  0.00    +0.000 HD
ENDROOT
BRANCH   2   5
ATOM      5  C   UNL     1       2.192   4.982  18.960  0.00  0.00    +0.000 C 
BRANCH   5   6
ATOM      6  C   UNL     1       2.602   6.180  19.807  0.00  0.00    +0.000 C 
BRANCH   6   7
ATOM      7  C   UNL     1       2.244   7.456  19.143  0.00  0.00    +0.000 A 
ATOM      8  N   UNL     1       1.547   8.468  19.609  0.00  0.00    +0.000 NA
ATOM      9  C   UNL     1       1.524   9.330  18.531  0.00  0.00    +0.000 A 
ATOM     10  N   UNL     1       2.181   8.872  17.452  0.00  0.00    +0.000 NA
ATOM     11  O   UNL     1       2.655   7.627  17.857  0.00  0.00    +0.000 OA
BRANCH   9  12
ATOM     12  C   UNL     1       0.852  10.617  18.582  0.00  0.00    +0.000 A 
ATOM     13  C   UNL     1      -0.536  10.738  18.459  0.00  0.00    +0.000 A 
ATOM     14  C   UNL     1      -1.131  11.999  18.499  0.00  0.00    +0.000 A 
ATOM     15  C   UNL     1      -0.312  13.105  18.663  0.00  0.00    +0.000 A 
ATOM     16  N   UNL     1       1.029  13.032  18.791  0.00  0.00    +0.000 NA
ATOM     17  C   UNL     1       1.578  11.792  18.747  0.00  0.00    +0.000 A 
ENDBRANCH   9  12
ENDBRANCH   6   7
ENDBRANCH   5   6
ENDBRANCH   2   5
BRANCH   3  18
ATOM     18  C   UNL     1       4.938   3.709  16.668  0.00  0.00    +0.000 C 
BRANCH  18  19
ATOM     19  C   UNL     1       6.026   4.733  16.301  0.00  0.00    +0.000 C 
ATOM     20  C   UNL     1       7.298   4.805  17.241  0.00  0.00    +0.000 C 
ATOM     21  C   UNL     1       7.254   6.338  17.092  0.00  0.00    +0.000 C 
ATOM     22  C   UNL     1       5.756   6.218  16.769  0.00  0.00    +0.000 C 
BRANCH  19  23
ATOM     23  C   UNL     1       6.365   4.548  14.710  0.00  0.00    +0.000 A 
ATOM     24  C   UNL     1       7.442   5.216  14.094  0.00  0.00    +0.000 A 
ATOM     25  C   UNL     1       7.771   5.018  12.750  0.00  0.00    +0.000 A 
ATOM     26  C   UNL     1       7.017   4.152  11.969  0.00  0.00    +0.000 A 
ATOM     27  C   UNL     1       5.922   3.504  12.528  0.00  0.00    +0.000 A 
ATOM     28  C   UNL     1       5.600   3.707  13.874  0.00  0.00    +0.000 A 
ENDBRANCH  19  23
ENDBRANCH  18  19
ENDBRANCH   3  18
TORSDOF 7
ENDMDL
MODEL 3
REMARK VINA RESULT:      -7.9      1.748      2.671
REMARK  Name = 
REMARK  7 active torsions:
REMARK  status: ('A' for Active; 'I' for Inactive)
REMARK    1  A    between atoms: C_2  and  C_3
REMARK    2  A    between atoms: C_3  and  C_4
REMARK    3  A    between atoms: C_4  and  C_5
REMARK    4  A    between atoms: C_7  and  C_8
REMARK    5  A    between atoms: N_16  and  C_17
REMARK    6  A    between atoms: C_17  and  C_18
REMARK    7  A    between atoms: C_18  and  C_19
REMARK                            x       y       z     vdW  Elec       q    Type
REMARK                         _______ _______ _______ _____ _____    ______ ____
ROOT
ATOM      1  O   UNL     1       2.838   2.401  17.909  0.00  0.00    +0.000 OA
ATOM      2  C   UNL     1       2.961   3.607  18.100  0.00  0.00    +0.000 C 
ATOM      3  N   UNL     1       3.853   4.399  17.410  0.00  0.00    +0.000 N 
ATOM      4  H   UNL     1       3.978   5.354  17.718  0.00  0.00    +0.000 HD
ENDROOT
BRANCH   2   5
ATOM      5  C   UNL     1       2.098   4.371  19.085  0.00  0.00    +0.000 C 
BRANCH   5   6
ATOM      6  C   UNL     1       2.889   5.473  19.777  0.00  0.00    +0.000 C 
BRANCH   6   7
ATOM      7  C   UNL     1       2.422   6.816  19.358  0.00  0.00    +0.000 A 
ATOM      8  N   UNL     1       1.840   7.754  20.073  0.00  0.00    +0.000 NA
ATOM      9  C   UNL     1       1.615   8.741  19.135  0.00  0.00    +0.000 A 
ATOM     10  N   UNL     1       2.043   8.429  17.900  0.00  0.00    +0.000 NA
ATOM     11  O   UNL     1       2.575   7.150  18.048  0.00  0.00    +0.000 OA
BRANCH   9  12
ATOM     12  C   UNL     1       0.979  10.003  19.474  0.00  0.00    +0.000 A 
ATOM     13  C   UNL     1       1.196  11.169  18.733  0.00  0.00    +0.000 A 
ATOM     14  C   UNL     1       0.571  12.359  19.109  0.00  0.00    +0.000 A 
ATOM     15  C   UNL     1      -0.255  12.342  20.222  0.00  0.00    +0.000 A 
ATOM     16  N   UNL     1      -0.496  11.238  20.960  0.00  0.00    +0.000 NA
ATOM     17  C   UNL     1       0.127  10.097  20.570  0.00  0.00    +0.000 A 
ENDBRANCH   9  12
ENDBRANCH   6   7
ENDBRANCH   5   6
ENDBRANCH   2   5
BRANCH   3  18
ATOM     18  C   UNL     1       4.803   3.808  16.481  0.00  0.00    +0.000 C 
BRANCH  18  19
ATOM     19  C   UNL     1       5.960   4.772  16.168  0.00  0.00    +0.000 C 
ATOM     20  C   UNL     1       7.189   4.774  17.166  0.00  0.00    +0.000 C 
ATOM     21  C   UNL     1       7.234   6.307  17.021  0.00  0.00    +0.000 C 
ATOM     22  C   UNL     1       5.748   6.269  16.629  0.00  0.00    +0.000 C 
BRANCH  19  23
ATOM     23  C   UNL     1       6.361   4.571  14.594  0.00  0.00    +0.000 A 
ATOM     24  C   UNL     1       7.425   5.279  13.999  0.00  0.00    +0.000 A 
ATOM     25  C   UNL     1       7.809   5.070  12.671  0.00  0.00    +0.000 A 
ATOM     26  C   UNL     1       7.124   4.152  11.885  0.00  0.00    +0.000 A 
ATOM     27  C   UNL     1       6.044   3.462  12.422  0.00  0.00    +0.000 A 
ATOM     28  C   UNL     1       5.667   3.676  13.752  0.00  0.00    +0.000 A 
ENDBRANCH  19  23
ENDBRANCH  18  19
ENDBRANCH   3  18
TORSDOF 7
ENDMDL
MODEL 4
REMARK VINA RESULT:      -7.9      4.040      6.671
REMARK  Name = 
REMARK  7 active torsions:
REMARK  status: ('A' for Active; 'I' for Inactive)
REMARK    1  A    between atoms: C_2  and  C_3
REMARK    2  A    between atoms: C_3  and  C_4
REMARK    3  A    between atoms: C_4  and  C_5
REMARK    4  A    between atoms: C_7  and  C_8
REMARK    5  A    between atoms: N_16  and  C_17
REMARK    6  A    between atoms: C_17  and  C_18
REMARK    7  A    between atoms: C_18  and  C_19
REMARK                            x       y       z     vdW  Elec       q    Type
REMARK                         _______ _______ _______ _____ _____    ______ ____
ROOT
ATOM      1  O   UNL     1       2.563   9.174  17.120  0.00  0.00    +0.000 OA
ATOM      2  C   UNL     1       2.128   8.563  18.092  0.00  0.00    +0.000 C 
ATOM      3  N   UNL     1       2.528   7.288  18.430  0.00  0.00    +0.000 N 
ATOM      4  H   UNL     1       2.028   6.812  19.168  0.00  0.00    +0.000 HD
ENDROOT
BRANCH   2   5
ATOM      5  C   UNL     1       1.137   9.171  19.064  0.00  0.00    +0.000 C 
BRANCH   5   6
ATOM      6  C   UNL     1       1.262   8.546  20.448  0.00  0.00    +0.000 C 
BRANCH   6   7
ATOM      7  C   UNL     1       0.589   9.376  21.476  0.00  0.00    +0.000 A 
ATOM      8  N   UNL     1      -0.201  10.414  21.319  0.00  0.00    +0.000 NA
ATOM      9  C   UNL     1      -0.477  10.774  22.622  0.00  0.00    +0.000 A 
ATOM     10  N   UNL     1       0.113   9.990  23.542  0.00  0.00    +0.000 NA
ATOM     11  O   UNL     1       0.822   9.065  22.780  0.00  0.00    +0.000 OA
BRANCH   9  12
ATOM     12  C   UNL     1      -1.337  11.898  22.953  0.00  0.00    +0.000 A 
ATOM     13  C   UNL     1      -2.676  11.728  23.318  0.00  0.00    +0.000 A 
ATOM     14  C   UNL     1      -3.464  12.842  23.612  0.00  0.00    +0.000 A 
ATOM     15  C   UNL     1      -2.881  14.096  23.529  0.00  0.00    +0.000 A 
ATOM     16  N   UNL     1      -1.592  14.303  23.187  0.00  0.00    +0.000 NA
ATOM     17  C   UNL     1      -0.853  13.201  22.906  0.00  0.00    +0.000 A 
ENDBRANCH   9  12
ENDBRANCH   6   7
ENDBRANCH   5   6
ENDBRANCH   2   5
BRANCH   3  18
ATOM     18  C   UNL     1       3.421   6.537  17.560  0.00  0.00    +0.000 C 
BRANCH  18  19
ATOM     19  C   UNL     1       4.054   5.345  18.297  0.00  0.00    +0.000 C 
ATOM     20  C   UNL     1       5.282   5.652  19.248  0.00  0.00    +0.000 C 
ATOM     21  C   UNL     1       5.938   4.359  18.729  0.00  0.00    +0.000 C 
ATOM     22  C   UNL     1       5.084   4.489  17.457  0.00  0.00    +0.000 C 
BRANCH  19  23
ATOM     23  C   UNL     1       2.843   4.497  19.000  0.00  0.00    +0.000 A 
ATOM     24  C   UNL     1       2.575   4.585  20.381  0.00  0.00    +0.000 A 
ATOM     25  C   UNL     1       1.507   3.908  20.978  0.00  0.00    +0.000 A 
ATOM     26  C   UNL     1       0.679   3.101  20.209  0.00  0.00    +0.000 A 
ATOM     27  C   UNL     1       0.933   2.955  18.850  0.00  0.00    +0.000 A 
ATOM     28  C   UNL     1       2.003   3.637  18.262  0.00  0.00    +0.000 A 
ENDBRANCH  19  23
ENDBRANCH  18  19
ENDBRANCH   3  18
TORSDOF 7
ENDMDL
MODEL 5
REMARK VINA RESULT:      -7.8      0.877      1.423
REMARK  Name = 
REMARK  7 active torsions:
REMARK  status: ('A' for Active; 'I' for Inactive)
REMARK    1  A    between atoms: C_2  and  C_3
REMARK    2  A    between atoms: C_3  and  C_4
REMARK    3  A    between atoms: C_4  and  C_5
REMARK    4  A    between atoms: C_7  and  C_8
REMARK    5  A    between atoms: N_16  and  C_17
REMARK    6  A    between atoms: C_17  and  C_18
REMARK    7  A    between atoms: C_18  and  C_19
REMARK                            x       y       z     vdW  Elec       q    Type
REMARK                         _______ _______ _______ _____ _____    ______ ____
ROOT
ATOM      1  O   UNL     1       2.119   2.859  17.411  0.00  0.00    +0.000 OA
ATOM      2  C   UNL     1       3.205   2.677  17.951  0.00  0.00    +0.000 C 
ATOM      3  N   UNL     1       4.403   3.086  17.405  0.00  0.00    +0.000 N 
ATOM      4  H   UNL     1       5.258   2.784  17.853  0.00  0.00    +0.000 HD
ENDROOT
BRANCH   2   5
ATOM      5  C   UNL     1       3.344   2.026  19.313  0.00  0.00    +0.000 C 
BRANCH   5   6
ATOM      6  C   UNL     1       2.546   2.777  20.371  0.00  0.00    +0.000 C 
BRANCH   6   7
ATOM      7  C   UNL     1       2.664   4.244  20.194  0.00  0.00    +0.000 A 
ATOM      8  N   UNL     1       1.756   5.178  20.371  0.00  0.00    +0.000 NA
ATOM      9  C   UNL     1       2.441   6.323  20.019  0.00  0.00    +0.000 A 
ATOM     10  N   UNL     1       3.714   6.107  19.645  0.00  0.00    +0.000 NA
ATOM     11  O   UNL     1       3.860   4.727  19.758  0.00  0.00    +0.000 OA
BRANCH   9  12
ATOM     12  C   UNL     1       1.825   7.639  20.062  0.00  0.00    +0.000 A 
ATOM     13  C   UNL     1       1.223   8.142  21.220  0.00  0.00    +0.000 A 
ATOM     14  C   UNL     1       0.633   9.407  21.205  0.00  0.00    +0.000 A 
ATOM     15  C   UNL     1       0.666  10.131  20.024  0.00  0.00    +0.000 A 
ATOM     16  N   UNL     1       1.242   9.686  18.888  0.00  0.00    +0.000 NA
ATOM     17  C   UNL     1       1.806   8.452  18.934  0.00  0.00    +0.000 A 
ENDBRANCH   9  12
ENDBRANCH   6   7
ENDBRANCH   5   6
ENDBRANCH   2   5
BRANCH   3  18
ATOM     18  C   UNL     1       4.450   3.663  16.071  0.00  0.00    +0.000 C 
BRANCH  18  19
ATOM     19  C   UNL     1       5.598   4.678  15.936  0.00  0.00    +0.000 C 
ATOM     20  C   UNL     1       6.657   4.733  17.111  0.00  0.00    +0.000 C 
ATOM     21  C   UNL     1       6.657   6.266  16.968  0.00  0.00    +0.000 C 
ATOM     22  C   UNL     1       5.252   6.163  16.352  0.00  0.00    +0.000 C 
BRANCH  19  23
ATOM     23  C   UNL     1       6.245   4.499  14.443  0.00  0.00    +0.000 A 
ATOM     24  C   UNL     1       5.691   3.618  13.491  0.00  0.00    +0.000 A 
ATOM     25  C   UNL     1       6.204   3.503  12.196  0.00  0.00    +0.000 A 
ATOM     26  C   UNL     1       7.306   4.257  11.814  0.00  0.00    +0.000 A 
ATOM     27  C   UNL     1       7.906   5.107  12.735  0.00  0.00    +0.000 A 
ATOM     28  C   UNL     1       7.386   5.218  14.028  0.00  0.00    +0.000 A 
ENDBRANCH  19  23
ENDBRANCH  18  19
ENDBRANCH   3  18
TORSDOF 7
ENDMDL
MODEL 6
REMARK VINA RESULT:      -7.8      3.773      5.762
REMARK  Name = 
REMARK  7 active torsions:
REMARK  status: ('A' for Active; 'I' for Inactive)
REMARK    1  A    between atoms: C_2  and  C_3
REMARK    2  A    between atoms: C_3  and  C_4
REMARK    3  A    between atoms: C_4  and  C_5
REMARK    4  A    between atoms: C_7  and  C_8
REMARK    5  A    between atoms: N_16  and  C_17
REMARK    6  A    between atoms: C_17  and  C_18
REMARK    7  A    between atoms: C_18  and  C_19
REMARK                            x       y       z     vdW  Elec       q    Type
REMARK                         _______ _______ _______ _____ _____    ______ ____
ROOT
ATOM      1  O   UNL     1       4.143   7.404  17.508  0.00  0.00    +0.000 OA
ATOM      2  C   UNL     1       3.044   7.238  18.026  0.00  0.00    +0.000 C 
ATOM      3  N   UNL     1       2.780   6.250  18.950  0.00  0.00    +0.000 N 
ATOM      4  H   UNL     1       1.819   6.105  19.230  0.00  0.00    +0.000 HD
ENDROOT
BRANCH   2   5
ATOM      5  C   UNL     1       1.862   8.145  17.744  0.00  0.00    +0.000 C 
BRANCH   5   6
ATOM      6  C   UNL     1       1.964   9.449  18.524  0.00  0.00    +0.000 C 
BRANCH   6   7
ATOM      7  C   UNL     1       0.638  10.094  18.671  0.00  0.00    +0.000 A 
ATOM      8  N   UNL     1      -0.394  10.066  17.858  0.00  0.00    +0.000 NA
ATOM      9  C   UNL     1      -1.305  10.870  18.511  0.00  0.00    +0.000 A 
ATOM     10  N   UNL     1      -0.858  11.368  19.677  0.00  0.00    +0.000 NA
ATOM     11  O   UNL     1       0.433  10.856  19.780  0.00  0.00    +0.000 OA
BRANCH   9  12
ATOM     12  C   UNL     1      -2.630  11.137  17.975  0.00  0.00    +0.000 A 
ATOM     13  C   UNL     1      -2.984  10.803  16.664  0.00  0.00    +0.000 A 
ATOM     14  C   UNL     1      -4.265  11.093  16.194  0.00  0.00    +0.000 A 
ATOM     15  C   UNL     1      -5.155  11.712  17.057  0.00  0.00    +0.000 A 
ATOM     16  N   UNL     1      -4.856  12.045  18.330  0.00  0.00    +0.000 NA
ATOM     17  C   UNL     1      -3.602  11.751  18.758  0.00  0.00    +0.000 A 
ENDBRANCH   9  12
ENDBRANCH   6   7
ENDBRANCH   5   6
ENDBRANCH   2   5
BRANCH   3  18
ATOM     18  C   UNL     1       3.787   5.253  19.276  0.00  0.00    +0.000 C 
BRANCH  18  19
ATOM     19  C   UNL     1       3.756   4.076  18.286  0.00  0.00    +0.000 C 
ATOM     20  C   UNL     1       2.356   3.707  17.646  0.00  0.00    +0.000 C 
ATOM     21  C   UNL     1       2.735   2.222  17.808  0.00  0.00    +0.000 C 
ATOM     22  C   UNL     1       3.694   2.637  18.936  0.00  0.00    +0.000 C 
BRANCH  19  23
ATOM     23  C   UNL     1       4.961   4.307  17.203  0.00  0.00    +0.000 A 
ATOM     24  C   UNL     1       6.297   4.510  17.605  0.00  0.00    +0.000 A 
ATOM     25  C   UNL     1       7.339   4.652  16.684  0.00  0.00    +0.000 A 
ATOM     26  C   UNL     1       7.074   4.612  15.322  0.00  0.00    +0.000 A 
ATOM     27  C   UNL     1       5.764   4.454  14.883  0.00  0.00    +0.000 A 
ATOM     28  C   UNL     1       4.728   4.312  15.811  0.00  0.00    +0.000 A 
ENDBRANCH  19  23
ENDBRANCH  18  19
ENDBRANCH   3  18
TORSDOF 7
ENDMDL
MODEL 7
REMARK VINA RESULT:      -7.8      4.227      6.276
REMARK  Name = 
REMARK  7 active torsions:
REMARK  status: ('A' for Active; 'I' for Inactive)
REMARK    1  A    between atoms: C_2  and  C_3
REMARK    2  A    between atoms: C_3  and  C_4
REMARK    3  A    between atoms: C_4  and  C_5
REMARK    4  A    between atoms: C_7  and  C_8
REMARK    5  A    between atoms: N_16  and  C_17
REMARK    6  A    between atoms: C_17  and  C_18
REMARK    7  A    between atoms: C_18  and  C_19
REMARK                            x       y       z     vdW  Elec       q    Type
REMARK                         _______ _______ _______ _____ _____    ______ ____
ROOT
ATOM      1  O   UNL     1       2.231   9.813  17.246  0.00  0.00    +0.000 OA
ATOM      2  C   UNL     1       1.838   9.159  18.207  0.00  0.00    +0.000 C 
ATOM      3  N   UNL     1       2.365   7.936  18.561  0.00  0.00    +0.000 N 
ATOM      4  H   UNL     1       1.899   7.409  19.287  0.00  0.00    +0.000 HD
ENDROOT
BRANCH   2   5
ATOM      5  C   UNL     1       0.758   9.655  19.147  0.00  0.00    +0.000 C 
BRANCH   5   6
ATOM      6  C   UNL     1       0.838   8.961  20.501  0.00  0.00    +0.000 C 
BRANCH   6   7
ATOM      7  C   UNL     1       0.168   9.758  21.556  0.00  0.00    +0.000 A 
ATOM      8  N   UNL     1      -0.547  10.855  21.440  0.00  0.00    +0.000 NA
ATOM      9  C   UNL     1      -0.865  11.138  22.753  0.00  0.00    +0.000 A 
ATOM     10  N   UNL     1      -0.372  10.254  23.637  0.00  0.00    +0.000 NA
ATOM     11  O   UNL     1       0.316   9.341  22.842  0.00  0.00    +0.000 OA
BRANCH   9  12
ATOM     12  C   UNL     1      -1.669  12.290  23.126  0.00  0.00    +0.000 A 
ATOM     13  C   UNL     1      -1.122  13.571  23.251  0.00  0.00    +0.000 A 
ATOM     14  C   UNL     1      -1.934  14.642  23.625  0.00  0.00    +0.000 A 
ATOM     15  C   UNL     1      -3.276  14.393  23.864  0.00  0.00    +0.000 A 
ATOM     16  N   UNL     1      -3.845  13.174  23.749  0.00  0.00    +0.000 NA
ATOM     17  C   UNL     1      -3.028  12.154  23.384  0.00  0.00    +0.000 A 
ENDBRANCH   9  12
ENDBRANCH   6   7
ENDBRANCH   5   6
ENDBRANCH   2   5
BRANCH   3  18
ATOM     18  C   UNL     1       3.359   7.287  17.721  0.00  0.00    +0.000 C 
BRANCH  18  19
ATOM     19  C   UNL     1       3.527   5.803  18.089  0.00  0.00    +0.000 C 
ATOM     20  C   UNL     1       2.262   4.868  17.914  0.00  0.00    +0.000 C 
ATOM     21  C   UNL     1       2.656   4.177  19.233  0.00  0.00    +0.000 C 
ATOM     22  C   UNL     1       3.407   5.460  19.627  0.00  0.00    +0.000 C 
BRANCH  19  23
ATOM     23  C   UNL     1       4.883   5.259  17.351  0.00  0.00    +0.000 A 
ATOM     24  C   UNL     1       4.905   4.926  15.981  0.00  0.00    +0.000 A 
ATOM     25  C   UNL     1       6.074   4.516  15.333  0.00  0.00    +0.000 A 
ATOM     26  C   UNL     1       7.262   4.409  16.043  0.00  0.00    +0.000 A 
ATOM     27  C   UNL     1       7.275   4.689  17.404  0.00  0.00    +0.000 A 
ATOM     28  C   UNL     1       6.102   5.099  18.045  0.00  0.00    +0.000 A 
ENDBRANCH  19  23
ENDBRANCH  18  19
ENDBRANCH   3  18
TORSDOF 7
ENDMDL
MODEL 8
REMARK VINA RESULT:      -7.8      3.826      5.874
REMARK  Name = 
REMARK  7 active torsions:
REMARK  status: ('A' for Active; 'I' for Inactive)
REMARK    1  A    between atoms: C_2  and  C_3
REMARK    2  A    between atoms: C_3  and  C_4
REMARK    3  A    between atoms: C_4  and  C_5
REMARK    4  A    between atoms: C_7  and  C_8
REMARK    5  A    between atoms: N_16  and  C_17
REMARK    6  A    between atoms: C_17  and  C_18
REMARK    7  A    between atoms: C_18  and  C_19
REMARK                            x       y       z     vdW  Elec       q    Type
REMARK                         _______ _______ _______ _____ _____    ______ ____
ROOT
ATOM      1  O   UNL     1       4.030   7.522  17.574  0.00  0.00    +0.000 OA
ATOM      2  C   UNL     1       2.921   7.381  18.080  0.00  0.00    +0.000 C 
ATOM      3  N   UNL     1       2.624   6.398  18.999  0.00  0.00    +0.000 N 
ATOM      4  H   UNL     1       1.657   6.274  19.268  0.00  0.00    +0.000 HD
ENDROOT
BRANCH   2   5
ATOM      5  C   UNL     1       1.764   8.315  17.787  0.00  0.00    +0.000 C 
BRANCH   5   6
ATOM      6  C   UNL     1       1.868   9.600  18.599  0.00  0.00    +0.000 C 
BRANCH   6   7
ATOM      7  C   UNL     1       0.541  10.239  18.768  0.00  0.00    +0.000 A 
ATOM      8  N   UNL     1      -0.502  10.213  17.968  0.00  0.00    +0.000 NA
ATOM      9  C   UNL     1      -1.407  11.009  18.639  0.00  0.00    +0.000 A 
ATOM     10  N   UNL     1      -0.946  11.499  19.803  0.00  0.00    +0.000 NA
ATOM     11  O   UNL     1       0.347  10.991  19.885  0.00  0.00    +0.000 OA
BRANCH   9  12
ATOM     12  C   UNL     1      -2.739  11.275  18.123  0.00  0.00    +0.000 A 
ATOM     13  C   UNL     1      -3.747  11.834  18.915  0.00  0.00    +0.000 A 
ATOM     14  C   UNL     1      -5.014  12.057  18.375  0.00  0.00    +0.000 A 
ATOM     15  C   UNL     1      -5.232  11.709  17.051  0.00  0.00    +0.000 A 
ATOM     16  N   UNL     1      -4.286  11.174  16.251  0.00  0.00    +0.000 NA
ATOM     17  C   UNL     1      -3.065  10.969  16.806  0.00  0.00    +0.000 A 
ENDBRANCH   9  12
ENDBRANCH   6   7
ENDBRANCH   5   6
ENDBRANCH   2   5
BRANCH   3  18
ATOM     18  C   UNL     1       3.604   5.377  19.334  0.00  0.00    +0.000 C 
BRANCH  18  19
ATOM     19  C   UNL     1       3.545   4.195  18.352  0.00  0.00    +0.000 C 
ATOM     20  C   UNL     1       2.171   3.940  17.610  0.00  0.00    +0.000 C 
ATOM     21  C   UNL     1       2.406   2.430  17.808  0.00  0.00    +0.000 C 
ATOM     22  C   UNL     1       3.310   2.774  19.003  0.00  0.00    +0.000 C 
BRANCH  19  23
ATOM     23  C   UNL     1       4.844   4.308  17.362  0.00  0.00    +0.000 A 
ATOM     24  C   UNL     1       4.717   4.275  15.958  0.00  0.00    +0.000 A 
ATOM     25  C   UNL     1       5.815   4.428  15.106  0.00  0.00    +0.000 A 
ATOM     26  C   UNL     1       7.086   4.603  15.636  0.00  0.00    +0.000 A 
ATOM     27  C   UNL     1       7.261   4.601  17.015  0.00  0.00    +0.000 A 
ATOM     28  C   UNL     1       6.157   4.448  17.860  0.00  0.00    +0.000 A 
ENDBRANCH  19  23
ENDBRANCH  18  19
ENDBRANCH   3  18
TORSDOF 7
ENDMDL
MODEL 9
REMARK VINA RESULT:      -7.8      4.385      6.582
REMARK  Name = 
REMARK  7 active torsions:
REMARK  status: ('A' for Active; 'I' for Inactive)
REMARK    1  A    between atoms: C_2  and  C_3
REMARK    2  A    between atoms: C_3  and  C_4
REMARK    3  A    between atoms: C_4  and  C_5
REMARK    4  A    between atoms: C_7  and  C_8
REMARK    5  A    between atoms: N_16  and  C_17
REMARK    6  A    between atoms: C_17  and  C_18
REMARK    7  A    between atoms: C_18  and  C_19
REMARK                            x       y       z     vdW  Elec       q    Type
REMARK                         _______ _______ _______ _____ _____    ______ ____
ROOT
ATOM      1  O   UNL     1       1.648   8.240  20.267  0.00  0.00    +0.000 OA
ATOM      2  C   UNL     1       1.930   8.182  19.075  0.00  0.00    +0.000 C 
ATOM      3  N   UNL     1       2.599   7.121  18.502  0.00  0.00    +0.000 N 
ATOM      4  H   UNL     1       2.902   7.212  17.542  0.00  0.00    +0.000 HD
ENDROOT
BRANCH   2   5
ATOM      5  C   UNL     1       1.523   9.255  18.085  0.00  0.00    +0.000 C 
BRANCH   5   6
ATOM      6  C   UNL     1       0.829  10.418  18.781  0.00  0.00    +0.000 C 
BRANCH   6   7
ATOM      7  C   UNL     1      -0.580  10.547  18.338  0.00  0.00    +0.000 A 
ATOM      8  N   UNL     1      -1.511  11.373  18.760  0.00  0.00    +0.000 NA
ATOM      9  C   UNL     1      -2.604  10.994  18.007  0.00  0.00    +0.000 A 
ATOM     10  N   UNL     1      -2.357   9.983  17.156  0.00  0.00    +0.000 NA
ATOM     11  O   UNL     1      -1.015   9.686  17.379  0.00  0.00    +0.000 OA
BRANCH   9  12
ATOM     12  C   UNL     1      -3.896  11.647  18.132  0.00  0.00    +0.000 A 
ATOM     13  C   UNL     1      -4.343  12.191  19.340  0.00  0.00    +0.000 A 
ATOM     14  C   UNL     1      -5.598  12.795  19.410  0.00  0.00    +0.000 A 
ATOM     15  C   UNL     1      -6.371  12.835  18.260  0.00  0.00    +0.000 A 
ATOM     16  N   UNL     1      -5.976  12.327  17.074  0.00  0.00    +0.000 NA
ATOM     17  C   UNL     1      -4.751  11.746  17.038  0.00  0.00    +0.000 A 
ENDBRANCH   9  12
ENDBRANCH   6   7
ENDBRANCH   5   6
ENDBRANCH   2   5
BRANCH   3  18
ATOM     18  C   UNL     1       3.122   6.043  19.327  0.00  0.00    +0.000 C 
BRANCH  18  19
ATOM     19  C   UNL     1       3.187   4.718  18.549  0.00  0.00    +0.000 C 
ATOM     20  C   UNL     1       1.930   4.336  17.667  0.00  0.00    +0.000 C 
ATOM     21  C   UNL     1       2.111   2.880  18.136  0.00  0.00    +0.000 C 
ATOM     22  C   UNL     1       2.840   3.419  19.378  0.00  0.00    +0.000 C 
BRANCH  19  23
ATOM     23  C   UNL     1       4.616   4.682  17.751  0.00  0.00    +0.000 A 
ATOM     24  C   UNL     1       5.850   4.760  18.429  0.00  0.00    +0.000 A 
ATOM     25  C   UNL     1       7.075   4.672  17.759  0.00  0.00    +0.000 A 
ATOM     26  C   UNL     1       7.103   4.520  16.379  0.00  0.00    +0.000 A 
ATOM     27  C   UNL     1       5.909   4.478  15.669  0.00  0.00    +0.000 A 
ATOM     28  C   UNL     1       4.689   4.566  16.347  0.00  0.00    +0.000 A 
ENDBRANCH  19  23
ENDBRANCH  18  19
ENDBRANCH   3  18
TORSDOF 7
ENDMDL
