MODEL 1
REMARK VINA RESULT:      -8.9      0.000      0.000
REMARK  Name = 
REMARK  3 active torsions:
REMARK  status: ('A' for Active; 'I' for Inactive)
REMARK    1  A    between atoms: C_2  and  C_14
REMARK    2  A    between atoms: N_3  and  C_4
REMARK    3  A    between atoms: C_14  and  C_15
REMARK                            x       y       z     vdW  Elec       q    Type
REMARK                         _______ _______ _______ _____ _____    ______ ____
ROOT
ATOM      1  C   UNL     1       2.647   4.100  19.524  0.00  0.00    +0.000 C 
ATOM      2  C   UNL     1       2.212   3.221  20.728  0.00  0.00    +0.000 C 
ATOM      3  C   UNL     1       0.757   2.828  20.467  0.00  0.00    +0.000 C 
ATOM      4  C   UNL     1       0.542   2.969  18.967  0.00  0.00    +0.000 C 
ATOM      5  C   UNL     1       1.908   3.320  18.399  0.00  0.00    +0.000 C 
ENDROOT
BRANCH   1   6
ATOM      6  C   UNL     1       2.237   5.583  19.666  0.00  0.00    +0.000 A 
ATOM      7  C   UNL     1       1.701   6.090  20.865  0.00  0.00    +0.000 A 
ATOM      8  C   UNL     1       1.318   7.432  20.988  0.00  0.00    +0.000 A 
ATOM      9  C   UNL     1       1.433   8.295  19.905  0.00  0.00    +0.000 A 
ATOM     10  C   UNL     1       1.965   7.823  18.705  0.00  0.00    +0.000 A 
ATOM     11  C   UNL     1       2.344   6.481  18.584  0.00  0.00    +0.000 A 
ATOM     12  O   UNL     1       2.129   8.614  17.596  0.00  0.00    +0.000 OA
ATOM     13  C   UNL     1       1.975  10.006  17.906  0.00  0.00    +0.000 C 
ATOM     14  C   UNL     1       0.785  10.230  18.824  0.00  0.00    +0.000 C 
ATOM     15  O   UNL     1       0.998   9.582  20.084  0.00  0.00    +0.000 OA
ENDBRANCH   1   6
BRANCH   1  17
ATOM     16  O   UNL     1       4.880   3.138  19.757  0.00  0.00    +0.000 OA
ATOM     17  C   UNL     1       4.162   3.977  19.217  0.00  0.00    +0.000 C 
ATOM     18  N   UNL     1       4.655   4.849  18.277  0.00  0.00    +0.000 N 
ATOM     19  H   UNL     1       4.035   5.505  17.823  0.00  0.00    +0.000 HD
BRANCH  18  20
ATOM     20  C   UNL     1       6.076   4.940  17.955  0.00  0.00    +0.000 C 
ATOM     21  C   UNL     1       6.618   6.325  18.326  0.00  0.00    +0.000 C 
ATOM     22  C   UNL     1       7.950   6.534  17.628  0.00  0.00    +0.000 C 
ATOM     23  O   UNL     1       7.779   6.575  16.208  0.00  0.00    +0.000 OA
ATOM     24  C   UNL     1       7.073   5.515  15.702  0.00  0.00    +0.000 A 
ATOM     25  C   UNL     1       7.149   5.330  14.321  0.00  0.00    +0.000 A 
ATOM     26  C   UNL     1       6.473   4.268  13.721  0.00  0.00    +0.000 A 
ATOM     27  C   UNL     1       5.749   3.371  14.500  0.00  0.00    +0.000 A 
ATOM     28  C   UNL     1       5.663   3.563  15.879  0.00  0.00    +0.000 A 
ATOM     29  C   UNL     1       6.282   4.669  16.484  0.00  0.00    +0.000 A 
ENDBRANCH  18  20
ENDBRANCH   1  17
TORSDOF 3
ENDMDL
MODEL 2
REMARK VINA RESULT:      -8.7      0.765      1.519
REMARK  Name = 
REMARK  3 active torsions:
REMARK  status: ('A' for Active; 'I' for Inactive)
REMARK    1  A    between atoms: C_2  and  C_14
REMARK    2  A    between atoms: N_3  and  C_4
REMARK    3  A    between atoms: C_14  and  C_15
REMARK                            x       y       z     vdW  Elec       q    Type
REMARK                         _______ _______ _______ _____ _____    ______ ____
ROOT
ATOM      1  C   UNL     1       2.731   4.180  19.715  0.00  0.00    +0.000 C 
ATOM      2  C   UNL     1       2.396   3.519  21.080  0.00  0.00    +0.000 C 
ATOM      3  C   UNL     1       0.945   3.046  20.981  0.00  0.00    +0.000 C 
ATOM      4  C   UNL     1       0.643   2.911  19.495  0.00  0.00    +0.000 C 
ATOM      5  C   UNL     1       1.962   3.192  18.793  0.00  0.00    +0.000 C 
ENDROOT
BRANCH   1   6
ATOM      6  C   UNL     1       2.275   5.652  19.617  0.00  0.00    +0.000 A 
ATOM      7  C   UNL     1       2.326   6.363  18.403  0.00  0.00    +0.000 A 
ATOM      8  C   UNL     1       1.924   7.703  18.318  0.00  0.00    +0.000 A 
ATOM      9  C   UNL     1       1.490   8.376  19.453  0.00  0.00    +0.000 A 
ATOM     10  C   UNL     1       1.423   7.698  20.670  0.00  0.00    +0.000 A 
ATOM     11  C   UNL     1       1.829   6.361  20.753  0.00  0.00    +0.000 A 
ATOM     12  O   UNL     1       0.988   8.284  21.832  0.00  0.00    +0.000 OA
ATOM     13  C   UNL     1       0.347   9.543  21.587  0.00  0.00    +0.000 C 
ATOM     14  C   UNL     1       1.129  10.363  20.574  0.00  0.00    +0.000 C 
ATOM     15  O   UNL     1       1.154   9.697  19.306  0.00  0.00    +0.000 OA
ENDBRANCH   1   6
BRANCH   1  17
ATOM     16  O   UNL     1       4.941   3.139  19.779  0.00  0.00    +0.000 OA
ATOM     17  C   UNL     1       4.231   4.045  19.344  0.00  0.00    +0.000 C 
ATOM     18  N   UNL     1       4.719   4.986  18.471  0.00  0.00    +0.000 N 
ATOM     19  H   UNL     1       4.104   5.698  18.103  0.00  0.00    +0.000 HD
BRANCH  18  20
ATOM     20  C   UNL     1       6.131   5.069  18.108  0.00  0.00    +0.000 C 
ATOM     21  C   UNL     1       6.680   6.465  18.420  0.00  0.00    +0.000 C 
ATOM     22  C   UNL     1       7.992   6.653  17.681  0.00  0.00    +0.000 C 
ATOM     23  O   UNL     1       7.783   6.648  16.265  0.00  0.00    +0.000 OA
ATOM     24  C   UNL     1       7.066   5.573  15.812  0.00  0.00    +0.000 A 
ATOM     25  C   UNL     1       7.105   5.345  14.437  0.00  0.00    +0.000 A 
ATOM     26  C   UNL     1       6.414   4.263  13.888  0.00  0.00    +0.000 A 
ATOM     27  C   UNL     1       5.713   3.391  14.715  0.00  0.00    +0.000 A 
ATOM     28  C   UNL     1       5.664   3.626  16.089  0.00  0.00    +0.000 A 
ATOM     29  C   UNL     1       6.297   4.751  16.642  0.00  0.00    +0.000 A 
ENDBRANCH  18  20
ENDBRANCH   1  17
TORSDOF 3
ENDMDL
MODEL 3
REMARK VINA RESULT:      -8.2      2.053      7.182
REMARK  Name = 
REMARK  3 active torsions:
REMARK  status: ('A' for Active; 'I' for Inactive)
REMARK    1  A    between atoms: C_2  and  C_14
REMARK    2  A    between atoms: N_3  and  C_4
REMARK    3  A    between atoms: C_14  and  C_15
REMARK                            x       y       z     vdW  Elec       q    Type
REMARK                         _______ _______ _______ _____ _____    ______ ____
ROOT
ATOM      1  C   UNL     1       2.567   5.963  18.948  0.00  0.00    +0.000 C 
ATOM      2  C   UNL     1       1.341   5.212  18.360  0.00  0.00    +0.000 C 
ATOM      3  C   UNL     1       1.280   3.864  19.081  0.00  0.00    +0.000 C 
ATOM      4  C   UNL     1       2.041   4.047  20.386  0.00  0.00    +0.000 C 
ATOM      5  C   UNL     1       2.411   5.521  20.430  0.00  0.00    +0.000 C 
ENDROOT
BRANCH   1   6
ATOM      6  C   UNL     1       3.906   5.566  18.286  0.00  0.00    +0.000 A 
ATOM      7  C   UNL     1       5.113   5.550  19.011  0.00  0.00    +0.000 A 
ATOM      8  C   UNL     1       6.328   5.203  18.407  0.00  0.00    +0.000 A 
ATOM      9  C   UNL     1       6.373   4.891  17.054  0.00  0.00    +0.000 A 
ATOM     10  C   UNL     1       5.193   4.893  16.309  0.00  0.00    +0.000 A 
ATOM     11  C   UNL     1       3.981   5.244  16.915  0.00  0.00    +0.000 A 
ATOM     12  O   UNL     1       5.148   4.578  14.974  0.00  0.00    +0.000 OA
ATOM     13  C   UNL     1       6.370   3.976  14.527  0.00  0.00    +0.000 C 
ATOM     14  C   UNL     1       7.576   4.709  15.091  0.00  0.00    +0.000 C 
ATOM     15  O   UNL     1       7.602   4.604  16.519  0.00  0.00    +0.000 OA
ENDBRANCH   1   6
BRANCH   1  17
ATOM     16  O   UNL     1       3.020   8.237  18.177  0.00  0.00    +0.000 OA
ATOM     17  C   UNL     1       2.383   7.502  18.931  0.00  0.00    +0.000 C 
ATOM     18  N   UNL     1       1.439   8.002  19.794  0.00  0.00    +0.000 N 
ATOM     19  H   UNL     1       0.906   7.373  20.378  0.00  0.00    +0.000 HD
BRANCH  18  20
ATOM     20  C   UNL     1       1.222   9.434  19.983  0.00  0.00    +0.000 C 
ATOM     21  C   UNL     1       1.028   9.752  21.470  0.00  0.00    +0.000 C 
ATOM     22  C   UNL     1       0.415  11.134  21.601  0.00  0.00    +0.000 C 
ATOM     23  O   UNL     1      -0.903  11.159  21.044  0.00  0.00    +0.000 OA
ATOM     24  C   UNL     1      -0.980  10.662  19.771  0.00  0.00    +0.000 A 
ATOM     25  C   UNL     1      -2.150  10.951  19.068  0.00  0.00    +0.000 A 
ATOM     26  C   UNL     1      -2.308  10.495  17.759  0.00  0.00    +0.000 A 
ATOM     27  C   UNL     1      -1.288   9.780  17.140  0.00  0.00    +0.000 A 
ATOM     28  C   UNL     1      -0.124   9.480  17.846  0.00  0.00    +0.000 A 
ATOM     29  C   UNL     1       0.017   9.873  19.187  0.00  0.00    +0.000 A 
ENDBRANCH  18  20
ENDBRANCH   1  17
TORSDOF 3
ENDMDL
MODEL 4
REMARK VINA RESULT:      -8.0      2.113      6.615
REMARK  Name = 
REMARK  3 active torsions:
REMARK  status: ('A' for Active; 'I' for Inactive)
REMARK    1  A    between atoms: C_2  and  C_14
REMARK    2  A    between atoms: N_3  and  C_4
REMARK    3  A    between atoms: C_14  and  C_15
REMARK                            x       y       z     vdW  Elec       q    Type
REMARK                         _______ _______ _______ _____ _____    ______ ____
ROOT
ATOM      1  C   UNL     1       1.879   5.034  20.363  0.00  0.00    +0.000 C 
ATOM      2  C   UNL     1       0.816   4.026  19.847  0.00  0.00    +0.000 C 
ATOM      3  C   UNL     1       1.335   2.634  20.209  0.00  0.00    +0.000 C 
ATOM      4  C   UNL     1       2.319   2.834  21.354  0.00  0.00    +0.000 C 
ATOM      5  C   UNL     1       2.244   4.314  21.692  0.00  0.00    +0.000 C 
ENDROOT
BRANCH   1   6
ATOM      6  C   UNL     1       3.059   5.237  19.387  0.00  0.00    +0.000 A 
ATOM      7  C   UNL     1       2.852   5.596  18.042  0.00  0.00    +0.000 A 
ATOM      8  C   UNL     1       3.922   5.767  17.154  0.00  0.00    +0.000 A 
ATOM      9  C   UNL     1       5.227   5.554  17.582  0.00  0.00    +0.000 A 
ATOM     10  C   UNL     1       5.465   5.202  18.910  0.00  0.00    +0.000 A 
ATOM     11  C   UNL     1       4.393   5.028  19.794  0.00  0.00    +0.000 A 
ATOM     12  O   UNL     1       6.723   4.992  19.416  0.00  0.00    +0.000 OA
ATOM     13  C   UNL     1       7.742   5.458  18.522  0.00  0.00    +0.000 C 
ATOM     14  C   UNL     1       7.429   5.063  17.088  0.00  0.00    +0.000 C 
ATOM     15  O   UNL     1       6.221   5.696  16.649  0.00  0.00    +0.000 OA
ENDBRANCH   1   6
BRANCH   1  17
ATOM     16  O   UNL     1       0.053   6.542  20.965  0.00  0.00    +0.000 OA
ATOM     17  C   UNL     1       1.258   6.398  20.763  0.00  0.00    +0.000 C 
ATOM     18  N   UNL     1       2.141   7.439  20.907  0.00  0.00    +0.000 N 
ATOM     19  H   UNL     1       3.130   7.284  20.768  0.00  0.00    +0.000 HD
BRANCH  18  20
ATOM     20  C   UNL     1       1.709   8.810  21.169  0.00  0.00    +0.000 C 
ATOM     21  C   UNL     1       0.857   8.866  22.441  0.00  0.00    +0.000 C 
ATOM     22  C   UNL     1       0.101  10.182  22.468  0.00  0.00    +0.000 C 
ATOM     23  O   UNL     1      -0.840  10.250  21.392  0.00  0.00    +0.000 OA
ATOM     24  C   UNL     1      -0.301   9.970  20.164  0.00  0.00    +0.000 A 
ATOM     25  C   UNL     1      -1.074  10.328  19.059  0.00  0.00    +0.000 A 
ATOM     26  C   UNL     1      -0.599  10.093  17.768  0.00  0.00    +0.000 A 
ATOM     27  C   UNL     1       0.660   9.532  17.579  0.00  0.00    +0.000 A 
ATOM     28  C   UNL     1       1.427   9.162  18.683  0.00  0.00    +0.000 A 
ATOM     29  C   UNL     1       0.928   9.330  19.986  0.00  0.00    +0.000 A 
ENDBRANCH  18  20
ENDBRANCH   1  17
TORSDOF 3
ENDMDL
MODEL 5
REMARK VINA RESULT:      -7.8      2.994      5.988
REMARK  Name = 
REMARK  3 active torsions:
REMARK  status: ('A' for Active; 'I' for Inactive)
REMARK    1  A    between atoms: C_2  and  C_14
REMARK    2  A    between atoms: N_3  and  C_4
REMARK    3  A    between atoms: C_14  and  C_15
REMARK                            x       y       z     vdW  Elec       q    Type
REMARK                         _______ _______ _______ _____ _____    ______ ____
ROOT
ATOM      1  C   UNL     1       0.340   9.539  20.494  0.00  0.00    +0.000 C 
ATOM      2  C   UNL     1       0.941  10.563  21.495  0.00  0.00    +0.000 C 
ATOM      3  C   UNL     1      -0.055  10.666  22.651  0.00  0.00    +0.000 C 
ATOM      4  C   UNL     1      -0.876   9.384  22.618  0.00  0.00    +0.000 C 
ATOM      5  C   UNL     1      -0.248   8.534  21.525  0.00  0.00    +0.000 C 
ENDROOT
BRANCH   1   6
ATOM      6  C   UNL     1      -0.693  10.159  19.527  0.00  0.00    +0.000 A 
ATOM      7  C   UNL     1      -1.395  11.336  19.850  0.00  0.00    +0.000 A 
ATOM      8  C   UNL     1      -2.342  11.890  18.978  0.00  0.00    +0.000 A 
ATOM      9  C   UNL     1      -2.633  11.264  17.773  0.00  0.00    +0.000 A 
ATOM     10  C   UNL     1      -1.951  10.099  17.422  0.00  0.00    +0.000 A 
ATOM     11  C   UNL     1      -1.009   9.546  18.296  0.00  0.00    +0.000 A 
ATOM     12  O   UNL     1      -2.166   9.431  16.242  0.00  0.00    +0.000 OA
ATOM     13  C   UNL     1      -2.930  10.216  15.317  0.00  0.00    +0.000 C 
ATOM     14  C   UNL     1      -4.089  10.907  16.016  0.00  0.00    +0.000 C 
ATOM     15  O   UNL     1      -3.601  11.837  16.989  0.00  0.00    +0.000 OA
ENDBRANCH   1   6
BRANCH   1  17
ATOM     16  O   UNL     1       1.891   9.174  18.641  0.00  0.00    +0.000 OA
ATOM     17  C   UNL     1       1.431   8.768  19.708  0.00  0.00    +0.000 C 
ATOM     18  N   UNL     1       1.880   7.607  20.288  0.00  0.00    +0.000 N 
ATOM     19  H   UNL     1       1.510   7.315  21.182  0.00  0.00    +0.000 HD
BRANCH  18  20
ATOM     20  C   UNL     1       2.821   6.706  19.628  0.00  0.00    +0.000 C 
ATOM     21  C   UNL     1       3.106   7.187  18.201  0.00  0.00    +0.000 C 
ATOM     22  C   UNL     1       3.742   6.053  17.418  0.00  0.00    +0.000 C 
ATOM     23  O   UNL     1       2.824   4.966  17.263  0.00  0.00    +0.000 OA
ATOM     24  C   UNL     1       2.252   4.549  18.435  0.00  0.00    +0.000 A 
ATOM     25  C   UNL     1       1.610   3.311  18.399  0.00  0.00    +0.000 A 
ATOM     26  C   UNL     1       1.011   2.801  19.551  0.00  0.00    +0.000 A 
ATOM     27  C   UNL     1       1.081   3.508  20.746  0.00  0.00    +0.000 A 
ATOM     28  C   UNL     1       1.711   4.752  20.780  0.00  0.00    +0.000 A 
ATOM     29  C   UNL     1       2.256   5.306  19.610  0.00  0.00    +0.000 A 
ENDBRANCH  18  20
ENDBRANCH   1  17
TORSDOF 3
ENDMDL
MODEL 6
REMARK VINA RESULT:      -7.8      2.788      5.792
REMARK  Name = 
REMARK  3 active torsions:
REMARK  status: ('A' for Active; 'I' for Inactive)
REMARK    1  A    between atoms: C_2  and  C_14
REMARK    2  A    between atoms: N_3  and  C_4
REMARK    3  A    between atoms: C_14  and  C_15
REMARK                            x       y       z     vdW  Elec       q    Type
REMARK                         _______ _______ _______ _____ _____    ______ ____
ROOT
ATOM      1  C   UNL     1       0.854   9.127  20.889  0.00  0.00    +0.000 C 
ATOM      2  C   UNL     1       1.494   9.256  22.298  0.00  0.00    +0.000 C 
ATOM      3  C   UNL     1       0.334   9.405  23.284  0.00  0.00    +0.000 C 
ATOM      4  C   UNL     1      -0.889   8.823  22.589  0.00  0.00    +0.000 C 
ATOM      5  C   UNL     1      -0.371   8.251  21.279  0.00  0.00    +0.000 C 
ENDROOT
BRANCH   1   6
ATOM      6  C   UNL     1       0.503  10.487  20.247  0.00  0.00    +0.000 A 
ATOM      7  C   UNL     1      -0.458  10.597  19.224  0.00  0.00    +0.000 A 
ATOM      8  C   UNL     1      -0.765  11.829  18.633  0.00  0.00    +0.000 A 
ATOM      9  C   UNL     1      -0.097  12.981  19.029  0.00  0.00    +0.000 A 
ATOM     10  C   UNL     1       0.857  12.906  20.044  0.00  0.00    +0.000 A 
ATOM     11  C   UNL     1       1.165  11.673  20.630  0.00  0.00    +0.000 A 
ATOM     12  O   UNL     1       1.547  13.999  20.506  0.00  0.00    +0.000 OA
ATOM     13  C   UNL     1       0.970  15.228  20.045  0.00  0.00    +0.000 C 
ATOM     14  C   UNL     1       0.597  15.136  18.574  0.00  0.00    +0.000 C 
ATOM     15  O   UNL     1      -0.417  14.144  18.378  0.00  0.00    +0.000 OA
ENDBRANCH   1   6
BRANCH   1  17
ATOM     16  O   UNL     1       1.835   8.541  18.730  0.00  0.00    +0.000 OA
ATOM     17  C   UNL     1       1.712   8.270  19.924  0.00  0.00    +0.000 C 
ATOM     18  N   UNL     1       2.357   7.196  20.488  0.00  0.00    +0.000 N 
ATOM     19  H   UNL     1       2.265   7.017  21.478  0.00  0.00    +0.000 HD
BRANCH  18  20
ATOM     20  C   UNL     1       3.112   6.226  19.700  0.00  0.00    +0.000 C 
ATOM     21  C   UNL     1       3.328   6.749  18.275  0.00  0.00    +0.000 C 
ATOM     22  C   UNL     1       3.740   5.592  17.384  0.00  0.00    +0.000 C 
ATOM     23  O   UNL     1       2.681   4.637  17.268  0.00  0.00    +0.000 OA
ATOM     24  C   UNL     1       2.167   4.227  18.470  0.00  0.00    +0.000 A 
ATOM     25  C   UNL     1       1.371   3.081  18.438  0.00  0.00    +0.000 A 
ATOM     26  C   UNL     1       0.817   2.584  19.618  0.00  0.00    +0.000 A 
ATOM     27  C   UNL     1       1.083   3.208  20.833  0.00  0.00    +0.000 A 
ATOM     28  C   UNL     1       1.868   4.360  20.863  0.00  0.00    +0.000 A 
ATOM     29  C   UNL     1       2.373   4.909  19.673  0.00  0.00    +0.000 A 
ENDBRANCH  18  20
ENDBRANCH   1  17
TORSDOF 3
ENDMDL
MODEL 7
REMARK VINA RESULT:      -7.6      1.078      2.217
REMARK  Name = 
REMARK  3 active torsions:
REMARK  status: ('A' for Active; 'I' for Inactive)
REMARK    1  A    between atoms: C_2  and  C_14
REMARK    2  A    between atoms: N_3  and  C_4
REMARK    3  A    between atoms: C_14  and  C_15
REMARK                            x       y       z     vdW  Elec       q    Type
REMARK                         _______ _______ _______ _____ _____    ______ ____
ROOT
ATOM      1  C   UNL     1       2.579   4.534  19.323  0.00  0.00    +0.000 C 
ATOM      2  C   UNL     1       2.723   3.682  20.614  0.00  0.00    +0.000 C 
ATOM      3  C   UNL     1       1.314   3.207  20.971  0.00  0.00    +0.000 C 
ATOM      4  C   UNL     1       0.503   3.278  19.685  0.00  0.00    +0.000 C 
ATOM      5  C   UNL     1       1.499   3.674  18.606  0.00  0.00    +0.000 C 
ENDROOT
BRANCH   1   6
ATOM      6  C   UNL     1       2.171   5.999  19.595  0.00  0.00    +0.000 A 
ATOM      7  C   UNL     1       1.665   6.405  20.844  0.00  0.00    +0.000 A 
ATOM      8  C   UNL     1       1.282   7.732  21.085  0.00  0.00    +0.000 A 
ATOM      9  C   UNL     1       1.369   8.679  20.073  0.00  0.00    +0.000 A 
ATOM     10  C   UNL     1       1.871   8.309  18.826  0.00  0.00    +0.000 A 
ATOM     11  C   UNL     1       2.249   6.983  18.586  0.00  0.00    +0.000 A 
ATOM     12  O   UNL     1       2.006   9.188  17.781  0.00  0.00    +0.000 OA
ATOM     13  C   UNL     1       1.857  10.549  18.206  0.00  0.00    +0.000 C 
ATOM     14  C   UNL     1       0.691  10.694  19.169  0.00  0.00    +0.000 C 
ATOM     15  O   UNL     1       0.936   9.947  20.366  0.00  0.00    +0.000 OA
ENDBRANCH   1   6
BRANCH   1  17
ATOM     16  O   UNL     1       4.948   4.145  18.865  0.00  0.00    +0.000 OA
ATOM     17  C   UNL     1       3.845   4.475  18.430  0.00  0.00    +0.000 C 
ATOM     18  N   UNL     1       3.660   4.788  17.105  0.00  0.00    +0.000 N 
ATOM     19  H   UNL     1       2.737   5.022  16.768  0.00  0.00    +0.000 HD
BRANCH  18  20
ATOM     20  C   UNL     1       4.765   4.890  16.156  0.00  0.00    +0.000 C 
ATOM     21  C   UNL     1       5.495   3.548  16.042  0.00  0.00    +0.000 C 
ATOM     22  C   UNL     1       6.845   3.776  15.388  0.00  0.00    +0.000 C 
ATOM     23  O   UNL     1       7.684   4.581  16.222  0.00  0.00    +0.000 OA
ATOM     24  C   UNL     1       7.096   5.742  16.648  0.00  0.00    +0.000 A 
ATOM     25  C   UNL     1       7.952   6.704  17.185  0.00  0.00    +0.000 A 
ATOM     26  C   UNL     1       7.441   7.922  17.632  0.00  0.00    +0.000 A 
ATOM     27  C   UNL     1       6.082   8.196  17.514  0.00  0.00    +0.000 A 
ATOM     28  C   UNL     1       5.224   7.230  16.990  0.00  0.00    +0.000 A 
ATOM     29  C   UNL     1       5.718   5.974  16.602  0.00  0.00    +0.000 A 
ENDBRANCH  18  20
ENDBRANCH   1  17
TORSDOF 3
ENDMDL
MODEL 8
REMARK VINA RESULT:      -7.6      2.863      5.932
REMARK  Name = 
REMARK  3 active torsions:
REMARK  status: ('A' for Active; 'I' for Inactive)
REMARK    1  A    between atoms: C_2  and  C_14
REMARK    2  A    between atoms: N_3  and  C_4
REMARK    3  A    between atoms: C_14  and  C_15
REMARK                            x       y       z     vdW  Elec       q    Type
REMARK                         _______ _______ _______ _____ _____    ______ ____
ROOT
ATOM      1  C   UNL     1       0.694   9.737  19.150  0.00  0.00    +0.000 C 
ATOM      2  C   UNL     1      -0.657   9.614  19.906  0.00  0.00    +0.000 C 
ATOM      3  C   UNL     1      -1.727  10.166  18.962  0.00  0.00    +0.000 C 
ATOM      4  C   UNL     1      -1.143  10.074  17.559  0.00  0.00    +0.000 C 
ATOM      5  C   UNL     1       0.191   9.363  17.727  0.00  0.00    +0.000 C 
ENDROOT
BRANCH   1   6
ATOM      6  C   UNL     1       1.337  11.137  19.266  0.00  0.00    +0.000 A 
ATOM      7  C   UNL     1       2.091  11.694  18.216  0.00  0.00    +0.000 A 
ATOM      8  C   UNL     1       2.685  12.958  18.328  0.00  0.00    +0.000 A 
ATOM      9  C   UNL     1       2.565  13.686  19.505  0.00  0.00    +0.000 A 
ATOM     10  C   UNL     1       1.821  13.163  20.562  0.00  0.00    +0.000 A 
ATOM     11  C   UNL     1       1.231  11.899  20.449  0.00  0.00    +0.000 A 
ATOM     12  O   UNL     1       1.639  13.826  21.750  0.00  0.00    +0.000 OA
ATOM     13  C   UNL     1       2.039  15.199  21.662  0.00  0.00    +0.000 C 
ATOM     14  C   UNL     1       3.356  15.335  20.915  0.00  0.00    +0.000 C 
ATOM     15  O   UNL     1       3.209  14.895  19.560  0.00  0.00    +0.000 OA
ENDBRANCH   1   6
BRANCH   1  17
ATOM     16  O   UNL     1       2.096   8.491  20.716  0.00  0.00    +0.000 OA
ATOM     17  C   UNL     1       1.704   8.634  19.559  0.00  0.00    +0.000 C 
ATOM     18  N   UNL     1       2.121   7.800  18.550  0.00  0.00    +0.000 N 
ATOM     19  H   UNL     1       1.757   7.919  17.615  0.00  0.00    +0.000 HD
BRANCH  18  20
ATOM     20  C   UNL     1       3.153   6.785  18.742  0.00  0.00    +0.000 C 
ATOM     21  C   UNL     1       4.069   6.717  17.516  0.00  0.00    +0.000 C 
ATOM     22  C   UNL     1       4.853   5.419  17.559  0.00  0.00    +0.000 C 
ATOM     23  O   UNL     1       3.979   4.293  17.428  0.00  0.00    +0.000 OA
ATOM     24  C   UNL     1       2.922   4.305  18.297  0.00  0.00    +0.000 A 
ATOM     25  C   UNL     1       2.229   3.102  18.438  0.00  0.00    +0.000 A 
ATOM     26  C   UNL     1       1.145   3.019  19.313  0.00  0.00    +0.000 A 
ATOM     27  C   UNL     1       0.773   4.124  20.071  0.00  0.00    +0.000 A 
ATOM     28  C   UNL     1       1.456   5.330  19.920  0.00  0.00    +0.000 A 
ATOM     29  C   UNL     1       2.504   5.444  18.991  0.00  0.00    +0.000 A 
ENDBRANCH  18  20
ENDBRANCH   1  17
TORSDOF 3
ENDMDL
MODEL 9
REMARK VINA RESULT:      -7.6      1.703      6.472
REMARK  Name = 
REMARK  3 active torsions:
REMARK  status: ('A' for Active; 'I' for Inactive)
REMARK    1  A    between atoms: C_2  and  C_14
REMARK    2  A    between atoms: N_3  and  C_4
REMARK    3  A    between atoms: C_14  and  C_15
REMARK                            x       y       z     vdW  Elec       q    Type
REMARK                         _______ _______ _______ _____ _____    ______ ____
ROOT
ATOM      1  C   UNL     1       2.549   4.127  19.362  0.00  0.00    +0.000 C 
ATOM      2  C   UNL     1       1.295   3.933  18.465  0.00  0.00    +0.000 C 
ATOM      3  C   UNL     1       1.230   2.441  18.139  0.00  0.00    +0.000 C 
ATOM      4  C   UNL     1       2.029   1.734  19.225  0.00  0.00    +0.000 C 
ATOM      5  C   UNL     1       2.425   2.827  20.205  0.00  0.00    +0.000 C 
ENDROOT
BRANCH   1   6
ATOM      6  C   UNL     1       3.862   4.261  18.560  0.00  0.00    +0.000 A 
ATOM      7  C   UNL     1       5.088   4.546  19.191  0.00  0.00    +0.000 A 
ATOM      8  C   UNL     1       6.277   4.680  18.462  0.00  0.00    +0.000 A 
ATOM      9  C   UNL     1       6.265   4.563  17.078  0.00  0.00    +0.000 A 
ATOM     10  C   UNL     1       5.067   4.277  16.423  0.00  0.00    +0.000 A 
ATOM     11  C   UNL     1       3.880   4.147  17.154  0.00  0.00    +0.000 A 
ATOM     12  O   UNL     1       4.973   4.127  15.062  0.00  0.00    +0.000 OA
ATOM     13  C   UNL     1       6.264   4.005  14.449  0.00  0.00    +0.000 C 
ATOM     14  C   UNL     1       7.241   5.012  15.033  0.00  0.00    +0.000 C 
ATOM     15  O   UNL     1       7.455   4.750  16.424  0.00  0.00    +0.000 OA
ENDBRANCH   1   6
BRANCH   1  17
ATOM     16  O   UNL     1       2.552   5.178  21.568  0.00  0.00    +0.000 OA
ATOM     17  C   UNL     1       2.390   5.307  20.355  0.00  0.00    +0.000 C 
ATOM     18  N   UNL     1       2.082   6.523  19.796  0.00  0.00    +0.000 N 
ATOM     19  H   UNL     1       1.988   6.608  18.794  0.00  0.00    +0.000 HD
BRANCH  18  20
ATOM     20  C   UNL     1       1.788   7.708  20.598  0.00  0.00    +0.000 C 
ATOM     21  C   UNL     1       0.634   7.425  21.565  0.00  0.00    +0.000 C 
ATOM     22  C   UNL     1       0.090   8.744  22.081  0.00  0.00    +0.000 C 
ATOM     23  O   UNL     1      -0.499   9.501  21.018  0.00  0.00    +0.000 OA
ATOM     24  C   UNL     1       0.313   9.650  19.926  0.00  0.00    +0.000 A 
ATOM     25  C   UNL     1      -0.069  10.629  19.007  0.00  0.00    +0.000 A 
ATOM     26  C   UNL     1       0.707  10.859  17.870  0.00  0.00    +0.000 A 
ATOM     27  C   UNL     1       1.879  10.138  17.666  0.00  0.00    +0.000 A 
ATOM     28  C   UNL     1       2.254   9.151  18.578  0.00  0.00    +0.000 A 
ATOM     29  C   UNL     1       1.443   8.863  19.688  0.00  0.00    +0.000 A 
ENDBRANCH  18  20
ENDBRANCH   1  17
TORSDOF 3
ENDMDL
