MODEL 1
REMARK VINA RESULT:      -9.0      0.000      0.000
REMARK  Name = 
REMARK  6 active torsions:
REMARK  status: ('A' for Active; 'I' for Inactive)
REMARK    1  A    between atoms: C_1  and  N_2
REMARK    2  A    between atoms: C_3  and  C_4
REMARK    3  A    between atoms: C_4  and  C_5
REMARK    4  A    between atoms: C_5  and  N_6
REMARK    5  A    between atoms: C_5  and  C_18
REMARK    6  A    between atoms: C_7  and  C_9
REMARK                            x       y       z     vdW  Elec       q    Type
REMARK                         _______ _______ _______ _____ _____    ______ ____
ROOT
ATOM      1  C   UNL     1       2.396   6.067  18.545  0.00  0.00    +0.000 C 
ENDROOT
BRANCH   1   2
ATOM      2  C   UNL     1       1.962   4.704  19.102  0.00  0.00    +0.000 A 
ATOM      3  C   UNL     1       1.473   3.714  18.232  0.00  0.00    +0.000 A 
ATOM      4  C   UNL     1       1.061   2.466  18.716  0.00  0.00    +0.000 A 
ATOM      5  C   UNL     1       1.133   2.185  20.079  0.00  0.00    +0.000 A 
ATOM      6  C   UNL     1       1.623   3.149  20.955  0.00  0.00    +0.000 A 
ATOM      7  C   UNL     1       2.041   4.391  20.471  0.00  0.00    +0.000 A 
ENDBRANCH   1   2
BRANCH   1   8
ATOM      8  N   UNL     1       3.380   5.895  17.468  0.00  0.00    +0.000 N 
ATOM      9  C   UNL     1       4.651   5.408  17.664  0.00  0.00    +0.000 C 
ATOM     10  O   UNL     1       5.142   5.185  18.767  0.00  0.00    +0.000 OA
ATOM     11  H   UNL     1       3.004   5.905  16.531  0.00  0.00    +0.000 HD
BRANCH   9  12
ATOM     12  C   UNL     1       5.450   5.122  16.440  0.00  0.00    +0.000 A 
ATOM     13  C   UNL     1       6.802   5.520  16.319  0.00  0.00    +0.000 A 
ATOM     14  C   UNL     1       7.521   5.242  15.150  0.00  0.00    +0.000 A 
ATOM     15  C   UNL     1       6.866   4.583  14.131  0.00  0.00    +0.000 A 
ATOM     16  C   UNL     1       5.558   4.179  14.254  0.00  0.00    +0.000 A 
ATOM     17  C   UNL     1       4.826   4.420  15.397  0.00  0.00    +0.000 A 
ATOM     18  O   UNL     1       5.105   3.550  13.136  0.00  0.00    +0.000 OA
ATOM     19  C   UNL     1       6.238   3.709  12.258  0.00  0.00    +0.000 C 
ATOM     20  O   UNL     1       7.397   4.258  12.921  0.00  0.00    +0.000 OA
ENDBRANCH   9  12
ENDBRANCH   1   8
BRANCH   1  21
ATOM     21  C   UNL     1       2.812   7.084  19.633  0.00  0.00    +0.000 C 
BRANCH  21  24
ATOM     22  C   UNL     1       1.559   9.601  18.210  0.00  0.00    +0.000 C 
ATOM     23  N   UNL     1       1.256   9.110  19.532  0.00  0.00    +0.000 N 
ATOM     24  C   UNL     1       1.694   7.948  20.136  0.00  0.00    +0.000 A 
ATOM     25  N   UNL     1       1.119   7.799  21.316  0.00  0.00    +0.000 NA
ATOM     26  C   UNL     1       0.424   8.960  21.547  0.00  0.00    +0.000 A 
ATOM     27  C   UNL     1      -0.274   9.374  22.691  0.00  0.00    +0.000 A 
ATOM     28  C   UNL     1      -0.836  10.657  22.713  0.00  0.00    +0.000 A 
ATOM     29  C   UNL     1      -0.726  11.503  21.608  0.00  0.00    +0.000 A 
ATOM     30  C   UNL     1      -0.064  11.092  20.443  0.00  0.00    +0.000 A 
ATOM     31  C   UNL     1       0.509   9.813  20.453  0.00  0.00    +0.000 A 
ENDBRANCH  21  24
ENDBRANCH   1  21
TORSDOF 5
ENDMDL
MODEL 2
REMARK VINA RESULT:      -8.6      1.160      2.095
REMARK  Name = 
REMARK  6 active torsions:
REMARK  status: ('A' for Active; 'I' for Inactive)
REMARK    1  A    between atoms: C_1  and  N_2
REMARK    2  A    between atoms: C_3  and  C_4
REMARK    3  A    between atoms: C_4  and  C_5
REMARK    4  A    between atoms: C_5  and  N_6
REMARK    5  A    between atoms: C_5  and  C_18
REMARK    6  A    between atoms: C_7  and  C_9
REMARK                            x       y       z     vdW  Elec       q    Type
REMARK                         _______ _______ _______ _____ _____    ______ ____
ROOT
ATOM      1  C   UNL     1       2.011   6.224  19.279  0.00  0.00    +0.000 C 
ENDROOT
BRANCH   1   2
ATOM      2  C   UNL     1       1.742   4.802  19.790  0.00  0.00    +0.000 A 
ATOM      3  C   UNL     1       1.930   4.497  21.150  0.00  0.00    +0.000 A 
ATOM      4  C   UNL     1       1.700   3.205  21.640  0.00  0.00    +0.000 A 
ATOM      5  C   UNL     1       1.276   2.195  20.779  0.00  0.00    +0.000 A 
ATOM      6  C   UNL     1       1.075   2.479  19.432  0.00  0.00    +0.000 A 
ATOM      7  C   UNL     1       1.296   3.770  18.945  0.00  0.00    +0.000 A 
ENDBRANCH   1   2
BRANCH   1   8
ATOM      8  N   UNL     1       3.115   6.224  18.310  0.00  0.00    +0.000 N 
ATOM      9  C   UNL     1       4.389   5.796  18.603  0.00  0.00    +0.000 C 
ATOM     10  O   UNL     1       4.772   5.490  19.729  0.00  0.00    +0.000 OA
ATOM     11  H   UNL     1       2.843   6.308  17.341  0.00  0.00    +0.000 HD
BRANCH   9  12
ATOM     12  C   UNL     1       5.334   5.686  17.457  0.00  0.00    +0.000 A 
ATOM     13  C   UNL     1       6.560   6.390  17.429  0.00  0.00    +0.000 A 
ATOM     14  C   UNL     1       7.422   6.270  16.331  0.00  0.00    +0.000 A 
ATOM     15  C   UNL     1       7.029   5.459  15.288  0.00  0.00    +0.000 A 
ATOM     16  C   UNL     1       5.845   4.760  15.322  0.00  0.00    +0.000 A 
ATOM     17  C   UNL     1       4.983   4.840  16.395  0.00  0.00    +0.000 A 
ATOM     18  O   UNL     1       5.649   4.023  14.195  0.00  0.00    +0.000 OA
ATOM     19  C   UNL     1       6.784   4.431  13.404  0.00  0.00    +0.000 C 
ATOM     20  O   UNL     1       7.722   5.250  14.137  0.00  0.00    +0.000 OA
ENDBRANCH   9  12
ENDBRANCH   1   8
BRANCH   1  21
ATOM     21  C   UNL     1       2.147   7.277  20.402  0.00  0.00    +0.000 C 
BRANCH  21  24
ATOM     22  C   UNL     1       0.985   9.312  22.509  0.00  0.00    +0.000 C 
ATOM     23  N   UNL     1       0.858   9.381  21.074  0.00  0.00    +0.000 N 
ATOM     24  C   UNL     1       1.454   8.578  20.121  0.00  0.00    +0.000 A 
ATOM     25  N   UNL     1       1.170   9.017  18.908  0.00  0.00    +0.000 NA
ATOM     26  C   UNL     1       0.248  10.020  19.076  0.00  0.00    +0.000 A 
ATOM     27  C   UNL     1      -0.466  10.750  18.114  0.00  0.00    +0.000 A 
ATOM     28  C   UNL     1      -1.427  11.675  18.545  0.00  0.00    +0.000 A 
ATOM     29  C   UNL     1      -1.655  11.886  19.905  0.00  0.00    +0.000 A 
ATOM     30  C   UNL     1      -0.925  11.193  20.879  0.00  0.00    +0.000 A 
ATOM     31  C   UNL     1       0.015  10.257  20.426  0.00  0.00    +0.000 A 
ENDBRANCH  21  24
ENDBRANCH   1  21
TORSDOF 5
ENDMDL
MODEL 3
REMARK VINA RESULT:      -8.5      3.687      6.637
REMARK  Name = 
REMARK  6 active torsions:
REMARK  status: ('A' for Active; 'I' for Inactive)
REMARK    1  A    between atoms: C_1  and  N_2
REMARK    2  A    between atoms: C_3  and  C_4
REMARK    3  A    between atoms: C_4  and  C_5
REMARK    4  A    between atoms: C_5  and  N_6
REMARK    5  A    between atoms: C_5  and  C_18
REMARK    6  A    between atoms: C_7  and  C_9
REMARK                            x       y       z     vdW  Elec       q    Type
REMARK                         _______ _______ _______ _____ _____    ______ ____
ROOT
ATOM      1  C   UNL     1       0.324  10.877  18.839  0.00  0.00    +0.000 C 
ENDROOT
BRANCH   1   2
ATOM      2  C   UNL     1      -1.145  10.824  18.396  0.00  0.00    +0.000 A 
ATOM      3  C   UNL     1      -1.547   9.914  17.403  0.00  0.00    +0.000 A 
ATOM      4  C   UNL     1      -2.879   9.852  16.975  0.00  0.00    +0.000 A 
ATOM      5  C   UNL     1      -3.834  10.699  17.534  0.00  0.00    +0.000 A 
ATOM      6  C   UNL     1      -3.458  11.600  18.525  0.00  0.00    +0.000 A 
ATOM      7  C   UNL     1      -2.130  11.656  18.958  0.00  0.00    +0.000 A 
ENDBRANCH   1   2
BRANCH   1   8
ATOM      8  N   UNL     1       0.863   9.521  19.004  0.00  0.00    +0.000 N 
ATOM      9  C   UNL     1       1.870   8.999  18.227  0.00  0.00    +0.000 C 
ATOM     10  O   UNL     1       2.338   9.556  17.237  0.00  0.00    +0.000 OA
ATOM     11  H   UNL     1       0.644   9.071  19.881  0.00  0.00    +0.000 HD
BRANCH   9  12
ATOM     12  C   UNL     1       2.423   7.682  18.650  0.00  0.00    +0.000 A 
ATOM     13  C   UNL     1       1.976   7.025  19.820  0.00  0.00    +0.000 A 
ATOM     14  C   UNL     1       2.524   5.791  20.193  0.00  0.00    +0.000 A 
ATOM     15  C   UNL     1       3.511   5.254  19.393  0.00  0.00    +0.000 A 
ATOM     16  C   UNL     1       3.933   5.883  18.246  0.00  0.00    +0.000 A 
ATOM     17  C   UNL     1       3.402   7.089  17.839  0.00  0.00    +0.000 A 
ATOM     18  O   UNL     1       4.912   5.187  17.607  0.00  0.00    +0.000 OA
ATOM     19  C   UNL     1       5.136   4.113  18.543  0.00  0.00    +0.000 C 
ATOM     20  O   UNL     1       4.171   4.086  19.617  0.00  0.00    +0.000 OA
ENDBRANCH   9  12
ENDBRANCH   1   8
BRANCH   1  21
ATOM     21  C   UNL     1       0.583  11.817  20.039  0.00  0.00    +0.000 C 
BRANCH  21  24
ATOM     22  C   UNL     1      -0.590  14.709  20.481  0.00  0.00    +0.000 C 
ATOM     23  N   UNL     1       0.624  14.361  19.784  0.00  0.00    +0.000 N 
ATOM     24  C   UNL     1       1.227  13.123  19.678  0.00  0.00    +0.000 A 
ATOM     25  N   UNL     1       2.380  13.226  19.041  0.00  0.00    +0.000 NA
ATOM     26  C   UNL     1       2.447  14.521  18.590  0.00  0.00    +0.000 A 
ATOM     27  C   UNL     1       3.403  15.135  17.767  0.00  0.00    +0.000 A 
ATOM     28  C   UNL     1       3.201  16.463  17.371  0.00  0.00    +0.000 A 
ATOM     29  C   UNL     1       2.082  17.175  17.805  0.00  0.00    +0.000 A 
ATOM     30  C   UNL     1       1.136  16.591  18.658  0.00  0.00    +0.000 A 
ATOM     31  C   UNL     1       1.347  15.254  19.022  0.00  0.00    +0.000 A 
ENDBRANCH  21  24
ENDBRANCH   1  21
TORSDOF 5
ENDMDL
MODEL 4
REMARK VINA RESULT:      -8.4      3.753      6.896
REMARK  Name = 
REMARK  6 active torsions:
REMARK  status: ('A' for Active; 'I' for Inactive)
REMARK    1  A    between atoms: C_1  and  N_2
REMARK    2  A    between atoms: C_3  and  C_4
REMARK    3  A    between atoms: C_4  and  C_5
REMARK    4  A    between atoms: C_5  and  N_6
REMARK    5  A    between atoms: C_5  and  C_18
REMARK    6  A    between atoms: C_7  and  C_9
REMARK                            x       y       z     vdW  Elec       q    Type
REMARK                         _______ _______ _______ _____ _____    ______ ____
ROOT
ATOM      1  C   UNL     1       0.219  10.863  18.695  0.00  0.00    +0.000 C 
ENDROOT
BRANCH   1   2
ATOM      2  C   UNL     1      -1.260  10.797  18.286  0.00  0.00    +0.000 A 
ATOM      3  C   UNL     1      -2.189  11.678  18.868  0.00  0.00    +0.000 A 
ATOM      4  C   UNL     1      -3.545  11.632  18.519  0.00  0.00    +0.000 A 
ATOM      5  C   UNL     1      -3.995  10.706  17.580  0.00  0.00    +0.000 A 
ATOM      6  C   UNL     1      -3.090   9.833  16.986  0.00  0.00    +0.000 A 
ATOM      7  C   UNL     1      -1.736   9.884  17.328  0.00  0.00    +0.000 A 
ENDBRANCH   1   2
BRANCH   1   8
ATOM      8  N   UNL     1       0.789   9.512  18.789  0.00  0.00    +0.000 N 
ATOM      9  C   UNL     1       1.927   9.115  18.126  0.00  0.00    +0.000 C 
ATOM     10  O   UNL     1       2.514   9.799  17.293  0.00  0.00    +0.000 OA
ATOM     11  H   UNL     1       0.459   8.955  19.564  0.00  0.00    +0.000 HD
BRANCH   9  12
ATOM     12  C   UNL     1       2.469   7.774  18.481  0.00  0.00    +0.000 A 
ATOM     13  C   UNL     1       3.488   7.155  17.721  0.00  0.00    +0.000 A 
ATOM     14  C   UNL     1       3.970   5.889  18.079  0.00  0.00    +0.000 A 
ATOM     15  C   UNL     1       3.411   5.273  19.179  0.00  0.00    +0.000 A 
ATOM     16  C   UNL     1       2.432   5.881  19.929  0.00  0.00    +0.000 A 
ATOM     17  C   UNL     1       1.950   7.135  19.617  0.00  0.00    +0.000 A 
ATOM     18  O   UNL     1       2.019   5.104  20.966  0.00  0.00    +0.000 OA
ATOM     19  C   UNL     1       2.763   3.895  20.711  0.00  0.00    +0.000 C 
ATOM     20  O   UNL     1       3.732   4.038  19.650  0.00  0.00    +0.000 OA
ENDBRANCH   9  12
ENDBRANCH   1   8
BRANCH   1  21
ATOM     21  C   UNL     1       0.488  11.757  19.926  0.00  0.00    +0.000 C 
BRANCH  21  24
ATOM     22  C   UNL     1      -0.605  14.660  20.485  0.00  0.00    +0.000 C 
ATOM     23  N   UNL     1       0.598  14.307  19.770  0.00  0.00    +0.000 N 
ATOM     24  C   UNL     1       1.166  13.058  19.613  0.00  0.00    +0.000 A 
ATOM     25  N   UNL     1       2.319  13.155  18.977  0.00  0.00    +0.000 NA
ATOM     26  C   UNL     1       2.420  14.464  18.575  0.00  0.00    +0.000 A 
ATOM     27  C   UNL     1       3.390  15.084  17.773  0.00  0.00    +0.000 A 
ATOM     28  C   UNL     1       3.222  16.432  17.429  0.00  0.00    +0.000 A 
ATOM     29  C   UNL     1       2.124  17.156  17.896  0.00  0.00    +0.000 A 
ATOM     30  C   UNL     1       1.166  16.564  18.729  0.00  0.00    +0.000 A 
ATOM     31  C   UNL     1       1.342  15.209  19.041  0.00  0.00    +0.000 A 
ENDBRANCH  21  24
ENDBRANCH   1  21
TORSDOF 5
ENDMDL
MODEL 5
REMARK VINA RESULT:      -8.4      0.727      1.324
REMARK  Name = 
REMARK  6 active torsions:
REMARK  status: ('A' for Active; 'I' for Inactive)
REMARK    1  A    between atoms: C_1  and  N_2
REMARK    2  A    between atoms: C_3  and  C_4
REMARK    3  A    between atoms: C_4  and  C_5
REMARK    4  A    between atoms: C_5  and  N_6
REMARK    5  A    between atoms: C_5  and  C_18
REMARK    6  A    between atoms: C_7  and  C_9
REMARK                            x       y       z     vdW  Elec       q    Type
REMARK                         _______ _______ _______ _____ _____    ______ ____
ROOT
ATOM      1  C   UNL     1       2.198   6.113  18.858  0.00  0.00    +0.000 C 
ENDROOT
BRANCH   1   2
ATOM      2  C   UNL     1       1.966   4.825  19.662  0.00  0.00    +0.000 A 
ATOM      3  C   UNL     1       1.292   3.741  19.073  0.00  0.00    +0.000 A 
ATOM      4  C   UNL     1       1.059   2.560  19.788  0.00  0.00    +0.000 A 
ATOM      5  C   UNL     1       1.498   2.441  21.105  0.00  0.00    +0.000 A 
ATOM      6  C   UNL     1       2.175   3.499  21.703  0.00  0.00    +0.000 A 
ATOM      7  C   UNL     1       2.415   4.675  20.986  0.00  0.00    +0.000 A 
ENDBRANCH   1   2
BRANCH   1   8
ATOM      8  N   UNL     1       3.039   5.843  17.684  0.00  0.00    +0.000 N 
ATOM      9  C   UNL     1       4.361   5.468  17.760  0.00  0.00    +0.000 C 
ATOM     10  O   UNL     1       5.011   5.440  18.802  0.00  0.00    +0.000 OA
ATOM     11  H   UNL     1       2.542   5.693  16.819  0.00  0.00    +0.000 HD
BRANCH   9  12
ATOM     12  C   UNL     1       5.009   5.053  16.485  0.00  0.00    +0.000 A 
ATOM     13  C   UNL     1       4.482   4.016  15.681  0.00  0.00    +0.000 A 
ATOM     14  C   UNL     1       5.122   3.646  14.491  0.00  0.00    +0.000 A 
ATOM     15  C   UNL     1       6.277   4.316  14.145  0.00  0.00    +0.000 A 
ATOM     16  C   UNL     1       6.781   5.337  14.916  0.00  0.00    +0.000 A 
ATOM     17  C   UNL     1       6.165   5.739  16.083  0.00  0.00    +0.000 A 
ATOM     18  O   UNL     1       7.924   5.860  14.397  0.00  0.00    +0.000 OA
ATOM     19  C   UNL     1       8.143   4.975  13.279  0.00  0.00    +0.000 C 
ATOM     20  O   UNL     1       7.041   4.071  13.047  0.00  0.00    +0.000 OA
ENDBRANCH   9  12
ENDBRANCH   1   8
BRANCH   1  21
ATOM     21  C   UNL     1       2.664   7.311  19.716  0.00  0.00    +0.000 C 
BRANCH  21  24
ATOM     22  C   UNL     1       1.205   9.746  18.347  0.00  0.00    +0.000 C 
ATOM     23  N   UNL     1       1.020   9.269  19.696  0.00  0.00    +0.000 N 
ATOM     24  C   UNL     1       1.550   8.138  20.286  0.00  0.00    +0.000 A 
ATOM     25  N   UNL     1       1.069   7.989  21.507  0.00  0.00    +0.000 NA
ATOM     26  C   UNL     1       0.344   9.124  21.769  0.00  0.00    +0.000 A 
ATOM     27  C   UNL     1      -0.286   9.532  22.954  0.00  0.00    +0.000 A 
ATOM     28  C   UNL     1      -0.899  10.791  22.995  0.00  0.00    +0.000 A 
ATOM     29  C   UNL     1      -0.905  11.619  21.872  0.00  0.00    +0.000 A 
ATOM     30  C   UNL     1      -0.313  11.213  20.668  0.00  0.00    +0.000 A 
ATOM     31  C   UNL     1       0.313   9.959  20.657  0.00  0.00    +0.000 A 
ENDBRANCH  21  24
ENDBRANCH   1  21
TORSDOF 5
ENDMDL
MODEL 6
REMARK VINA RESULT:      -8.2      4.159      7.065
REMARK  Name = 
REMARK  6 active torsions:
REMARK  status: ('A' for Active; 'I' for Inactive)
REMARK    1  A    between atoms: C_1  and  N_2
REMARK    2  A    between atoms: C_3  and  C_4
REMARK    3  A    between atoms: C_4  and  C_5
REMARK    4  A    between atoms: C_5  and  N_6
REMARK    5  A    between atoms: C_5  and  C_18
REMARK    6  A    between atoms: C_7  and  C_9
REMARK                            x       y       z     vdW  Elec       q    Type
REMARK                         _______ _______ _______ _____ _____    ______ ____
ROOT
ATOM      1  C   UNL     1       5.680   4.900  15.620  0.00  0.00    +0.000 C 
ENDROOT
BRANCH   1   2
ATOM      2  C   UNL     1       6.154   4.529  14.207  0.00  0.00    +0.000 A 
ATOM      3  C   UNL     1       7.289   5.155  13.661  0.00  0.00    +0.000 A 
ATOM      4  C   UNL     1       7.736   4.842  12.372  0.00  0.00    +0.000 A 
ATOM      5  C   UNL     1       7.058   3.896  11.606  0.00  0.00    +0.000 A 
ATOM      6  C   UNL     1       5.939   3.259  12.132  0.00  0.00    +0.000 A 
ATOM      7  C   UNL     1       5.497   3.565  13.422  0.00  0.00    +0.000 A 
ENDBRANCH   1   2
BRANCH   1   8
ATOM      8  N   UNL     1       6.553   5.924  16.206  0.00  0.00    +0.000 N 
ATOM      9  C   UNL     1       6.090   7.013  16.908  0.00  0.00    +0.000 C 
ATOM     10  O   UNL     1       4.904   7.313  17.012  0.00  0.00    +0.000 OA
ATOM     11  H   UNL     1       7.525   5.665  16.298  0.00  0.00    +0.000 HD
BRANCH   9  12
ATOM     12  C   UNL     1       7.116   7.848  17.593  0.00  0.00    +0.000 A 
ATOM     13  C   UNL     1       8.011   7.304  18.543  0.00  0.00    +0.000 A 
ATOM     14  C   UNL     1       8.958   8.120  19.174  0.00  0.00    +0.000 A 
ATOM     15  C   UNL     1       8.977   9.460  18.845  0.00  0.00    +0.000 A 
ATOM     16  C   UNL     1       8.120   9.987  17.908  0.00  0.00    +0.000 A 
ATOM     17  C   UNL     1       7.189   9.208  17.254  0.00  0.00    +0.000 A 
ATOM     18  O   UNL     1       8.304  11.323  17.734  0.00  0.00    +0.000 OA
ATOM     19  C   UNL     1       9.290  11.595  18.752  0.00  0.00    +0.000 C 
ATOM     20  O   UNL     1       9.805  10.399  19.377  0.00  0.00    +0.000 OA
ENDBRANCH   9  12
ENDBRANCH   1   8
BRANCH   1  21
ATOM     21  C   UNL     1       5.424   3.679  16.534  0.00  0.00    +0.000 C 
BRANCH  21  24
ATOM     22  C   UNL     1       5.405   4.812  19.475  0.00  0.00    +0.000 C 
ATOM     23  N   UNL     1       4.299   4.215  18.767  0.00  0.00    +0.000 N 
ATOM     24  C   UNL     1       4.240   3.821  17.444  0.00  0.00    +0.000 A 
ATOM     25  N   UNL     1       3.022   3.409  17.142  0.00  0.00    +0.000 NA
ATOM     26  C   UNL     1       2.327   3.384  18.325  0.00  0.00    +0.000 A 
ATOM     27  C   UNL     1       1.029   2.924  18.593  0.00  0.00    +0.000 A 
ATOM     28  C   UNL     1       0.571   2.925  19.917  0.00  0.00    +0.000 A 
ATOM     29  C   UNL     1       1.380   3.398  20.951  0.00  0.00    +0.000 A 
ATOM     30  C   UNL     1       2.665   3.897  20.698  0.00  0.00    +0.000 A 
ATOM     31  C   UNL     1       3.110   3.865  19.369  0.00  0.00    +0.000 A 
ENDBRANCH  21  24
ENDBRANCH   1  21
TORSDOF 5
ENDMDL
MODEL 7
REMARK VINA RESULT:      -8.1      3.214      6.425
REMARK  Name = 
REMARK  6 active torsions:
REMARK  status: ('A' for Active; 'I' for Inactive)
REMARK    1  A    between atoms: C_1  and  N_2
REMARK    2  A    between atoms: C_3  and  C_4
REMARK    3  A    between atoms: C_4  and  C_5
REMARK    4  A    between atoms: C_5  and  N_6
REMARK    5  A    between atoms: C_5  and  C_18
REMARK    6  A    between atoms: C_7  and  C_9
REMARK                            x       y       z     vdW  Elec       q    Type
REMARK                         _______ _______ _______ _____ _____    ______ ____
ROOT
ATOM      1  C   UNL     1       0.914  10.328  20.192  0.00  0.00    +0.000 C 
ENDROOT
BRANCH   1   2
ATOM      2  C   UNL     1       1.330  11.717  19.688  0.00  0.00    +0.000 A 
ATOM      3  C   UNL     1       1.017  12.861  20.442  0.00  0.00    +0.000 A 
ATOM      4  C   UNL     1       1.377  14.140  19.999  0.00  0.00    +0.000 A 
ATOM      5  C   UNL     1       2.059  14.297  18.795  0.00  0.00    +0.000 A 
ATOM      6  C   UNL     1       2.386  13.177  18.038  0.00  0.00    +0.000 A 
ATOM      7  C   UNL     1       2.034  11.900  18.484  0.00  0.00    +0.000 A 
ENDBRANCH   1   2
BRANCH   1   8
ATOM      8  N   UNL     1       1.698   9.280  19.525  0.00  0.00    +0.000 N 
ATOM      9  C   UNL     1       1.808   7.992  19.995  0.00  0.00    +0.000 C 
ATOM     10  O   UNL     1       1.372   7.613  21.079  0.00  0.00    +0.000 OA
ATOM     11  H   UNL     1       1.947   9.469  18.565  0.00  0.00    +0.000 HD
BRANCH   9  12
ATOM     12  C   UNL     1       2.484   7.012  19.100  0.00  0.00    +0.000 A 
ATOM     13  C   UNL     1       2.292   5.618  19.236  0.00  0.00    +0.000 A 
ATOM     14  C   UNL     1       2.950   4.725  18.381  0.00  0.00    +0.000 A 
ATOM     15  C   UNL     1       3.791   5.250  17.422  0.00  0.00    +0.000 A 
ATOM     16  C   UNL     1       3.964   6.606  17.276  0.00  0.00    +0.000 A 
ATOM     17  C   UNL     1       3.317   7.514  18.088  0.00  0.00    +0.000 A 
ATOM     18  O   UNL     1       4.833   6.911  16.275  0.00  0.00    +0.000 OA
ATOM     19  C   UNL     1       5.273   5.592  15.889  0.00  0.00    +0.000 C 
ATOM     20  O   UNL     1       4.529   4.535  16.531  0.00  0.00    +0.000 OA
ENDBRANCH   9  12
ENDBRANCH   1   8
BRANCH   1  21
ATOM     21  C   UNL     1      -0.613  10.089  20.179  0.00  0.00    +0.000 C 
BRANCH  21  24
ATOM     22  C   UNL     1      -2.834  12.280  19.733  0.00  0.00    +0.000 C 
ATOM     23  N   UNL     1      -2.339  11.335  18.762  0.00  0.00    +0.000 N 
ATOM     24  C   UNL     1      -1.288  10.448  18.888  0.00  0.00    +0.000 A 
ATOM     25  N   UNL     1      -1.077   9.820  17.745  0.00  0.00    +0.000 NA
ATOM     26  C   UNL     1      -2.108  10.188  16.917  0.00  0.00    +0.000 A 
ATOM     27  C   UNL     1      -2.430   9.732  15.629  0.00  0.00    +0.000 A 
ATOM     28  C   UNL     1      -3.598  10.205  15.018  0.00  0.00    +0.000 A 
ATOM     29  C   UNL     1      -4.417  11.132  15.663  0.00  0.00    +0.000 A 
ATOM     30  C   UNL     1      -4.091  11.628  16.933  0.00  0.00    +0.000 A 
ATOM     31  C   UNL     1      -2.930  11.123  17.535  0.00  0.00    +0.000 A 
ENDBRANCH  21  24
ENDBRANCH   1  21
TORSDOF 5
ENDMDL
MODEL 8
REMARK VINA RESULT:      -8.1      3.267      6.768
REMARK  Name = 
REMARK  6 active torsions:
REMARK  status: ('A' for Active; 'I' for Inactive)
REMARK    1  A    between atoms: C_1  and  N_2
REMARK    2  A    between atoms: C_3  and  C_4
REMARK    3  A    between atoms: C_4  and  C_5
REMARK    4  A    between atoms: C_5  and  N_6
REMARK    5  A    between atoms: C_5  and  C_18
REMARK    6  A    between atoms: C_7  and  C_9
REMARK                            x       y       z     vdW  Elec       q    Type
REMARK                         _______ _______ _______ _____ _____    ______ ____
ROOT
ATOM      1  C   UNL     1       0.841  10.742  20.538  0.00  0.00    +0.000 C 
ENDROOT
BRANCH   1   2
ATOM      2  C   UNL     1       1.346  12.065  19.946  0.00  0.00    +0.000 A 
ATOM      3  C   UNL     1       2.000  12.073  18.701  0.00  0.00    +0.000 A 
ATOM      4  C   UNL     1       2.479  13.266  18.144  0.00  0.00    +0.000 A 
ATOM      5  C   UNL     1       2.309  14.472  18.820  0.00  0.00    +0.000 A 
ATOM      6  C   UNL     1       1.656  14.486  20.048  0.00  0.00    +0.000 A 
ATOM      7  C   UNL     1       1.172  13.297  20.601  0.00  0.00    +0.000 A 
ENDBRANCH   1   2
BRANCH   1   8
ATOM      8  N   UNL     1       1.526   9.602  19.914  0.00  0.00    +0.000 N 
ATOM      9  C   UNL     1       1.603   8.352  20.483  0.00  0.00    +0.000 C 
ATOM     10  O   UNL     1       1.222   8.086  21.620  0.00  0.00    +0.000 OA
ATOM     11  H   UNL     1       1.719   9.699  18.928  0.00  0.00    +0.000 HD
BRANCH   9  12
ATOM     12  C   UNL     1       2.168   7.268  19.632  0.00  0.00    +0.000 A 
ATOM     13  C   UNL     1       2.753   7.534  18.372  0.00  0.00    +0.000 A 
ATOM     14  C   UNL     1       3.268   6.489  17.595  0.00  0.00    +0.000 A 
ATOM     15  C   UNL     1       3.174   5.207  18.093  0.00  0.00    +0.000 A 
ATOM     16  C   UNL     1       2.622   4.948  19.325  0.00  0.00    +0.000 A 
ATOM     17  C   UNL     1       2.124   5.955  20.125  0.00  0.00    +0.000 A 
ATOM     18  O   UNL     1       2.626   3.621  19.625  0.00  0.00    +0.000 OA
ATOM     19  C   UNL     1       3.134   3.068  18.393  0.00  0.00    +0.000 C 
ATOM     20  O   UNL     1       3.592   4.075  17.465  0.00  0.00    +0.000 OA
ENDBRANCH   9  12
ENDBRANCH   1   8
BRANCH   1  21
ATOM     21  C   UNL     1      -0.699  10.620  20.574  0.00  0.00    +0.000 C 
BRANCH  21  24
ATOM     22  C   UNL     1      -3.115  12.557  19.985  0.00  0.00    +0.000 C 
ATOM     23  N   UNL     1      -2.503  11.628  19.067  0.00  0.00    +0.000 N 
ATOM     24  C   UNL     1      -1.373  10.856  19.254  0.00  0.00    +0.000 A 
ATOM     25  N   UNL     1      -1.072  10.206  18.145  0.00  0.00    +0.000 NA
ATOM     26  C   UNL     1      -2.112  10.434  17.279  0.00  0.00    +0.000 A 
ATOM     27  C   UNL     1      -2.355   9.895  16.007  0.00  0.00    +0.000 A 
ATOM     28  C   UNL     1      -3.548  10.223  15.350  0.00  0.00    +0.000 A 
ATOM     29  C   UNL     1      -4.470  11.090  15.937  0.00  0.00    +0.000 A 
ATOM     30  C   UNL     1      -4.228  11.667  17.190  0.00  0.00    +0.000 A 
ATOM     31  C   UNL     1      -3.039  11.307  17.839  0.00  0.00    +0.000 A 
ENDBRANCH  21  24
ENDBRANCH   1  21
TORSDOF 5
ENDMDL
MODEL 9
REMARK VINA RESULT:      -8.1      3.404      7.094
REMARK  Name = 
REMARK  6 active torsions:
REMARK  status: ('A' for Active; 'I' for Inactive)
REMARK    1  A    between atoms: C_1  and  N_2
REMARK    2  A    between atoms: C_3  and  C_4
REMARK    3  A    between atoms: C_4  and  C_5
REMARK    4  A    between atoms: C_5  and  N_6
REMARK    5  A    between atoms: C_5  and  C_18
REMARK    6  A    between atoms: C_7  and  C_9
REMARK                            x       y       z     vdW  Elec       q    Type
REMARK                         _______ _______ _______ _____ _____    ______ ____
ROOT
ATOM      1  C   UNL     1       0.698  10.927  20.677  0.00  0.00    +0.000 C 
ENDROOT
BRANCH   1   2
ATOM      2  C   UNL     1       1.368  12.159  20.052  0.00  0.00    +0.000 A 
ATOM      3  C   UNL     1       1.354  13.389  20.734  0.00  0.00    +0.000 A 
ATOM      4  C   UNL     1       1.948  14.529  20.181  0.00  0.00    +0.000 A 
ATOM      5  C   UNL     1       2.571  14.461  18.937  0.00  0.00    +0.000 A 
ATOM      6  C   UNL     1       2.604  13.252  18.250  0.00  0.00    +0.000 A 
ATOM      7  C   UNL     1       2.017  12.111  18.805  0.00  0.00    +0.000 A 
ENDBRANCH   1   2
BRANCH   1   8
ATOM      8  N   UNL     1       1.224   9.694  20.077  0.00  0.00    +0.000 N 
ATOM      9  C   UNL     1       1.581   8.582  20.804  0.00  0.00    +0.000 C 
ATOM     10  O   UNL     1       1.620   8.543  22.031  0.00  0.00    +0.000 OA
ATOM     11  H   UNL     1       1.071   9.595  19.084  0.00  0.00    +0.000 HD
BRANCH   9  12
ATOM     12  C   UNL     1       1.915   7.357  20.025  0.00  0.00    +0.000 A 
ATOM     13  C   UNL     1       2.485   7.425  18.733  0.00  0.00    +0.000 A 
ATOM     14  C   UNL     1       2.779   6.253  18.025  0.00  0.00    +0.000 A 
ATOM     15  C   UNL     1       2.484   5.046  18.624  0.00  0.00    +0.000 A 
ATOM     16  C   UNL     1       1.946   4.978  19.887  0.00  0.00    +0.000 A 
ATOM     17  C   UNL     1       1.663   6.111  20.620  0.00  0.00    +0.000 A 
ATOM     18  O   UNL     1       1.732   3.696  20.289  0.00  0.00    +0.000 OA
ATOM     19  C   UNL     1       2.086   2.975  19.090  0.00  0.00    +0.000 C 
ATOM     20  O   UNL     1       2.674   3.816  18.074  0.00  0.00    +0.000 OA
ENDBRANCH   9  12
ENDBRANCH   1   8
BRANCH   1  21
ATOM     21  C   UNL     1      -0.845  11.009  20.722  0.00  0.00    +0.000 C 
BRANCH  21  24
ATOM     22  C   UNL     1      -3.372  12.758  20.027  0.00  0.00    +0.000 C 
ATOM     23  N   UNL     1      -2.674  11.852  19.148  0.00  0.00    +0.000 N 
ATOM     24  C   UNL     1      -1.498  11.166  19.381  0.00  0.00    +0.000 A 
ATOM     25  N   UNL     1      -1.125  10.512  18.296  0.00  0.00    +0.000 NA
ATOM     26  C   UNL     1      -2.156  10.646  17.401  0.00  0.00    +0.000 A 
ATOM     27  C   UNL     1      -2.328  10.061  16.137  0.00  0.00    +0.000 A 
ATOM     28  C   UNL     1      -3.524  10.290  15.443  0.00  0.00    +0.000 A 
ATOM     29  C   UNL     1      -4.519  11.104  15.986  0.00  0.00    +0.000 A 
ATOM     30  C   UNL     1      -4.349  11.726  17.230  0.00  0.00    +0.000 A 
ATOM     31  C   UNL     1      -3.155  11.466  17.915  0.00  0.00    +0.000 A 
ENDBRANCH  21  24
ENDBRANCH   1  21
TORSDOF 5
ENDMDL
