MODEL 1
REMARK VINA RESULT:      -9.7      0.000      0.000
REMARK  Name = 
REMARK  6 active torsions:
REMARK  status: ('A' for Active; 'I' for Inactive)
REMARK    1  A    between atoms: C_1  and  C_2
REMARK    2  A    between atoms: C_2  and  N_3
REMARK    3  A    between atoms: C_2  and  C_10
REMARK    4  A    between atoms: N_8  and  C_9
REMARK    5  A    between atoms: C_14  and  N_15
REMARK    6  A    between atoms: C_18  and  C_19
REMARK                            x       y       z     vdW  Elec       q    Type
REMARK                         _______ _______ _______ _____ _____    ______ ____
ROOT
ATOM      1  C   UNL     1       4.466   5.382  17.367  0.00  0.00    +0.000 A 
ATOM      2  C   UNL     1       3.730   4.201  17.548  0.00  0.00    +0.000 A 
ATOM      3  C   UNL     1       2.444   4.247  18.059  0.00  0.00    +0.000 A 
ATOM      4  C   UNL     1       1.905   5.469  18.450  0.00  0.00    +0.000 A 
ATOM      5  C   UNL     1       2.635   6.665  18.369  0.00  0.00    +0.000 A 
ATOM      6  C   UNL     1       3.901   6.621  17.762  0.00  0.00    +0.000 A 
ENDROOT
BRANCH   5   7
ATOM      7  N   UNL     1       2.102   7.846  18.963  0.00  0.00    +0.000 N 
ATOM      8  C   UNL     1       1.491   7.930  20.284  0.00  0.00    +0.000 C 
ATOM      9  C   UNL     1       0.942   9.329  20.326  0.00  0.00    +0.000 A 
ATOM     10  C   UNL     1       0.247  10.051  21.289  0.00  0.00    +0.000 A 
ATOM     11  C   UNL     1      -0.191  11.346  20.938  0.00  0.00    +0.000 A 
ATOM     12  C   UNL     1       0.098  11.859  19.675  0.00  0.00    +0.000 A 
ATOM     13  N   UNL     1       0.802  11.190  18.750  0.00  0.00    +0.000 NA
ATOM     14  C   UNL     1       1.192   9.959  19.125  0.00  0.00    +0.000 A 
ATOM     15  C   UNL     1       1.932   9.045  18.247  0.00  0.00    +0.000 C 
ATOM     16  O   UNL     1       2.246   9.334  17.109  0.00  0.00    +0.000 OA
BRANCH  10  17
ATOM     17  C   UNL     1      -0.049   9.534  22.669  0.00  0.00    +0.000 C 
ATOM     18  F   UNL     1      -0.723  10.420  23.447  0.00  0.00    +0.000 F 
ATOM     19  F   UNL     1      -0.806   8.403  22.639  0.00  0.00    +0.000 F 
ATOM     20  F   UNL     1       1.081   9.211  23.352  0.00  0.00    +0.000 F 
ENDBRANCH  10  17
ENDBRANCH   5   7
BRANCH   1  22
ATOM     21  C   UNL     1       6.815   4.578  17.729  0.00  0.00    +0.000 C 
ATOM     22  C   UNL     1       5.856   5.258  16.753  0.00  0.00    +0.000 C 
BRANCH  22  23
ATOM     23  N   UNL     1       5.776   4.532  15.477  0.00  0.00    +0.000 N 
ATOM     24  C   UNL     1       6.702   4.844  14.532  0.00  0.00    +0.000 A 
ATOM     25  N   UNL     1       7.751   5.635  14.629  0.00  0.00    +0.000 NA
ATOM     26  N   UNL     1       8.373   5.698  13.403  0.00  0.00    +0.000 NA
ATOM     27  C   UNL     1       7.711   4.913  12.589  0.00  0.00    +0.000 A 
ATOM     28  N   UNL     1       6.664   4.348  13.253  0.00  0.00    +0.000 N 
ATOM     29  C   UNL     1       5.766   3.374  12.693  0.00  0.00    +0.000 C 
ATOM     30  H   UNL     1       4.818   4.449  15.151  0.00  0.00    +0.000 HD
ENDBRANCH  22  23
ENDBRANCH   1  22
TORSDOF 4
ENDMDL
MODEL 2
REMARK VINA RESULT:      -9.1      4.276      8.854
REMARK  Name = 
REMARK  6 active torsions:
REMARK  status: ('A' for Active; 'I' for Inactive)
REMARK    1  A    between atoms: C_1  and  C_2
REMARK    2  A    between atoms: C_2  and  N_3
REMARK    3  A    between atoms: C_2  and  C_10
REMARK    4  A    between atoms: N_8  and  C_9
REMARK    5  A    between atoms: C_14  and  N_15
REMARK    6  A    between atoms: C_18  and  C_19
REMARK                            x       y       z     vdW  Elec       q    Type
REMARK                         _______ _______ _______ _____ _____    ______ ____
ROOT
ATOM      1  C   UNL     1       0.340  10.242  19.726  0.00  0.00    +0.000 A 
ATOM      2  C   UNL     1      -0.165   9.989  21.012  0.00  0.00    +0.000 A 
ATOM      3  C   UNL     1       0.279   8.897  21.737  0.00  0.00    +0.000 A 
ATOM      4  C   UNL     1       1.185   8.013  21.160  0.00  0.00    +0.000 A 
ATOM      5  C   UNL     1       1.652   8.176  19.847  0.00  0.00    +0.000 A 
ATOM      6  C   UNL     1       1.270   9.337  19.155  0.00  0.00    +0.000 A 
ENDROOT
BRANCH   5   7
ATOM      7  N   UNL     1       2.422   7.137  19.249  0.00  0.00    +0.000 N 
ATOM      8  C   UNL     1       3.360   7.304  18.145  0.00  0.00    +0.000 C 
ATOM      9  C   UNL     1       3.740   5.893  17.792  0.00  0.00    +0.000 A 
ATOM     10  C   UNL     1       4.589   5.344  16.839  0.00  0.00    +0.000 A 
ATOM     11  C   UNL     1       4.633   3.937  16.743  0.00  0.00    +0.000 A 
ATOM     12  C   UNL     1       3.860   3.156  17.600  0.00  0.00    +0.000 A 
ATOM     13  N   UNL     1       3.067   3.671  18.551  0.00  0.00    +0.000 NA
ATOM     14  C   UNL     1       3.050   5.014  18.602  0.00  0.00    +0.000 A 
ATOM     15  C   UNL     1       2.215   5.776  19.538  0.00  0.00    +0.000 C 
ATOM     16  O   UNL     1       1.470   5.246  20.339  0.00  0.00    +0.000 OA
BRANCH  10  17
ATOM     17  C   UNL     1       5.458   6.162  15.926  0.00  0.00    +0.000 C 
ATOM     18  F   UNL     1       6.359   6.936  16.583  0.00  0.00    +0.000 F 
ATOM     19  F   UNL     1       6.178   5.382  15.073  0.00  0.00    +0.000 F 
ATOM     20  F   UNL     1       4.734   7.004  15.142  0.00  0.00    +0.000 F 
ENDBRANCH  10  17
ENDBRANCH   5   7
BRANCH   1  22
ATOM     21  C   UNL     1       1.006  12.427  18.690  0.00  0.00    +0.000 C 
ATOM     22  C   UNL     1      -0.158  11.491  19.008  0.00  0.00    +0.000 C 
BRANCH  22  23
ATOM     23  N   UNL     1      -0.895  11.110  17.794  0.00  0.00    +0.000 N 
ATOM     24  C   UNL     1      -2.243  11.286  17.813  0.00  0.00    +0.000 A 
ATOM     25  N   UNL     1      -2.992  11.860  18.731  0.00  0.00    +0.000 NA
ATOM     26  N   UNL     1      -4.312  11.758  18.354  0.00  0.00    +0.000 NA
ATOM     27  C   UNL     1      -4.340  11.153  17.192  0.00  0.00    +0.000 A 
ATOM     28  N   UNL     1      -3.069  10.848  16.808  0.00  0.00    +0.000 N 
ATOM     29  C   UNL     1      -2.714  10.246  15.550  0.00  0.00    +0.000 C 
ATOM     30  H   UNL     1      -0.566  10.227  17.416  0.00  0.00    +0.000 HD
ENDBRANCH  22  23
ENDBRANCH   1  22
TORSDOF 4
ENDMDL
MODEL 3
REMARK VINA RESULT:      -8.8      2.182      2.614
REMARK  Name = 
REMARK  6 active torsions:
REMARK  status: ('A' for Active; 'I' for Inactive)
REMARK    1  A    between atoms: C_1  and  C_2
REMARK    2  A    between atoms: C_2  and  N_3
REMARK    3  A    between atoms: C_2  and  C_10
REMARK    4  A    between atoms: N_8  and  C_9
REMARK    5  A    between atoms: C_14  and  N_15
REMARK    6  A    between atoms: C_18  and  C_19
REMARK                            x       y       z     vdW  Elec       q    Type
REMARK                         _______ _______ _______ _____ _____    ______ ____
ROOT
ATOM      1  C   UNL     1       4.532   4.944  17.046  0.00  0.00    +0.000 A 
ATOM      2  C   UNL     1       3.848   3.718  17.035  0.00  0.00    +0.000 A 
ATOM      3  C   UNL     1       2.555   3.631  17.521  0.00  0.00    +0.000 A 
ATOM      4  C   UNL     1       1.955   4.756  18.079  0.00  0.00    +0.000 A 
ATOM      5  C   UNL     1       2.630   5.982  18.191  0.00  0.00    +0.000 A 
ATOM      6  C   UNL     1       3.904   6.084  17.610  0.00  0.00    +0.000 A 
ENDROOT
BRANCH   5   7
ATOM      7  N   UNL     1       2.036   7.035  18.943  0.00  0.00    +0.000 N 
ATOM      8  C   UNL     1       1.835   8.403  18.478  0.00  0.00    +0.000 C 
ATOM      9  C   UNL     1       1.360   9.125  19.707  0.00  0.00    +0.000 A 
ATOM     10  C   UNL     1       0.990  10.441  19.956  0.00  0.00    +0.000 A 
ATOM     11  C   UNL     1       0.670  10.784  21.287  0.00  0.00    +0.000 A 
ATOM     12  C   UNL     1       0.710   9.813  22.285  0.00  0.00    +0.000 A 
ATOM     13  N   UNL     1       1.026   8.530  22.053  0.00  0.00    +0.000 NA
ATOM     14  C   UNL     1       1.331   8.250  20.773  0.00  0.00    +0.000 A 
ATOM     15  C   UNL     1       1.747   6.919  20.315  0.00  0.00    +0.000 C 
ATOM     16  O   UNL     1       1.851   5.967  21.064  0.00  0.00    +0.000 OA
BRANCH  10  17
ATOM     17  C   UNL     1       0.906  11.500  18.894  0.00  0.00    +0.000 C 
ATOM     18  F   UNL     1       1.993  11.539  18.080  0.00  0.00    +0.000 F 
ATOM     19  F   UNL     1      -0.171  11.323  18.080  0.00  0.00    +0.000 F 
ATOM     20  F   UNL     1       0.779  12.748  19.418  0.00  0.00    +0.000 F 
ENDBRANCH  10  17
ENDBRANCH   5   7
BRANCH   1  22
ATOM     21  C   UNL     1       6.945   4.372  17.422  0.00  0.00    +0.000 C 
ATOM     22  C   UNL     1       5.934   4.973  16.448  0.00  0.00    +0.000 C 
BRANCH  22  23
ATOM     23  N   UNL     1       5.942   4.271  15.156  0.00  0.00    +0.000 N 
ATOM     24  C   UNL     1       6.822   4.715  14.221  0.00  0.00    +0.000 A 
ATOM     25  N   UNL     1       7.766   5.625  14.336  0.00  0.00    +0.000 NA
ATOM     26  N   UNL     1       8.375   5.790  13.113  0.00  0.00    +0.000 NA
ATOM     27  C   UNL     1       7.813   4.949  12.281  0.00  0.00    +0.000 A 
ATOM     28  N   UNL     1       6.843   4.247  12.931  0.00  0.00    +0.000 N 
ATOM     29  C   UNL     1       6.070   3.183  12.347  0.00  0.00    +0.000 C 
ATOM     30  H   UNL     1       5.000   4.080  14.827  0.00  0.00    +0.000 HD
ENDBRANCH  22  23
ENDBRANCH   1  22
TORSDOF 4
ENDMDL
MODEL 4
REMARK VINA RESULT:      -8.7      3.421      8.464
REMARK  Name = 
REMARK  6 active torsions:
REMARK  status: ('A' for Active; 'I' for Inactive)
REMARK    1  A    between atoms: C_1  and  C_2
REMARK    2  A    between atoms: C_2  and  N_3
REMARK    3  A    between atoms: C_2  and  C_10
REMARK    4  A    between atoms: N_8  and  C_9
REMARK    5  A    between atoms: C_14  and  N_15
REMARK    6  A    between atoms: C_18  and  C_19
REMARK                            x       y       z     vdW  Elec       q    Type
REMARK                         _______ _______ _______ _____ _____    ______ ____
ROOT
ATOM      1  C   UNL     1       0.253  10.802  19.923  0.00  0.00    +0.000 A 
ATOM      2  C   UNL     1      -0.120  10.863  21.275  0.00  0.00    +0.000 A 
ATOM      3  C   UNL     1       0.264   9.865  22.154  0.00  0.00    +0.000 A 
ATOM      4  C   UNL     1       0.972   8.766  21.678  0.00  0.00    +0.000 A 
ATOM      5  C   UNL     1       1.293   8.618  20.320  0.00  0.00    +0.000 A 
ATOM      6  C   UNL     1       0.983   9.680  19.453  0.00  0.00    +0.000 A 
ENDROOT
BRANCH   5   7
ATOM      7  N   UNL     1       1.844   7.386  19.866  0.00  0.00    +0.000 N 
ATOM      8  C   UNL     1       1.842   6.130  20.608  0.00  0.00    +0.000 C 
ATOM      9  C   UNL     1       2.703   5.227  19.769  0.00  0.00    +0.000 A 
ATOM     10  C   UNL     1       3.107   3.904  19.901  0.00  0.00    +0.000 A 
ATOM     11  C   UNL     1       4.006   3.402  18.936  0.00  0.00    +0.000 A 
ATOM     12  C   UNL     1       4.435   4.219  17.892  0.00  0.00    +0.000 A 
ATOM     13  N   UNL     1       4.022   5.485  17.730  0.00  0.00    +0.000 NA
ATOM     14  C   UNL     1       3.173   5.924  18.675  0.00  0.00    +0.000 A 
ATOM     15  C   UNL     1       2.638   7.290  18.708  0.00  0.00    +0.000 C 
ATOM     16  O   UNL     1       2.929   8.132  17.881  0.00  0.00    +0.000 OA
BRANCH  10  17
ATOM     17  C   UNL     1       2.634   2.992  20.997  0.00  0.00    +0.000 C 
ATOM     18  F   UNL     1       3.587   2.126  21.431  0.00  0.00    +0.000 F 
ATOM     19  F   UNL     1       2.221   3.683  22.095  0.00  0.00    +0.000 F 
ATOM     20  F   UNL     1       1.575   2.230  20.614  0.00  0.00    +0.000 F 
ENDBRANCH  10  17
ENDBRANCH   5   7
BRANCH   1  22
ATOM     21  C   UNL     1       1.056  12.786  18.614  0.00  0.00    +0.000 C 
ATOM     22  C   UNL     1      -0.162  11.962  19.025  0.00  0.00    +0.000 C 
BRANCH  22  23
ATOM     23  N   UNL     1      -0.891  11.451  17.854  0.00  0.00    +0.000 N 
ATOM     24  C   UNL     1      -2.249  11.467  17.920  0.00  0.00    +0.000 A 
ATOM     25  N   UNL     1      -3.028  11.983  18.847  0.00  0.00    +0.000 NA
ATOM     26  N   UNL     1      -4.338  11.712  18.526  0.00  0.00    +0.000 NA
ATOM     27  C   UNL     1      -4.335  11.065  17.387  0.00  0.00    +0.000 A 
ATOM     28  N   UNL     1      -3.051  10.898  16.963  0.00  0.00    +0.000 N 
ATOM     29  C   UNL     1      -2.672  10.296  15.713  0.00  0.00    +0.000 C 
ATOM     30  H   UNL     1      -0.472  10.600  17.492  0.00  0.00    +0.000 HD
ENDBRANCH  22  23
ENDBRANCH   1  22
TORSDOF 4
ENDMDL
MODEL 5
REMARK VINA RESULT:      -8.7      3.407      8.578
REMARK  Name = 
REMARK  6 active torsions:
REMARK  status: ('A' for Active; 'I' for Inactive)
REMARK    1  A    between atoms: C_1  and  C_2
REMARK    2  A    between atoms: C_2  and  N_3
REMARK    3  A    between atoms: C_2  and  C_10
REMARK    4  A    between atoms: N_8  and  C_9
REMARK    5  A    between atoms: C_14  and  N_15
REMARK    6  A    between atoms: C_18  and  C_19
REMARK                            x       y       z     vdW  Elec       q    Type
REMARK                         _______ _______ _______ _____ _____    ______ ____
ROOT
ATOM      1  C   UNL     1       0.516  10.275  19.831  0.00  0.00    +0.000 A 
ATOM      2  C   UNL     1       0.229  10.079  21.191  0.00  0.00    +0.000 A 
ATOM      3  C   UNL     1       0.696   8.956  21.851  0.00  0.00    +0.000 A 
ATOM      4  C   UNL     1       1.402   7.988  21.144  0.00  0.00    +0.000 A 
ATOM      5  C   UNL     1       1.639   8.098  19.765  0.00  0.00    +0.000 A 
ATOM      6  C   UNL     1       1.245   9.285  19.124  0.00  0.00    +0.000 A 
ENDROOT
BRANCH   5   7
ATOM      7  N   UNL     1       2.194   6.989  19.064  0.00  0.00    +0.000 N 
ATOM      8  C   UNL     1       2.035   5.587  19.431  0.00  0.00    +0.000 C 
ATOM      9  C   UNL     1       2.964   4.871  18.490  0.00  0.00    +0.000 A 
ATOM     10  C   UNL     1       3.288   3.533  18.305  0.00  0.00    +0.000 A 
ATOM     11  C   UNL     1       4.289   3.234  17.357  0.00  0.00    +0.000 A 
ATOM     12  C   UNL     1       4.894   4.260  16.635  0.00  0.00    +0.000 A 
ATOM     13  N   UNL     1       4.563   5.553  16.773  0.00  0.00    +0.000 NA
ATOM     14  C   UNL     1       3.610   5.792  17.692  0.00  0.00    +0.000 A 
ATOM     15  C   UNL     1       3.136   7.139  18.029  0.00  0.00    +0.000 C 
ATOM     16  O   UNL     1       3.574   8.144  17.504  0.00  0.00    +0.000 OA
BRANCH  10  17
ATOM     17  C   UNL     1       2.629   2.404  19.046  0.00  0.00    +0.000 C 
ATOM     18  F   UNL     1       2.831   2.445  20.389  0.00  0.00    +0.000 F 
ATOM     19  F   UNL     1       1.280   2.394  18.867  0.00  0.00    +0.000 F 
ATOM     20  F   UNL     1       3.072   1.187  18.632  0.00  0.00    +0.000 F 
ENDBRANCH  10  17
ENDBRANCH   5   7
BRANCH   1  22
ATOM     21  C   UNL     1       1.176  12.501  18.878  0.00  0.00    +0.000 C 
ATOM     22  C   UNL     1       0.011  11.560  19.183  0.00  0.00    +0.000 C 
BRANCH  22  23
ATOM     23  N   UNL     1      -0.760  11.241  17.973  0.00  0.00    +0.000 N 
ATOM     24  C   UNL     1      -2.108  11.399  18.043  0.00  0.00    +0.000 A 
ATOM     25  N   UNL     1      -2.833  11.911  19.016  0.00  0.00    +0.000 NA
ATOM     26  N   UNL     1      -4.163  11.815  18.674  0.00  0.00    +0.000 NA
ATOM     27  C   UNL     1      -4.222  11.277  17.481  0.00  0.00    +0.000 A 
ATOM     28  N   UNL     1      -2.960  11.009  17.041  0.00  0.00    +0.000 N 
ATOM     29  C   UNL     1      -2.640  10.485  15.740  0.00  0.00    +0.000 C 
ATOM     30  H   UNL     1      -0.433  10.385  17.534  0.00  0.00    +0.000 HD
ENDBRANCH  22  23
ENDBRANCH   1  22
TORSDOF 4
ENDMDL
MODEL 6
REMARK VINA RESULT:      -8.7      1.733      2.896
REMARK  Name = 
REMARK  6 active torsions:
REMARK  status: ('A' for Active; 'I' for Inactive)
REMARK    1  A    between atoms: C_1  and  C_2
REMARK    2  A    between atoms: C_2  and  N_3
REMARK    3  A    between atoms: C_2  and  C_10
REMARK    4  A    between atoms: N_8  and  C_9
REMARK    5  A    between atoms: C_14  and  N_15
REMARK    6  A    between atoms: C_18  and  C_19
REMARK                            x       y       z     vdW  Elec       q    Type
REMARK                         _______ _______ _______ _____ _____    ______ ____
ROOT
ATOM      1  C   UNL     1       4.070   4.924  17.307  0.00  0.00    +0.000 A 
ATOM      2  C   UNL     1       3.319   3.788  17.650  0.00  0.00    +0.000 A 
ATOM      3  C   UNL     1       2.102   3.921  18.297  0.00  0.00    +0.000 A 
ATOM      4  C   UNL     1       1.654   5.187  18.663  0.00  0.00    +0.000 A 
ATOM      5  C   UNL     1       2.411   6.344  18.419  0.00  0.00    +0.000 A 
ATOM      6  C   UNL     1       3.596   6.208  17.678  0.00  0.00    +0.000 A 
ENDROOT
BRANCH   5   7
ATOM      7  N   UNL     1       1.991   7.581  18.987  0.00  0.00    +0.000 N 
ATOM      8  C   UNL     1       1.383   7.749  20.302  0.00  0.00    +0.000 C 
ATOM      9  C   UNL     1       0.971   9.194  20.315  0.00  0.00    +0.000 A 
ATOM     10  C   UNL     1       0.343   9.998  21.259  0.00  0.00    +0.000 A 
ATOM     11  C   UNL     1       0.034  11.321  20.881  0.00  0.00    +0.000 A 
ATOM     12  C   UNL     1       0.378  11.781  19.612  0.00  0.00    +0.000 A 
ATOM     13  N   UNL     1       1.020  11.030  18.704  0.00  0.00    +0.000 NA
ATOM     14  C   UNL     1       1.287   9.775  19.104  0.00  0.00    +0.000 A 
ATOM     15  C   UNL     1       1.941   8.777  18.248  0.00  0.00    +0.000 C 
ATOM     16  O   UNL     1       2.287   9.013  17.107  0.00  0.00    +0.000 OA
BRANCH  10  17
ATOM     17  C   UNL     1      -0.009   9.538  22.646  0.00  0.00    +0.000 C 
ATOM     18  F   UNL     1       1.070   9.173  23.386  0.00  0.00    +0.000 F 
ATOM     19  F   UNL     1      -0.647  10.506  23.358  0.00  0.00    +0.000 F 
ATOM     20  F   UNL     1      -0.844   8.466  22.637  0.00  0.00    +0.000 F 
ENDBRANCH  10  17
ENDBRANCH   5   7
BRANCH   1  22
ATOM     21  C   UNL     1       5.107   4.518  15.059  0.00  0.00    +0.000 C 
ATOM     22  C   UNL     1       5.375   4.702  16.551  0.00  0.00    +0.000 C 
BRANCH  22  23
ATOM     23  N   UNL     1       6.295   5.821  16.803  0.00  0.00    +0.000 N 
ATOM     24  C   UNL     1       7.009   5.783  17.958  0.00  0.00    +0.000 A 
ATOM     25  N   UNL     1       7.086   4.821  18.854  0.00  0.00    +0.000 NA
ATOM     26  N   UNL     1       7.885   5.243  19.892  0.00  0.00    +0.000 NA
ATOM     27  C   UNL     1       8.311   6.446  19.591  0.00  0.00    +0.000 A 
ATOM     28  N   UNL     1       7.798   6.821  18.386  0.00  0.00    +0.000 N 
ATOM     29  C   UNL     1       8.112   8.050  17.708  0.00  0.00    +0.000 C 
ATOM     30  H   UNL     1       5.872   6.715  16.569  0.00  0.00    +0.000 HD
ENDBRANCH  22  23
ENDBRANCH   1  22
TORSDOF 4
ENDMDL
MODEL 7
REMARK VINA RESULT:      -8.6      1.868      2.729
REMARK  Name = 
REMARK  6 active torsions:
REMARK  status: ('A' for Active; 'I' for Inactive)
REMARK    1  A    between atoms: C_1  and  C_2
REMARK    2  A    between atoms: C_2  and  N_3
REMARK    3  A    between atoms: C_2  and  C_10
REMARK    4  A    between atoms: N_8  and  C_9
REMARK    5  A    between atoms: C_14  and  N_15
REMARK    6  A    between atoms: C_18  and  C_19
REMARK                            x       y       z     vdW  Elec       q    Type
REMARK                         _______ _______ _______ _____ _____    ______ ____
ROOT
ATOM      1  C   UNL     1       3.224   3.389  19.323  0.00  0.00    +0.000 A 
ATOM      2  C   UNL     1       2.393   2.575  20.110  0.00  0.00    +0.000 A 
ATOM      3  C   UNL     1       1.302   3.114  20.768  0.00  0.00    +0.000 A 
ATOM      4  C   UNL     1       1.065   4.483  20.696  0.00  0.00    +0.000 A 
ATOM      5  C   UNL     1       1.917   5.351  19.994  0.00  0.00    +0.000 A 
ATOM      6  C   UNL     1       2.965   4.782  19.252  0.00  0.00    +0.000 A 
ENDROOT
BRANCH   5   7
ATOM      7  N   UNL     1       1.733   6.757  20.119  0.00  0.00    +0.000 N 
ATOM      8  C   UNL     1       1.051   7.431  21.218  0.00  0.00    +0.000 C 
ATOM      9  C   UNL     1       0.975   8.860  20.760  0.00  0.00    +0.000 A 
ATOM     10  C   UNL     1       0.455  10.016  21.328  0.00  0.00    +0.000 A 
ATOM     11  C   UNL     1       0.491  11.194  20.551  0.00  0.00    +0.000 A 
ATOM     12  C   UNL     1       1.053  11.169  19.277  0.00  0.00    +0.000 A 
ATOM     13  N   UNL     1       1.596  10.071  18.731  0.00  0.00    +0.000 NA
ATOM     14  C   UNL     1       1.533   8.972  19.503  0.00  0.00    +0.000 A 
ATOM     15  C   UNL     1       2.027   7.657  19.077  0.00  0.00    +0.000 C 
ATOM     16  O   UNL     1       2.529   7.462  17.988  0.00  0.00    +0.000 OA
BRANCH  10  17
ATOM     17  C   UNL     1      -0.127  10.078  22.712  0.00  0.00    +0.000 C 
ATOM     18  F   UNL     1      -1.226   9.296  22.874  0.00  0.00    +0.000 F 
ATOM     19  F   UNL     1       0.765   9.680  23.660  0.00  0.00    +0.000 F 
ATOM     20  F   UNL     1      -0.504  11.338  23.058  0.00  0.00    +0.000 F 
ENDBRANCH  10  17
ENDBRANCH   5   7
BRANCH   1  22
ATOM     21  C   UNL     1       3.999   1.292  18.185  0.00  0.00    +0.000 C 
ATOM     22  C   UNL     1       4.377   2.716  18.588  0.00  0.00    +0.000 C 
BRANCH  22  23
ATOM     23  N   UNL     1       4.766   3.523  17.422  0.00  0.00    +0.000 N 
ATOM     24  C   UNL     1       5.819   4.368  17.582  0.00  0.00    +0.000 A 
ATOM     25  N   UNL     1       6.631   4.495  18.612  0.00  0.00    +0.000 NA
ATOM     26  N   UNL     1       7.516   5.517  18.355  0.00  0.00    +0.000 NA
ATOM     27  C   UNL     1       7.249   5.971  17.155  0.00  0.00    +0.000 A 
ATOM     28  N   UNL     1       6.202   5.276  16.628  0.00  0.00    +0.000 N 
ATOM     29  C   UNL     1       5.687   5.455  15.297  0.00  0.00    +0.000 C 
ATOM     30  H   UNL     1       3.957   3.906  16.943  0.00  0.00    +0.000 HD
ENDBRANCH  22  23
ENDBRANCH   1  22
TORSDOF 4
ENDMDL
MODEL 8
REMARK VINA RESULT:      -8.6      2.748      3.835
REMARK  Name = 
REMARK  6 active torsions:
REMARK  status: ('A' for Active; 'I' for Inactive)
REMARK    1  A    between atoms: C_1  and  C_2
REMARK    2  A    between atoms: C_2  and  N_3
REMARK    3  A    between atoms: C_2  and  C_10
REMARK    4  A    between atoms: N_8  and  C_9
REMARK    5  A    between atoms: C_14  and  N_15
REMARK    6  A    between atoms: C_18  and  C_19
REMARK                            x       y       z     vdW  Elec       q    Type
REMARK                         _______ _______ _______ _____ _____    ______ ____
ROOT
ATOM      1  C   UNL     1       4.522   4.615  16.769  0.00  0.00    +0.000 A 
ATOM      2  C   UNL     1       3.873   3.372  16.831  0.00  0.00    +0.000 A 
ATOM      3  C   UNL     1       2.619   3.263  17.408  0.00  0.00    +0.000 A 
ATOM      4  C   UNL     1       2.030   4.384  17.984  0.00  0.00    +0.000 A 
ATOM      5  C   UNL     1       2.678   5.629  18.025  0.00  0.00    +0.000 A 
ATOM      6  C   UNL     1       3.905   5.751  17.353  0.00  0.00    +0.000 A 
ENDROOT
BRANCH   5   7
ATOM      7  N   UNL     1       2.109   6.683  18.796  0.00  0.00    +0.000 N 
ATOM      8  C   UNL     1       1.874   8.045  18.330  0.00  0.00    +0.000 C 
ATOM      9  C   UNL     1       1.450   8.772  19.574  0.00  0.00    +0.000 A 
ATOM     10  C   UNL     1       1.080  10.087  19.830  0.00  0.00    +0.000 A 
ATOM     11  C   UNL     1       0.818  10.437  21.172  0.00  0.00    +0.000 A 
ATOM     12  C   UNL     1       0.914   9.474  22.174  0.00  0.00    +0.000 A 
ATOM     13  N   UNL     1       1.231   8.192  21.937  0.00  0.00    +0.000 NA
ATOM     14  C   UNL     1       1.479   7.905  20.648  0.00  0.00    +0.000 A 
ATOM     15  C   UNL     1       1.885   6.575  20.181  0.00  0.00    +0.000 C 
ATOM     16  O   UNL     1       2.033   5.629  20.930  0.00  0.00    +0.000 OA
BRANCH  10  17
ATOM     17  C   UNL     1       0.937  11.137  18.765  0.00  0.00    +0.000 C 
ATOM     18  F   UNL     1      -0.101  10.913  17.919  0.00  0.00    +0.000 F 
ATOM     19  F   UNL     1       0.735  12.375  19.293  0.00  0.00    +0.000 F 
ATOM     20  F   UNL     1       2.047  11.237  17.987  0.00  0.00    +0.000 F 
ENDBRANCH  10  17
ENDBRANCH   5   7
BRANCH   1  22
ATOM     21  C   UNL     1       5.706   4.599  14.558  0.00  0.00    +0.000 C 
ATOM     22  C   UNL     1       5.878   4.668  16.074  0.00  0.00    +0.000 C 
BRANCH  22  23
ATOM     23  N   UNL     1       6.604   5.879  16.483  0.00  0.00    +0.000 N 
ATOM     24  C   UNL     1       7.248   5.836  17.679  0.00  0.00    +0.000 A 
ATOM     25  N   UNL     1       7.416   4.815  18.494  0.00  0.00    +0.000 NA
ATOM     26  N   UNL     1       8.082   5.249  19.617  0.00  0.00    +0.000 NA
ATOM     27  C   UNL     1       8.339   6.523  19.450  0.00  0.00    +0.000 A 
ATOM     28  N   UNL     1       7.846   6.932  18.247  0.00  0.00    +0.000 N 
ATOM     29  C   UNL     1       8.011   8.252  17.700  0.00  0.00    +0.000 C 
ATOM     30  H   UNL     1       6.066   6.720  16.296  0.00  0.00    +0.000 HD
ENDBRANCH  22  23
ENDBRANCH   1  22
TORSDOF 4
ENDMDL
MODEL 9
REMARK VINA RESULT:      -8.5      4.370     10.039
REMARK  Name = 
REMARK  6 active torsions:
REMARK  status: ('A' for Active; 'I' for Inactive)
REMARK    1  A    between atoms: C_1  and  C_2
REMARK    2  A    between atoms: C_2  and  N_3
REMARK    3  A    between atoms: C_2  and  C_10
REMARK    4  A    between atoms: N_8  and  C_9
REMARK    5  A    between atoms: C_14  and  N_15
REMARK    6  A    between atoms: C_18  and  C_19
REMARK                            x       y       z     vdW  Elec       q    Type
REMARK                         _______ _______ _______ _____ _____    ______ ____
ROOT
ATOM      1  C   UNL     1      -0.040  10.047  20.927  0.00  0.00    +0.000 A 
ATOM      2  C   UNL     1      -0.239  11.004  19.920  0.00  0.00    +0.000 A 
ATOM      3  C   UNL     1       0.270  10.801  18.649  0.00  0.00    +0.000 A 
ATOM      4  C   UNL     1       1.036   9.668  18.390  0.00  0.00    +0.000 A 
ATOM      5  C   UNL     1       1.335   8.727  19.387  0.00  0.00    +0.000 A 
ATOM      6  C   UNL     1       0.735   8.893  20.646  0.00  0.00    +0.000 A 
ENDROOT
BRANCH   5   7
ATOM      7  N   UNL     1       2.279   7.697  19.110  0.00  0.00    +0.000 N 
ATOM      8  C   UNL     1       3.217   7.682  17.993  0.00  0.00    +0.000 C 
ATOM      9  C   UNL     1       3.825   6.310  18.065  0.00  0.00    +0.000 A 
ATOM     10  C   UNL     1       4.783   5.651  17.303  0.00  0.00    +0.000 A 
ATOM     11  C   UNL     1       5.051   4.303  17.624  0.00  0.00    +0.000 A 
ATOM     12  C   UNL     1       4.381   3.693  18.682  0.00  0.00    +0.000 A 
ATOM     13  N   UNL     1       3.484   4.328  19.451  0.00  0.00    +0.000 NA
ATOM     14  C   UNL     1       3.255   5.607  19.105  0.00  0.00    +0.000 A 
ATOM     15  C   UNL     1       2.279   6.464  19.788  0.00  0.00    +0.000 C 
ATOM     16  O   UNL     1       1.598   6.078  20.718  0.00  0.00    +0.000 OA
BRANCH  10  17
ATOM     17  C   UNL     1       5.543   6.295  16.179  0.00  0.00    +0.000 C 
ATOM     18  F   UNL     1       4.753   6.975  15.309  0.00  0.00    +0.000 F 
ATOM     19  F   UNL     1       6.466   7.188  16.631  0.00  0.00    +0.000 F 
ATOM     20  F   UNL     1       6.232   5.388  15.436  0.00  0.00    +0.000 F 
ENDBRANCH  10  17
ENDBRANCH   5   7
BRANCH   1  22
ATOM     21  C   UNL     1       0.005   9.477  23.371  0.00  0.00    +0.000 C 
ATOM     22  C   UNL     1      -0.673  10.315  22.288  0.00  0.00    +0.000 C 
BRANCH  22  23
ATOM     23  N   UNL     1      -0.609  11.751  22.595  0.00  0.00    +0.000 N 
ATOM     24  C   UNL     1      -1.729  12.320  23.114  0.00  0.00    +0.000 A 
ATOM     25  N   UNL     1      -2.851  11.744  23.496  0.00  0.00    +0.000 NA
ATOM     26  N   UNL     1      -3.732  12.719  23.905  0.00  0.00    +0.000 NA
ATOM     27  C   UNL     1      -3.117  13.871  23.798  0.00  0.00    +0.000 A 
ATOM     28  N   UNL     1      -1.858  13.671  23.318  0.00  0.00    +0.000 N 
ATOM     29  C   UNL     1      -0.872  14.704  23.146  0.00  0.00    +0.000 C 
ATOM     30  H   UNL     1      -0.146  12.273  21.857  0.00  0.00    +0.000 HD
ENDBRANCH  22  23
ENDBRANCH   1  22
TORSDOF 4
ENDMDL
