MODEL 1
REMARK VINA RESULT:      -8.7      0.000      0.000
REMARK  Name = 
REMARK  6 active torsions:
REMARK  status: ('A' for Active; 'I' for Inactive)
REMARK    1  A    between atoms: C_1  and  C_2
REMARK    2  A    between atoms: C_5  and  N_6
REMARK    3  A    between atoms: C_8  and  C_9
REMARK    4  A    between atoms: C_10  and  N_11
REMARK    5  A    between atoms: C_12  and  C_14
REMARK    6  A    between atoms: C_24  and  C_25
REMARK                            x       y       z     vdW  Elec       q    Type
REMARK                         _______ _______ _______ _____ _____    ______ ____
ROOT
ATOM      1  N   UNL     1       1.655   7.826  20.146  0.00  0.00    +0.000 N 
ATOM      2  N   UNL     1       1.811   6.681  20.833  0.00  0.00    +0.000 NA
ATOM      3  C   UNL     1       2.312   5.801  19.973  0.00  0.00    +0.000 A 
ATOM      4  C   UNL     1       2.378   4.406  20.474  0.00  0.00    +0.000 C 
ATOM      5  C   UNL     1       2.714   6.428  18.750  0.00  0.00    +0.000 A 
ATOM      6  C   UNL     1       2.251   7.743  18.886  0.00  0.00    +0.000 A 
ATOM      7  C   UNL     1       2.406   8.930  18.001  0.00  0.00    +0.000 C 
ENDROOT
BRANCH   1  12
ATOM      8  C   UNL     1      -1.560  11.618  23.035  0.00  0.00    +0.000 C 
ATOM      9  C   UNL     1      -0.673  10.682  22.268  0.00  0.00    +0.000 A 
ATOM     10  C   UNL     1       0.073   9.713  22.938  0.00  0.00    +0.000 A 
ATOM     11  C   UNL     1       0.850   8.805  22.218  0.00  0.00    +0.000 A 
ATOM     12  C   UNL     1       0.928   8.860  20.811  0.00  0.00    +0.000 A 
ATOM     13  C   UNL     1       0.192   9.837  20.136  0.00  0.00    +0.000 A 
ATOM     14  C   UNL     1      -0.613  10.731  20.865  0.00  0.00    +0.000 A 
ENDBRANCH   1  12
BRANCH   5  15
ATOM     15  N   UNL     1       3.431   5.931  17.640  0.00  0.00    +0.000 N 
ATOM     16  C   UNL     1       4.790   5.632  17.664  0.00  0.00    +0.000 C 
ATOM     17  O   UNL     1       5.503   5.680  18.662  0.00  0.00    +0.000 OA
ATOM     18  H   UNL     1       2.952   5.832  16.753  0.00  0.00    +0.000 HD
BRANCH  16  19
ATOM     19  C   UNL     1       5.497   5.222  16.406  0.00  0.00    +0.000 A 
ATOM     20  C   UNL     1       6.817   5.663  16.275  0.00  0.00    +0.000 A 
ATOM     21  C   UNL     1       7.518   5.385  15.116  0.00  0.00    +0.000 A 
ATOM     22  C   UNL     1       6.888   4.676  14.106  0.00  0.00    +0.000 A 
ATOM     23  C   UNL     1       7.579   4.411  12.910  0.00  0.00    +0.000 A 
ATOM     24  C   UNL     1       6.955   3.715  11.885  0.00  0.00    +0.000 A 
ATOM     25  C   UNL     1       5.647   3.279  12.061  0.00  0.00    +0.000 A 
ATOM     26  C   UNL     1       4.963   3.542  13.260  0.00  0.00    +0.000 A 
ATOM     27  C   UNL     1       5.549   4.244  14.310  0.00  0.00    +0.000 A 
ATOM     28  N   UNL     1       4.851   4.507  15.450  0.00  0.00    +0.000 NA
ENDBRANCH  16  19
ENDBRANCH   5  15
TORSDOF 3
ENDMDL
MODEL 2
REMARK VINA RESULT:      -8.0      3.709      6.219
REMARK  Name = 
REMARK  6 active torsions:
REMARK  status: ('A' for Active; 'I' for Inactive)
REMARK    1  A    between atoms: C_1  and  C_2
REMARK    2  A    between atoms: C_5  and  N_6
REMARK    3  A    between atoms: C_8  and  C_9
REMARK    4  A    between atoms: C_10  and  N_11
REMARK    5  A    between atoms: C_12  and  C_14
REMARK    6  A    between atoms: C_24  and  C_25
REMARK                            x       y       z     vdW  Elec       q    Type
REMARK                         _______ _______ _______ _____ _____    ______ ____
ROOT
ATOM      1  N   UNL     1      -0.613  12.658  19.242  0.00  0.00    +0.000 N 
ATOM      2  N   UNL     1      -1.542  12.032  18.498  0.00  0.00    +0.000 NA
ATOM      3  C   UNL     1      -1.074  10.808  18.279  0.00  0.00    +0.000 A 
ATOM      4  C   UNL     1      -1.856  10.006  17.306  0.00  0.00    +0.000 C 
ATOM      5  C   UNL     1       0.080  10.532  19.080  0.00  0.00    +0.000 A 
ATOM      6  C   UNL     1       0.369  11.766  19.678  0.00  0.00    +0.000 A 
ATOM      7  C   UNL     1       1.399  12.147  20.682  0.00  0.00    +0.000 C 
ENDROOT
BRANCH   1  12
ATOM      8  C   UNL     1      -0.853  18.345  20.052  0.00  0.00    +0.000 C 
ATOM      9  C   UNL     1      -0.858  16.863  19.814  0.00  0.00    +0.000 A 
ATOM     10  C   UNL     1      -0.099  16.316  18.781  0.00  0.00    +0.000 A 
ATOM     11  C   UNL     1      -0.057  14.933  18.599  0.00  0.00    +0.000 A 
ATOM     12  C   UNL     1      -0.800  14.063  19.424  0.00  0.00    +0.000 A 
ATOM     13  C   UNL     1      -1.571  14.607  20.453  0.00  0.00    +0.000 A 
ATOM     14  C   UNL     1      -1.585  16.001  20.650  0.00  0.00    +0.000 A 
ENDBRANCH   1  12
BRANCH   5  15
ATOM     15  N   UNL     1       0.798   9.336  19.299  0.00  0.00    +0.000 N 
ATOM     16  C   UNL     1       1.784   8.855  18.444  0.00  0.00    +0.000 C 
ATOM     17  O   UNL     1       2.207   9.447  17.455  0.00  0.00    +0.000 OA
ATOM     18  H   UNL     1       0.552   8.757  20.093  0.00  0.00    +0.000 HD
BRANCH  16  19
ATOM     19  C   UNL     1       2.412   7.514  18.689  0.00  0.00    +0.000 A 
ATOM     20  C   UNL     1       3.413   7.134  17.790  0.00  0.00    +0.000 A 
ATOM     21  C   UNL     1       3.995   5.885  17.905  0.00  0.00    +0.000 A 
ATOM     22  C   UNL     1       3.565   5.036  18.912  0.00  0.00    +0.000 A 
ATOM     23  C   UNL     1       4.128   3.752  19.024  0.00  0.00    +0.000 A 
ATOM     24  C   UNL     1       3.697   2.887  20.018  0.00  0.00    +0.000 A 
ATOM     25  C   UNL     1       2.711   3.309  20.902  0.00  0.00    +0.000 A 
ATOM     26  C   UNL     1       2.156   4.594  20.790  0.00  0.00    +0.000 A 
ATOM     27  C   UNL     1       2.553   5.491  19.801  0.00  0.00    +0.000 A 
ATOM     28  N   UNL     1       1.977   6.721  19.702  0.00  0.00    +0.000 NA
ENDBRANCH  16  19
ENDBRANCH   5  15
TORSDOF 3
ENDMDL
MODEL 3
REMARK VINA RESULT:      -7.9      2.345      4.892
REMARK  Name = 
REMARK  6 active torsions:
REMARK  status: ('A' for Active; 'I' for Inactive)
REMARK    1  A    between atoms: C_1  and  C_2
REMARK    2  A    between atoms: C_5  and  N_6
REMARK    3  A    between atoms: C_8  and  C_9
REMARK    4  A    between atoms: C_10  and  N_11
REMARK    5  A    between atoms: C_12  and  C_14
REMARK    6  A    between atoms: C_24  and  C_25
REMARK                            x       y       z     vdW  Elec       q    Type
REMARK                         _______ _______ _______ _____ _____    ______ ____
ROOT
ATOM      1  N   UNL     1      -0.955  11.351  21.424  0.00  0.00    +0.000 N 
ATOM      2  N   UNL     1      -1.523  11.463  20.211  0.00  0.00    +0.000 NA
ATOM      3  C   UNL     1      -0.830  10.667  19.406  0.00  0.00    +0.000 A 
ATOM      4  C   UNL     1      -1.166  10.791  17.966  0.00  0.00    +0.000 C 
ATOM      5  C   UNL     1       0.074   9.832  20.137  0.00  0.00    +0.000 A 
ATOM      6  C   UNL     1      -0.015  10.319  21.448  0.00  0.00    +0.000 A 
ATOM      7  C   UNL     1       0.613   9.844  22.711  0.00  0.00    +0.000 C 
ENDROOT
BRANCH   1  12
ATOM      8  C   UNL     1      -3.164  15.172  25.110  0.00  0.00    +0.000 C 
ATOM      9  C   UNL     1      -2.540  14.155  24.200  0.00  0.00    +0.000 A 
ATOM     10  C   UNL     1      -3.219  12.977  23.893  0.00  0.00    +0.000 A 
ATOM     11  C   UNL     1      -2.663  12.061  22.999  0.00  0.00    +0.000 A 
ATOM     12  C   UNL     1      -1.400  12.282  22.413  0.00  0.00    +0.000 A 
ATOM     13  C   UNL     1      -0.710  13.456  22.726  0.00  0.00    +0.000 A 
ATOM     14  C   UNL     1      -1.289  14.390  23.605  0.00  0.00    +0.000 A 
ENDBRANCH   1  12
BRANCH   5  15
ATOM     15  N   UNL     1       0.874   8.743  19.728  0.00  0.00    +0.000 N 
ATOM     16  C   UNL     1       1.841   8.821  18.731  0.00  0.00    +0.000 C 
ATOM     17  O   UNL     1       2.175   9.853  18.155  0.00  0.00    +0.000 OA
ATOM     18  H   UNL     1       0.706   7.832  20.138  0.00  0.00    +0.000 HD
BRANCH  16  19
ATOM     19  C   UNL     1       2.562   7.586  18.276  0.00  0.00    +0.000 A 
ATOM     20  C   UNL     1       2.199   6.396  18.912  0.00  0.00    +0.000 A 
ATOM     21  C   UNL     1       2.863   5.224  18.600  0.00  0.00    +0.000 A 
ATOM     22  C   UNL     1       3.881   5.261  17.661  0.00  0.00    +0.000 A 
ATOM     23  C   UNL     1       4.584   4.083  17.353  0.00  0.00    +0.000 A 
ATOM     24  C   UNL     1       5.615   4.110  16.426  0.00  0.00    +0.000 A 
ATOM     25  C   UNL     1       5.934   5.311  15.803  0.00  0.00    +0.000 A 
ATOM     26  C   UNL     1       5.226   6.484  16.109  0.00  0.00    +0.000 A 
ATOM     27  C   UNL     1       4.190   6.503  17.040  0.00  0.00    +0.000 A 
ATOM     28  N   UNL     1       3.538   7.662  17.336  0.00  0.00    +0.000 NA
ENDBRANCH  16  19
ENDBRANCH   5  15
TORSDOF 3
ENDMDL
MODEL 4
REMARK VINA RESULT:      -7.9      3.013      5.102
REMARK  Name = 
REMARK  6 active torsions:
REMARK  status: ('A' for Active; 'I' for Inactive)
REMARK    1  A    between atoms: C_1  and  C_2
REMARK    2  A    between atoms: C_5  and  N_6
REMARK    3  A    between atoms: C_8  and  C_9
REMARK    4  A    between atoms: C_10  and  N_11
REMARK    5  A    between atoms: C_12  and  C_14
REMARK    6  A    between atoms: C_24  and  C_25
REMARK                            x       y       z     vdW  Elec       q    Type
REMARK                         _______ _______ _______ _____ _____    ______ ____
ROOT
ATOM      1  N   UNL     1      -0.826  11.206  21.497  0.00  0.00    +0.000 N 
ATOM      2  N   UNL     1      -1.270  11.336  20.235  0.00  0.00    +0.000 NA
ATOM      3  C   UNL     1      -0.580  10.462  19.510  0.00  0.00    +0.000 A 
ATOM      4  C   UNL     1      -0.773  10.577  18.044  0.00  0.00    +0.000 C 
ATOM      5  C   UNL     1       0.176   9.570  20.337  0.00  0.00    +0.000 A 
ATOM      6  C   UNL     1       0.013  10.097  21.625  0.00  0.00    +0.000 A 
ATOM      7  C   UNL     1       0.479   9.602  22.949  0.00  0.00    +0.000 C 
ENDROOT
BRANCH   1  12
ATOM      8  C   UNL     1      -3.046  15.251  24.928  0.00  0.00    +0.000 C 
ATOM      9  C   UNL     1      -2.419  14.179  24.085  0.00  0.00    +0.000 A 
ATOM     10  C   UNL     1      -3.094  12.981  23.855  0.00  0.00    +0.000 A 
ATOM     11  C   UNL     1      -2.536  12.011  23.022  0.00  0.00    +0.000 A 
ATOM     12  C   UNL     1      -1.273  12.198  22.423  0.00  0.00    +0.000 A 
ATOM     13  C   UNL     1      -0.587  13.392  22.660  0.00  0.00    +0.000 A 
ATOM     14  C   UNL     1      -1.169  14.379  23.477  0.00  0.00    +0.000 A 
ENDBRANCH   1  12
BRANCH   5  15
ATOM     15  N   UNL     1       0.909   8.406  20.023  0.00  0.00    +0.000 N 
ATOM     16  C   UNL     1       1.874   8.341  19.023  0.00  0.00    +0.000 C 
ATOM     17  O   UNL     1       2.264   9.299  18.360  0.00  0.00    +0.000 OA
ATOM     18  H   UNL     1       0.691   7.544  20.510  0.00  0.00    +0.000 HD
BRANCH  16  19
ATOM     19  C   UNL     1       2.520   7.033  18.675  0.00  0.00    +0.000 A 
ATOM     20  C   UNL     1       3.546   7.089  17.727  0.00  0.00    +0.000 A 
ATOM     21  C   UNL     1       4.147   5.920  17.301  0.00  0.00    +0.000 A 
ATOM     22  C   UNL     1       3.711   4.713  17.825  0.00  0.00    +0.000 A 
ATOM     23  C   UNL     1       4.294   3.513  17.380  0.00  0.00    +0.000 A 
ATOM     24  C   UNL     1       3.857   2.298  17.885  0.00  0.00    +0.000 A 
ATOM     25  C   UNL     1       2.846   2.285  18.839  0.00  0.00    +0.000 A 
ATOM     26  C   UNL     1       2.271   3.487  19.284  0.00  0.00    +0.000 A 
ATOM     27  C   UNL     1       2.674   4.728  18.797  0.00  0.00    +0.000 A 
ATOM     28  N   UNL     1       2.078   5.874  19.229  0.00  0.00    +0.000 NA
ENDBRANCH  16  19
ENDBRANCH   5  15
TORSDOF 3
ENDMDL
MODEL 5
REMARK VINA RESULT:      -7.8      2.360      4.685
REMARK  Name = 
REMARK  6 active torsions:
REMARK  status: ('A' for Active; 'I' for Inactive)
REMARK    1  A    between atoms: C_1  and  C_2
REMARK    2  A    between atoms: C_5  and  N_6
REMARK    3  A    between atoms: C_8  and  C_9
REMARK    4  A    between atoms: C_10  and  N_11
REMARK    5  A    between atoms: C_12  and  C_14
REMARK    6  A    between atoms: C_24  and  C_25
REMARK                            x       y       z     vdW  Elec       q    Type
REMARK                         _______ _______ _______ _____ _____    ______ ____
ROOT
ATOM      1  N   UNL     1      -0.841  11.268  20.986  0.00  0.00    +0.000 N 
ATOM      2  N   UNL     1      -1.517  11.225  19.826  0.00  0.00    +0.000 NA
ATOM      3  C   UNL     1      -0.838  10.404  19.033  0.00  0.00    +0.000 A 
ATOM      4  C   UNL     1      -1.306  10.367  17.626  0.00  0.00    +0.000 C 
ATOM      5  C   UNL     1       0.185   9.704  19.750  0.00  0.00    +0.000 A 
ATOM      6  C   UNL     1       0.173  10.307  21.014  0.00  0.00    +0.000 A 
ATOM      7  C   UNL     1       0.941   9.998  22.251  0.00  0.00    +0.000 C 
ENDROOT
BRANCH   1  12
ATOM      8  C   UNL     1      -2.103  15.188  24.999  0.00  0.00    +0.000 C 
ATOM      9  C   UNL     1      -1.830  14.189  23.913  0.00  0.00    +0.000 A 
ATOM     10  C   UNL     1      -0.733  14.352  23.068  0.00  0.00    +0.000 A 
ATOM     11  C   UNL     1      -0.446  13.391  22.098  0.00  0.00    +0.000 A 
ATOM     12  C   UNL     1      -1.267  12.257  21.924  0.00  0.00    +0.000 A 
ATOM     13  C   UNL     1      -2.374  12.095  22.761  0.00  0.00    +0.000 A 
ATOM     14  C   UNL     1      -2.641  13.053  23.757  0.00  0.00    +0.000 A 
ENDBRANCH   1  12
BRANCH   5  15
ATOM     15  N   UNL     1       1.026   8.637  19.367  0.00  0.00    +0.000 N 
ATOM     16  C   UNL     1       1.946   8.708  18.326  0.00  0.00    +0.000 C 
ATOM     17  O   UNL     1       2.200   9.722  17.680  0.00  0.00    +0.000 OA
ATOM     18  H   UNL     1       0.925   7.744  19.834  0.00  0.00    +0.000 HD
BRANCH  16  19
ATOM     19  C   UNL     1       2.715   7.489  17.909  0.00  0.00    +0.000 A 
ATOM     20  C   UNL     1       2.177   6.261  18.305  0.00  0.00    +0.000 A 
ATOM     21  C   UNL     1       2.858   5.093  18.020  0.00  0.00    +0.000 A 
ATOM     22  C   UNL     1       4.068   5.170  17.348  0.00  0.00    +0.000 A 
ATOM     23  C   UNL     1       4.787   3.992  17.076  0.00  0.00    +0.000 A 
ATOM     24  C   UNL     1       6.005   4.057  16.418  0.00  0.00    +0.000 A 
ATOM     25  C   UNL     1       6.498   5.296  16.025  0.00  0.00    +0.000 A 
ATOM     26  C   UNL     1       5.774   6.469  16.295  0.00  0.00    +0.000 A 
ATOM     27  C   UNL     1       4.551   6.450  16.961  0.00  0.00    +0.000 A 
ATOM     28  N   UNL     1       3.885   7.607  17.231  0.00  0.00    +0.000 NA
ENDBRANCH  16  19
ENDBRANCH   5  15
TORSDOF 3
ENDMDL
MODEL 6
REMARK VINA RESULT:      -7.8      2.929      5.179
REMARK  Name = 
REMARK  6 active torsions:
REMARK  status: ('A' for Active; 'I' for Inactive)
REMARK    1  A    between atoms: C_1  and  C_2
REMARK    2  A    between atoms: C_5  and  N_6
REMARK    3  A    between atoms: C_8  and  C_9
REMARK    4  A    between atoms: C_10  and  N_11
REMARK    5  A    between atoms: C_12  and  C_14
REMARK    6  A    between atoms: C_24  and  C_25
REMARK                            x       y       z     vdW  Elec       q    Type
REMARK                         _______ _______ _______ _____ _____    ______ ____
ROOT
ATOM      1  N   UNL     1      -1.151  11.418  21.341  0.00  0.00    +0.000 N 
ATOM      2  N   UNL     1      -1.598  11.546  20.080  0.00  0.00    +0.000 NA
ATOM      3  C   UNL     1      -0.858  10.727  19.342  0.00  0.00    +0.000 A 
ATOM      4  C   UNL     1      -1.052  10.858  17.877  0.00  0.00    +0.000 C 
ATOM      5  C   UNL     1      -0.055   9.863  20.155  0.00  0.00    +0.000 A 
ATOM      6  C   UNL     1      -0.251  10.355  21.452  0.00  0.00    +0.000 A 
ATOM      7  C   UNL     1       0.238   9.863  22.768  0.00  0.00    +0.000 C 
ENDROOT
BRANCH   1  12
ATOM      8  C   UNL     1      -2.778  15.116  25.432  0.00  0.00    +0.000 C 
ATOM      9  C   UNL     1      -2.402  14.182  24.319  0.00  0.00    +0.000 A 
ATOM     10  C   UNL     1      -1.181  14.328  23.662  0.00  0.00    +0.000 A 
ATOM     11  C   UNL     1      -0.807  13.422  22.669  0.00  0.00    +0.000 A 
ATOM     12  C   UNL     1      -1.657  12.364  22.284  0.00  0.00    +0.000 A 
ATOM     13  C   UNL     1      -2.886  12.221  22.932  0.00  0.00    +0.000 A 
ATOM     14  C   UNL     1      -3.245  13.120  23.953  0.00  0.00    +0.000 A 
ENDBRANCH   1  12
BRANCH   5  15
ATOM     15  N   UNL     1       0.745   8.749  19.822  0.00  0.00    +0.000 N 
ATOM     16  C   UNL     1       1.759   8.777  18.870  0.00  0.00    +0.000 C 
ATOM     17  O   UNL     1       2.138   9.782  18.276  0.00  0.00    +0.000 OA
ATOM     18  H   UNL     1       0.541   7.855  20.254  0.00  0.00    +0.000 HD
BRANCH  16  19
ATOM     19  C   UNL     1       2.479   7.516  18.492  0.00  0.00    +0.000 A 
ATOM     20  C   UNL     1       3.522   7.659  17.573  0.00  0.00    +0.000 A 
ATOM     21  C   UNL     1       4.192   6.538  17.120  0.00  0.00    +0.000 A 
ATOM     22  C   UNL     1       3.807   5.292  17.589  0.00  0.00    +0.000 A 
ATOM     23  C   UNL     1       4.461   4.141  17.116  0.00  0.00    +0.000 A 
ATOM     24  C   UNL     1       4.075   2.887  17.566  0.00  0.00    +0.000 A 
ATOM     25  C   UNL     1       3.044   2.788  18.493  0.00  0.00    +0.000 A 
ATOM     26  C   UNL     1       2.398   3.942  18.967  0.00  0.00    +0.000 A 
ATOM     27  C   UNL     1       2.748   5.219  18.535  0.00  0.00    +0.000 A 
ATOM     28  N   UNL     1       2.084   6.317  18.992  0.00  0.00    +0.000 NA
ENDBRANCH  16  19
ENDBRANCH   5  15
TORSDOF 3
ENDMDL
MODEL 7
REMARK VINA RESULT:      -7.7      4.231      9.758
REMARK  Name = 
REMARK  6 active torsions:
REMARK  status: ('A' for Active; 'I' for Inactive)
REMARK    1  A    between atoms: C_1  and  C_2
REMARK    2  A    between atoms: C_5  and  N_6
REMARK    3  A    between atoms: C_8  and  C_9
REMARK    4  A    between atoms: C_10  and  N_11
REMARK    5  A    between atoms: C_12  and  C_14
REMARK    6  A    between atoms: C_24  and  C_25
REMARK                            x       y       z     vdW  Elec       q    Type
REMARK                         _______ _______ _______ _____ _____    ______ ____
ROOT
ATOM      1  N   UNL     1       1.668   7.770  20.071  0.00  0.00    +0.000 N 
ATOM      2  N   UNL     1       1.036   7.928  21.247  0.00  0.00    +0.000 NA
ATOM      3  C   UNL     1       0.745   9.220  21.338  0.00  0.00    +0.000 A 
ATOM      4  C   UNL     1       0.216   9.650  22.656  0.00  0.00    +0.000 C 
ATOM      5  C   UNL     1       0.979   9.903  20.101  0.00  0.00    +0.000 A 
ATOM      6  C   UNL     1       1.603   8.935  19.304  0.00  0.00    +0.000 A 
ATOM      7  C   UNL     1       2.040   8.975  17.882  0.00  0.00    +0.000 C 
ENDROOT
BRANCH   1  12
ATOM      8  C   UNL     1       4.188   2.616  19.686  0.00  0.00    +0.000 C 
ATOM      9  C   UNL     1       3.503   3.951  19.719  0.00  0.00    +0.000 A 
ATOM     10  C   UNL     1       2.376   4.143  20.517  0.00  0.00    +0.000 A 
ATOM     11  C   UNL     1       1.777   5.400  20.594  0.00  0.00    +0.000 A 
ATOM     12  C   UNL     1       2.269   6.493  19.850  0.00  0.00    +0.000 A 
ATOM     13  C   UNL     1       3.391   6.303  19.040  0.00  0.00    +0.000 A 
ATOM     14  C   UNL     1       4.009   5.040  18.990  0.00  0.00    +0.000 A 
ENDBRANCH   1  12
BRANCH   5  15
ATOM     15  N   UNL     1       0.665  11.216  19.689  0.00  0.00    +0.000 N 
ATOM     16  C   UNL     1       1.165  12.362  20.297  0.00  0.00    +0.000 C 
ATOM     17  O   UNL     1       1.999  12.373  21.199  0.00  0.00    +0.000 OA
ATOM     18  H   UNL     1      -0.007  11.345  18.941  0.00  0.00    +0.000 HD
BRANCH  16  19
ATOM     19  C   UNL     1       0.685  13.718  19.871  0.00  0.00    +0.000 A 
ATOM     20  C   UNL     1      -0.654  14.009  20.150  0.00  0.00    +0.000 A 
ATOM     21  C   UNL     1      -1.194  15.210  19.729  0.00  0.00    +0.000 A 
ATOM     22  C   UNL     1      -0.390  16.099  19.034  0.00  0.00    +0.000 A 
ATOM     23  C   UNL     1      -0.932  17.312  18.575  0.00  0.00    +0.000 A 
ATOM     24  C   UNL     1      -0.142  18.204  17.866  0.00  0.00    +0.000 A 
ATOM     25  C   UNL     1       1.189  17.885  17.624  0.00  0.00    +0.000 A 
ATOM     26  C   UNL     1       1.728  16.675  18.089  0.00  0.00    +0.000 A 
ATOM     27  C   UNL     1       0.968  15.747  18.797  0.00  0.00    +0.000 A 
ATOM     28  N   UNL     1       1.512  14.569  19.212  0.00  0.00    +0.000 NA
ENDBRANCH  16  19
ENDBRANCH   5  15
TORSDOF 3
ENDMDL
MODEL 8
REMARK VINA RESULT:      -7.7      3.957      6.404
REMARK  Name = 
REMARK  6 active torsions:
REMARK  status: ('A' for Active; 'I' for Inactive)
REMARK    1  A    between atoms: C_1  and  C_2
REMARK    2  A    between atoms: C_5  and  N_6
REMARK    3  A    between atoms: C_8  and  C_9
REMARK    4  A    between atoms: C_10  and  N_11
REMARK    5  A    between atoms: C_12  and  C_14
REMARK    6  A    between atoms: C_24  and  C_25
REMARK                            x       y       z     vdW  Elec       q    Type
REMARK                         _______ _______ _______ _____ _____    ______ ____
ROOT
ATOM      1  N   UNL     1       0.774  12.931  20.414  0.00  0.00    +0.000 N 
ATOM      2  N   UNL     1       0.232  12.522  21.575  0.00  0.00    +0.000 NA
ATOM      3  C   UNL     1       0.053  11.211  21.455  0.00  0.00    +0.000 A 
ATOM      4  C   UNL     1      -0.721  10.585  22.555  0.00  0.00    +0.000 C 
ATOM      5  C   UNL     1       0.697  10.694  20.285  0.00  0.00    +0.000 A 
ATOM      6  C   UNL     1       1.137  11.843  19.616  0.00  0.00    +0.000 A 
ATOM      7  C   UNL     1       1.941  12.003  18.374  0.00  0.00    +0.000 C 
ENDROOT
BRANCH   1  12
ATOM      8  C   UNL     1       1.010  18.538  19.162  0.00  0.00    +0.000 C 
ATOM      9  C   UNL     1       0.946  17.092  19.560  0.00  0.00    +0.000 A 
ATOM     10  C   UNL     1      -0.222  16.358  19.359  0.00  0.00    +0.000 A 
ATOM     11  C   UNL     1      -0.260  15.000  19.673  0.00  0.00    +0.000 A 
ATOM     12  C   UNL     1       0.860  14.345  20.227  0.00  0.00    +0.000 A 
ATOM     13  C   UNL     1       2.029  15.078  20.441  0.00  0.00    +0.000 A 
ATOM     14  C   UNL     1       2.070  16.441  20.094  0.00  0.00    +0.000 A 
ENDBRANCH   1  12
BRANCH   5  15
ATOM     15  N   UNL     1       0.909   9.369  19.849  0.00  0.00    +0.000 N 
ATOM     16  C   UNL     1       1.524   8.386  20.618  0.00  0.00    +0.000 C 
ATOM     17  O   UNL     1       1.871   8.525  21.788  0.00  0.00    +0.000 OA
ATOM     18  H   UNL     1       0.654   9.119  18.900  0.00  0.00    +0.000 HD
BRANCH  16  19
ATOM     19  C   UNL     1       1.818   7.037  20.032  0.00  0.00    +0.000 A 
ATOM     20  C   UNL     1       2.435   7.036  18.778  0.00  0.00    +0.000 A 
ATOM     21  C   UNL     1       2.678   5.835  18.138  0.00  0.00    +0.000 A 
ATOM     22  C   UNL     1       2.298   4.656  18.758  0.00  0.00    +0.000 A 
ATOM     23  C   UNL     1       2.513   3.428  18.106  0.00  0.00    +0.000 A 
ATOM     24  C   UNL     1       2.124   2.242  18.710  0.00  0.00    +0.000 A 
ATOM     25  C   UNL     1       1.528   2.285  19.965  0.00  0.00    +0.000 A 
ATOM     26  C   UNL     1       1.320   3.513  20.614  0.00  0.00    +0.000 A 
ATOM     27  C   UNL     1       1.688   4.727  20.040  0.00  0.00    +0.000 A 
ATOM     28  N   UNL     1       1.448   5.904  20.683  0.00  0.00    +0.000 NA
ENDBRANCH  16  19
ENDBRANCH   5  15
TORSDOF 3
ENDMDL
MODEL 9
REMARK VINA RESULT:      -7.5      3.848      6.242
REMARK  Name = 
REMARK  6 active torsions:
REMARK  status: ('A' for Active; 'I' for Inactive)
REMARK    1  A    between atoms: C_1  and  C_2
REMARK    2  A    between atoms: C_5  and  N_6
REMARK    3  A    between atoms: C_8  and  C_9
REMARK    4  A    between atoms: C_10  and  N_11
REMARK    5  A    between atoms: C_12  and  C_14
REMARK    6  A    between atoms: C_24  and  C_25
REMARK                            x       y       z     vdW  Elec       q    Type
REMARK                         _______ _______ _______ _____ _____    ______ ____
ROOT
ATOM      1  N   UNL     1      -0.648  12.251  21.918  0.00  0.00    +0.000 N 
ATOM      2  N   UNL     1      -0.092  12.807  20.827  0.00  0.00    +0.000 NA
ATOM      3  C   UNL     1       0.834  11.951  20.410  0.00  0.00    +0.000 A 
ATOM      4  C   UNL     1       1.710  12.460  19.326  0.00  0.00    +0.000 C 
ATOM      5  C   UNL     1       0.741  10.696  21.094  0.00  0.00    +0.000 A 
ATOM      6  C   UNL     1      -0.219  10.933  22.087  0.00  0.00    +0.000 A 
ATOM      7  C   UNL     1      -0.831  10.021  23.091  0.00  0.00    +0.000 C 
ENDROOT
BRANCH   1  12
ATOM      8  C   UNL     1      -4.316  15.853  24.493  0.00  0.00    +0.000 C 
ATOM      9  C   UNL     1      -3.357  14.874  23.882  0.00  0.00    +0.000 A 
ATOM     10  C   UNL     1      -3.794  13.979  22.906  0.00  0.00    +0.000 A 
ATOM     11  C   UNL     1      -2.888  13.111  22.296  0.00  0.00    +0.000 A 
ATOM     12  C   UNL     1      -1.528  13.090  22.669  0.00  0.00    +0.000 A 
ATOM     13  C   UNL     1      -1.088  13.976  23.655  0.00  0.00    +0.000 A 
ATOM     14  C   UNL     1      -2.000  14.870  24.245  0.00  0.00    +0.000 A 
ENDBRANCH   1  12
BRANCH   5  15
ATOM     15  N   UNL     1       1.393   9.465  20.872  0.00  0.00    +0.000 N 
ATOM     16  C   UNL     1       1.407   8.802  19.649  0.00  0.00    +0.000 C 
ATOM     17  O   UNL     1       0.936   9.244  18.605  0.00  0.00    +0.000 OA
ATOM     18  H   UNL     1       1.835   8.997  21.655  0.00  0.00    +0.000 HD
BRANCH  16  19
ATOM     19  C   UNL     1       2.023   7.439  19.532  0.00  0.00    +0.000 A 
ATOM     20  C   UNL     1       2.777   7.205  18.378  0.00  0.00    +0.000 A 
ATOM     21  C   UNL     1       3.322   5.954  18.161  0.00  0.00    +0.000 A 
ATOM     22  C   UNL     1       3.101   4.955  19.095  0.00  0.00    +0.000 A 
ATOM     23  C   UNL     1       3.625   3.669  18.874  0.00  0.00    +0.000 A 
ATOM     24  C   UNL     1       3.399   2.657  19.794  0.00  0.00    +0.000 A 
ATOM     25  C   UNL     1       2.658   2.934  20.937  0.00  0.00    +0.000 A 
ATOM     26  C   UNL     1       2.141   4.222  21.157  0.00  0.00    +0.000 A 
ATOM     27  C   UNL     1       2.337   5.264  20.254  0.00  0.00    +0.000 A 
ATOM     28  N   UNL     1       1.800   6.495  20.482  0.00  0.00    +0.000 NA
ENDBRANCH  16  19
ENDBRANCH   5  15
TORSDOF 3
ENDMDL
