MODEL 1
REMARK VINA RESULT:      -9.5      0.000      0.000
REMARK  Name = 
REMARK  6 active torsions:
REMARK  status: ('A' for Active; 'I' for Inactive)
REMARK    1  A    between atoms: C_2  and  C_3
REMARK    2  A    between atoms: C_3  and  O_4
REMARK    3  A    between atoms: O_4  and  C_5
REMARK    4  A    between atoms: N_15  and  C_16
REMARK    5  A    between atoms: C_20  and  S_21
REMARK    6  A    between atoms: S_21  and  N_24
REMARK                            x       y       z     vdW  Elec       q    Type
REMARK                         _______ _______ _______ _____ _____    ______ ____
ROOT
ATOM      1  O   UNL     1       8.277   7.208  18.767  0.00  0.00    +0.000 OA
ATOM      2  C   UNL     1       7.860   7.943  17.873  0.00  0.00    +0.000 C 
ATOM      3  N   UNL     1       6.946   7.587  16.888  0.00  0.00    +0.000 N 
ATOM      4  H   UNL     1       6.883   8.188  16.075  0.00  0.00    +0.000 HD
ENDROOT
BRANCH   3   5
ATOM      5  C   UNL     1       6.299   6.327  16.813  0.00  0.00    +0.000 A 
ATOM      6  C   UNL     1       6.923   5.204  16.255  0.00  0.00    +0.000 A 
ATOM      7  C   UNL     1       6.222   4.024  16.017  0.00  0.00    +0.000 A 
ATOM      8  C   UNL     1       4.902   3.919  16.418  0.00  0.00    +0.000 A 
ATOM      9  C   UNL     1       4.325   4.964  17.143  0.00  0.00    +0.000 A 
ATOM     10  C   UNL     1       4.994   6.190  17.305  0.00  0.00    +0.000 A 
BRANCH   9  11
ATOM     11  S   UNL     1       2.728   4.689  17.875  0.00  0.00    +0.000 S 
ATOM     12  O   UNL     1       2.109   5.982  18.077  0.00  0.00    +0.000 OA
ATOM     13  O   UNL     1       2.065   3.653  17.102  0.00  0.00    +0.000 OA
BRANCH  11  14
ATOM     14  N   UNL     1       3.103   4.036  19.403  0.00  0.00    +0.000 NA
ATOM     15  C   UNL     1       3.028   2.577  19.585  0.00  0.00    +0.000 C 
ATOM     16  C   UNL     1       1.759   2.368  20.389  0.00  0.00    +0.000 C 
ATOM     17  C   UNL     1       1.698   3.581  21.300  0.00  0.00    +0.000 C 
ATOM     18  C   UNL     1       2.524   4.669  20.613  0.00  0.00    +0.000 C 
ENDBRANCH  11  14
ENDBRANCH   9  11
ENDBRANCH   3   5
BRANCH   2  19
ATOM     19  C   UNL     1       8.338   9.392  17.817  0.00  0.00    +0.000 C 
BRANCH  19  20
ATOM     20  O   UNL     1       9.096   9.709  18.977  0.00  0.00    +0.000 OA
BRANCH  20  21
ATOM     21  C   UNL     1       9.746  10.924  18.977  0.00  0.00    +0.000 A 
ATOM     22  C   UNL     1      10.495  11.401  17.894  0.00  0.00    +0.000 A 
ATOM     23  C   UNL     1      11.132  12.639  17.959  0.00  0.00    +0.000 A 
ATOM     24  C   UNL     1      11.020  13.420  19.103  0.00  0.00    +0.000 A 
ATOM     25  C   UNL     1      10.257  12.983  20.193  0.00  0.00    +0.000 A 
ATOM     26  C   UNL     1      10.143  13.788  21.338  0.00  0.00    +0.000 A 
ATOM     27  C   UNL     1       9.383  13.375  22.431  0.00  0.00    +0.000 A 
ATOM     28  C   UNL     1       8.725  12.153  22.389  0.00  0.00    +0.000 A 
ATOM     29  C   UNL     1       8.829  11.340  21.258  0.00  0.00    +0.000 A 
ATOM     30  C   UNL     1       9.599  11.728  20.138  0.00  0.00    +0.000 A 
ENDBRANCH  20  21
ENDBRANCH  19  20
ENDBRANCH   2  19
TORSDOF 6
ENDMDL
MODEL 2
REMARK VINA RESULT:      -9.4      1.220      1.473
REMARK  Name = 
REMARK  6 active torsions:
REMARK  status: ('A' for Active; 'I' for Inactive)
REMARK    1  A    between atoms: C_2  and  C_3
REMARK    2  A    between atoms: C_3  and  O_4
REMARK    3  A    between atoms: O_4  and  C_5
REMARK    4  A    between atoms: N_15  and  C_16
REMARK    5  A    between atoms: C_20  and  S_21
REMARK    6  A    between atoms: S_21  and  N_24
REMARK                            x       y       z     vdW  Elec       q    Type
REMARK                         _______ _______ _______ _____ _____    ______ ____
ROOT
ATOM      1  O   UNL     1       8.264   6.986  18.722  0.00  0.00    +0.000 OA
ATOM      2  C   UNL     1       7.798   7.732  17.863  0.00  0.00    +0.000 C 
ATOM      3  N   UNL     1       6.990   7.344  16.800  0.00  0.00    +0.000 N 
ATOM      4  H   UNL     1       6.887   7.998  16.033  0.00  0.00    +0.000 HD
ENDROOT
BRANCH   3   5
ATOM      5  C   UNL     1       6.522   6.022  16.591  0.00  0.00    +0.000 A 
ATOM      6  C   UNL     1       6.858   5.288  15.445  0.00  0.00    +0.000 A 
ATOM      7  C   UNL     1       6.251   4.068  15.157  0.00  0.00    +0.000 A 
ATOM      8  C   UNL     1       5.360   3.517  16.061  0.00  0.00    +0.000 A 
ATOM      9  C   UNL     1       5.161   4.146  17.292  0.00  0.00    +0.000 A 
ATOM     10  C   UNL     1       5.696   5.421  17.549  0.00  0.00    +0.000 A 
BRANCH   9  11
ATOM     11  S   UNL     1       4.228   3.278  18.532  0.00  0.00    +0.000 S 
ATOM     12  O   UNL     1       3.651   2.106  17.908  0.00  0.00    +0.000 OA
ATOM     13  O   UNL     1       5.070   3.162  19.711  0.00  0.00    +0.000 OA
BRANCH  11  14
ATOM     14  N   UNL     1       2.964   4.358  18.902  0.00  0.00    +0.000 NA
ATOM     15  C   UNL     1       3.016   5.096  20.176  0.00  0.00    +0.000 C 
ATOM     16  C   UNL     1       1.980   4.409  21.044  0.00  0.00    +0.000 C 
ATOM     17  C   UNL     1       0.891   4.004  20.066  0.00  0.00    +0.000 C 
ATOM     18  C   UNL     1       1.564   3.917  18.696  0.00  0.00    +0.000 C 
ENDBRANCH  11  14
ENDBRANCH   9  11
ENDBRANCH   3   5
BRANCH   2  19
ATOM     19  C   UNL     1       8.079   9.231  17.947  0.00  0.00    +0.000 C 
BRANCH  19  20
ATOM     20  O   UNL     1       8.967   9.509  19.021  0.00  0.00    +0.000 OA
BRANCH  20  21
ATOM     21  C   UNL     1       9.655  10.702  18.960  0.00  0.00    +0.000 A 
ATOM     22  C   UNL     1      10.393  11.113  17.843  0.00  0.00    +0.000 A 
ATOM     23  C   UNL     1      11.070  12.330  17.846  0.00  0.00    +0.000 A 
ATOM     24  C   UNL     1      11.012  13.157  18.962  0.00  0.00    +0.000 A 
ATOM     25  C   UNL     1      10.263  12.786  20.085  0.00  0.00    +0.000 A 
ATOM     26  C   UNL     1      10.202  13.636  21.201  0.00  0.00    +0.000 A 
ATOM     27  C   UNL     1       9.456  13.290  22.327  0.00  0.00    +0.000 A 
ATOM     28  C   UNL     1       8.758  12.090  22.346  0.00  0.00    +0.000 A 
ATOM     29  C   UNL     1       8.808  11.232  21.244  0.00  0.00    +0.000 A 
ATOM     30  C   UNL     1       9.563  11.552  20.093  0.00  0.00    +0.000 A 
ENDBRANCH  20  21
ENDBRANCH  19  20
ENDBRANCH   2  19
TORSDOF 6
ENDMDL
MODEL 3
REMARK VINA RESULT:      -9.2      1.280      1.604
REMARK  Name = 
REMARK  6 active torsions:
REMARK  status: ('A' for Active; 'I' for Inactive)
REMARK    1  A    between atoms: C_2  and  C_3
REMARK    2  A    between atoms: C_3  and  O_4
REMARK    3  A    between atoms: O_4  and  C_5
REMARK    4  A    between atoms: N_15  and  C_16
REMARK    5  A    between atoms: C_20  and  S_21
REMARK    6  A    between atoms: S_21  and  N_24
REMARK                            x       y       z     vdW  Elec       q    Type
REMARK                         _______ _______ _______ _____ _____    ______ ____
ROOT
ATOM      1  O   UNL     1       8.591   7.439  18.902  0.00  0.00    +0.000 OA
ATOM      2  C   UNL     1       8.102   8.154  18.029  0.00  0.00    +0.000 C 
ATOM      3  N   UNL     1       7.203   7.744  17.051  0.00  0.00    +0.000 N 
ATOM      4  H   UNL     1       7.079   8.354  16.251  0.00  0.00    +0.000 HD
ENDROOT
BRANCH   3   5
ATOM      5  C   UNL     1       6.659   6.438  16.960  0.00  0.00    +0.000 A 
ATOM      6  C   UNL     1       6.957   5.581  15.892  0.00  0.00    +0.000 A 
ATOM      7  C   UNL     1       6.280   4.378  15.712  0.00  0.00    +0.000 A 
ATOM      8  C   UNL     1       5.352   3.967  16.654  0.00  0.00    +0.000 A 
ATOM      9  C   UNL     1       5.183   4.720  17.817  0.00  0.00    +0.000 A 
ATOM     10  C   UNL     1       5.792   5.979  17.961  0.00  0.00    +0.000 A 
BRANCH   9  11
ATOM     11  S   UNL     1       4.192   4.029  19.122  0.00  0.00    +0.000 S 
ATOM     12  O   UNL     1       4.905   2.890  19.658  0.00  0.00    +0.000 OA
ATOM     13  O   UNL     1       3.773   5.124  19.981  0.00  0.00    +0.000 OA
BRANCH  11  14
ATOM     14  N   UNL     1       2.812   3.454  18.305  0.00  0.00    +0.000 NA
ATOM     15  C   UNL     1       1.544   4.188  18.458  0.00  0.00    +0.000 C 
ATOM     16  C   UNL     1       0.718   3.314  19.381  0.00  0.00    +0.000 C 
ATOM     17  C   UNL     1       1.115   1.899  19.000  0.00  0.00    +0.000 C 
ATOM     18  C   UNL     1       2.500   2.006  18.361  0.00  0.00    +0.000 C 
ENDBRANCH  11  14
ENDBRANCH   9  11
ENDBRANCH   3   5
BRANCH   2  19
ATOM     19  C   UNL     1       8.461   9.638  17.995  0.00  0.00    +0.000 C 
BRANCH  19  20
ATOM     20  O   UNL     1       9.383   9.949  19.031  0.00  0.00    +0.000 OA
BRANCH  20  21
ATOM     21  C   UNL     1      10.011  11.172  18.951  0.00  0.00    +0.000 A 
ATOM     22  C   UNL     1      10.776  11.579  17.851  0.00  0.00    +0.000 A 
ATOM     23  C   UNL     1      11.390  12.830  17.834  0.00  0.00    +0.000 A 
ATOM     24  C   UNL     1      11.241  13.694  18.912  0.00  0.00    +0.000 A 
ATOM     25  C   UNL     1      10.462  13.327  20.017  0.00  0.00    +0.000 A 
ATOM     26  C   UNL     1      10.309  14.215  21.094  0.00  0.00    +0.000 A 
ATOM     27  C   UNL     1       9.532  13.872  22.200  0.00  0.00    +0.000 A 
ATOM     28  C   UNL     1       8.896  12.639  22.238  0.00  0.00    +0.000 A 
ATOM     29  C   UNL     1       9.039  11.744  21.175  0.00  0.00    +0.000 A 
ATOM     30  C   UNL     1       9.826  12.060  20.045  0.00  0.00    +0.000 A 
ENDBRANCH  20  21
ENDBRANCH  19  20
ENDBRANCH   2  19
TORSDOF 6
ENDMDL
MODEL 4
REMARK VINA RESULT:      -9.1      0.839      2.148
REMARK  Name = 
REMARK  6 active torsions:
REMARK  status: ('A' for Active; 'I' for Inactive)
REMARK    1  A    between atoms: C_2  and  C_3
REMARK    2  A    between atoms: C_3  and  O_4
REMARK    3  A    between atoms: O_4  and  C_5
REMARK    4  A    between atoms: N_15  and  C_16
REMARK    5  A    between atoms: C_20  and  S_21
REMARK    6  A    between atoms: S_21  and  N_24
REMARK                            x       y       z     vdW  Elec       q    Type
REMARK                         _______ _______ _______ _____ _____    ______ ____
ROOT
ATOM      1  O   UNL     1       8.296   7.151  18.742  0.00  0.00    +0.000 OA
ATOM      2  C   UNL     1       7.779   7.978  17.992  0.00  0.00    +0.000 C 
ATOM      3  N   UNL     1       6.717   7.740  17.128  0.00  0.00    +0.000 N 
ATOM      4  H   UNL     1       6.557   8.419  16.393  0.00  0.00    +0.000 HD
ENDROOT
BRANCH   3   5
ATOM      5  C   UNL     1       6.019   6.509  17.035  0.00  0.00    +0.000 A 
ATOM      6  C   UNL     1       6.542   5.410  16.341  0.00  0.00    +0.000 A 
ATOM      7  C   UNL     1       5.777   4.272  16.096  0.00  0.00    +0.000 A 
ATOM      8  C   UNL     1       4.502   4.178  16.624  0.00  0.00    +0.000 A 
ATOM      9  C   UNL     1       4.040   5.185  17.474  0.00  0.00    +0.000 A 
ATOM     10  C   UNL     1       4.767   6.375  17.649  0.00  0.00    +0.000 A 
BRANCH   9  11
ATOM     11  S   UNL     1       2.516   4.906  18.348  0.00  0.00    +0.000 S 
ATOM     12  O   UNL     1       2.411   5.915  19.380  0.00  0.00    +0.000 OA
ATOM     13  O   UNL     1       1.468   4.735  17.356  0.00  0.00    +0.000 OA
BRANCH  11  14
ATOM     14  N   UNL     1       2.766   3.400  19.103  0.00  0.00    +0.000 NA
ATOM     15  C   UNL     1       1.618   2.491  19.264  0.00  0.00    +0.000 C 
ATOM     16  C   UNL     1       1.275   2.584  20.738  0.00  0.00    +0.000 C 
ATOM     17  C   UNL     1       2.621   2.765  21.417  0.00  0.00    +0.000 C 
ATOM     18  C   UNL     1       3.555   3.351  20.358  0.00  0.00    +0.000 C 
ENDBRANCH  11  14
ENDBRANCH   9  11
ENDBRANCH   3   5
BRANCH   2  19
ATOM     19  C   UNL     1       8.297   9.414  18.000  0.00  0.00    +0.000 C 
BRANCH  19  20
ATOM     20  O   UNL     1       9.452   9.520  18.821  0.00  0.00    +0.000 OA
BRANCH  20  21
ATOM     21  C   UNL     1       9.571  10.670  19.572  0.00  0.00    +0.000 A 
ATOM     22  C   UNL     1       9.061  10.803  20.870  0.00  0.00    +0.000 A 
ATOM     23  C   UNL     1       9.213  11.995  21.575  0.00  0.00    +0.000 A 
ATOM     24  C   UNL     1       9.882  13.067  20.996  0.00  0.00    +0.000 A 
ATOM     25  C   UNL     1      10.425  12.958  19.710  0.00  0.00    +0.000 A 
ATOM     26  C   UNL     1      11.109  14.044  19.142  0.00  0.00    +0.000 A 
ATOM     27  C   UNL     1      11.664  13.953  17.866  0.00  0.00    +0.000 A 
ATOM     28  C   UNL     1      11.542  12.772  17.146  0.00  0.00    +0.000 A 
ATOM     29  C   UNL     1      10.863  11.682  17.696  0.00  0.00    +0.000 A 
ATOM     30  C   UNL     1      10.284  11.748  18.983  0.00  0.00    +0.000 A 
ENDBRANCH  20  21
ENDBRANCH  19  20
ENDBRANCH   2  19
TORSDOF 6
ENDMDL
MODEL 5
REMARK VINA RESULT:      -8.9      5.391      8.092
REMARK  Name = 
REMARK  6 active torsions:
REMARK  status: ('A' for Active; 'I' for Inactive)
REMARK    1  A    between atoms: C_2  and  C_3
REMARK    2  A    between atoms: C_3  and  O_4
REMARK    3  A    between atoms: O_4  and  C_5
REMARK    4  A    between atoms: N_15  and  C_16
REMARK    5  A    between atoms: C_20  and  S_21
REMARK    6  A    between atoms: S_21  and  N_24
REMARK                            x       y       z     vdW  Elec       q    Type
REMARK                         _______ _______ _______ _____ _____    ______ ____
ROOT
ATOM      1  O   UNL     1       2.186   7.836  19.558  0.00  0.00    +0.000 OA
ATOM      2  C   UNL     1       2.428   8.256  18.428  0.00  0.00    +0.000 C 
ATOM      3  N   UNL     1       3.262   7.648  17.496  0.00  0.00    +0.000 N 
ATOM      4  H   UNL     1       3.575   8.214  16.716  0.00  0.00    +0.000 HD
ENDROOT
BRANCH   3   5
ATOM      5  C   UNL     1       3.909   6.402  17.692  0.00  0.00    +0.000 A 
ATOM      6  C   UNL     1       5.298   6.301  17.842  0.00  0.00    +0.000 A 
ATOM      7  C   UNL     1       5.943   5.067  17.848  0.00  0.00    +0.000 A 
ATOM      8  C   UNL     1       5.195   3.903  17.796  0.00  0.00    +0.000 A 
ATOM      9  C   UNL     1       3.802   3.987  17.837  0.00  0.00    +0.000 A 
ATOM     10  C   UNL     1       3.146   5.227  17.736  0.00  0.00    +0.000 A 
BRANCH   9  11
ATOM     11  S   UNL     1       2.881   2.479  18.043  0.00  0.00    +0.000 S 
ATOM     12  O   UNL     1       1.702   2.567  17.208  0.00  0.00    +0.000 OA
ATOM     13  O   UNL     1       3.815   1.374  17.909  0.00  0.00    +0.000 OA
BRANCH  11  14
ATOM     14  N   UNL     1       2.383   2.542  19.671  0.00  0.00    +0.000 NA
ATOM     15  C   UNL     1       0.963   2.799  19.966  0.00  0.00    +0.000 C 
ATOM     16  C   UNL     1       0.938   4.236  20.448  0.00  0.00    +0.000 C 
ATOM     17  C   UNL     1       2.249   4.395  21.197  0.00  0.00    +0.000 C 
ATOM     18  C   UNL     1       3.190   3.328  20.635  0.00  0.00    +0.000 C 
ENDBRANCH  11  14
ENDBRANCH   9  11
ENDBRANCH   3   5
BRANCH   2  19
ATOM     19  C   UNL     1       1.752   9.538  17.950  0.00  0.00    +0.000 C 
BRANCH  19  20
ATOM     20  O   UNL     1       0.352   9.337  17.806  0.00  0.00    +0.000 OA
BRANCH  20  21
ATOM     21  C   UNL     1      -0.470  10.237  18.449  0.00  0.00    +0.000 A 
ATOM     22  C   UNL     1      -0.117  10.902  19.630  0.00  0.00    +0.000 A 
ATOM     23  C   UNL     1      -0.997  11.799  20.232  0.00  0.00    +0.000 A 
ATOM     24  C   UNL     1      -2.238  12.049  19.658  0.00  0.00    +0.000 A 
ATOM     25  C   UNL     1      -2.612  11.419  18.465  0.00  0.00    +0.000 A 
ATOM     26  C   UNL     1      -3.864  11.690  17.889  0.00  0.00    +0.000 A 
ATOM     27  C   UNL     1      -4.252  11.079  16.698  0.00  0.00    +0.000 A 
ATOM     28  C   UNL     1      -3.389  10.193  16.066  0.00  0.00    +0.000 A 
ATOM     29  C   UNL     1      -2.140   9.911  16.626  0.00  0.00    +0.000 A 
ATOM     30  C   UNL     1      -1.723  10.509  17.837  0.00  0.00    +0.000 A 
ENDBRANCH  20  21
ENDBRANCH  19  20
ENDBRANCH   2  19
TORSDOF 6
ENDMDL
MODEL 6
REMARK VINA RESULT:      -8.7      1.555      2.687
REMARK  Name = 
REMARK  6 active torsions:
REMARK  status: ('A' for Active; 'I' for Inactive)
REMARK    1  A    between atoms: C_2  and  C_3
REMARK    2  A    between atoms: C_3  and  O_4
REMARK    3  A    between atoms: O_4  and  C_5
REMARK    4  A    between atoms: N_15  and  C_16
REMARK    5  A    between atoms: C_20  and  S_21
REMARK    6  A    between atoms: S_21  and  N_24
REMARK                            x       y       z     vdW  Elec       q    Type
REMARK                         _______ _______ _______ _____ _____    ______ ____
ROOT
ATOM      1  O   UNL     1       7.587   8.330  16.859  0.00  0.00    +0.000 OA
ATOM      2  C   UNL     1       7.951   7.892  17.949  0.00  0.00    +0.000 C 
ATOM      3  N   UNL     1       7.617   6.651  18.479  0.00  0.00    +0.000 N 
ATOM      4  H   UNL     1       7.763   6.518  19.473  0.00  0.00    +0.000 HD
ENDROOT
BRANCH   3   5
ATOM      5  C   UNL     1       6.854   5.668  17.799  0.00  0.00    +0.000 A 
ATOM      6  C   UNL     1       6.948   5.483  16.413  0.00  0.00    +0.000 A 
ATOM      7  C   UNL     1       6.068   4.648  15.728  0.00  0.00    +0.000 A 
ATOM      8  C   UNL     1       5.134   3.911  16.435  0.00  0.00    +0.000 A 
ATOM      9  C   UNL     1       5.154   3.944  17.831  0.00  0.00    +0.000 A 
ATOM     10  C   UNL     1       5.974   4.852  18.523  0.00  0.00    +0.000 A 
BRANCH   9  11
ATOM     11  S   UNL     1       4.128   2.786  18.708  0.00  0.00    +0.000 S 
ATOM     12  O   UNL     1       3.760   1.737  17.782  0.00  0.00    +0.000 OA
ATOM     13  O   UNL     1       4.791   2.479  19.964  0.00  0.00    +0.000 OA
BRANCH  11  14
ATOM     14  N   UNL     1       2.731   3.692  19.066  0.00  0.00    +0.000 NA
ATOM     15  C   UNL     1       2.829   4.783  20.050  0.00  0.00    +0.000 C 
ATOM     16  C   UNL     1       2.152   4.228  21.288  0.00  0.00    +0.000 C 
ATOM     17  C   UNL     1       1.035   3.359  20.737  0.00  0.00    +0.000 C 
ATOM     18  C   UNL     1       1.459   2.973  19.319  0.00  0.00    +0.000 C 
ENDBRANCH  11  14
ENDBRANCH   9  11
ENDBRANCH   3   5
BRANCH   2  19
ATOM     19  C   UNL     1       8.877   8.738  18.819  0.00  0.00    +0.000 C 
BRANCH  19  20
ATOM     20  O   UNL     1       8.882  10.087  18.372  0.00  0.00    +0.000 OA
BRANCH  20  21
ATOM     21  C   UNL     1       9.419  11.021  19.232  0.00  0.00    +0.000 A 
ATOM     22  C   UNL     1       9.186  11.025  20.613  0.00  0.00    +0.000 A 
ATOM     23  C   UNL     1       9.756  12.000  21.428  0.00  0.00    +0.000 A 
ATOM     24  C   UNL     1      10.573  12.980  20.876  0.00  0.00    +0.000 A 
ATOM     25  C   UNL     1      10.846  12.989  19.502  0.00  0.00    +0.000 A 
ATOM     26  C   UNL     1      11.683  13.977  18.959  0.00  0.00    +0.000 A 
ATOM     27  C   UNL     1      11.973  13.999  17.595  0.00  0.00    +0.000 A 
ATOM     28  C   UNL     1      11.432  13.031  16.761  0.00  0.00    +0.000 A 
ATOM     29  C   UNL     1      10.596  12.041  17.285  0.00  0.00    +0.000 A 
ATOM     30  C   UNL     1      10.277  11.998  18.661  0.00  0.00    +0.000 A 
ENDBRANCH  20  21
ENDBRANCH  19  20
ENDBRANCH   2  19
TORSDOF 6
ENDMDL
MODEL 7
REMARK VINA RESULT:      -8.6      5.487      8.663
REMARK  Name = 
REMARK  6 active torsions:
REMARK  status: ('A' for Active; 'I' for Inactive)
REMARK    1  A    between atoms: C_2  and  C_3
REMARK    2  A    between atoms: C_3  and  O_4
REMARK    3  A    between atoms: O_4  and  C_5
REMARK    4  A    between atoms: N_15  and  C_16
REMARK    5  A    between atoms: C_20  and  S_21
REMARK    6  A    between atoms: S_21  and  N_24
REMARK                            x       y       z     vdW  Elec       q    Type
REMARK                         _______ _______ _______ _____ _____    ______ ____
ROOT
ATOM      1  O   UNL     1       1.738   6.933  20.811  0.00  0.00    +0.000 OA
ATOM      2  C   UNL     1       1.813   7.808  19.951  0.00  0.00    +0.000 C 
ATOM      3  N   UNL     1       2.379   7.662  18.689  0.00  0.00    +0.000 N 
ATOM      4  H   UNL     1       2.606   8.510  18.183  0.00  0.00    +0.000 HD
ENDROOT
BRANCH   3   5
ATOM      5  C   UNL     1       2.896   6.445  18.179  0.00  0.00    +0.000 A 
ATOM      6  C   UNL     1       2.343   5.203  18.518  0.00  0.00    +0.000 A 
ATOM      7  C   UNL     1       2.965   4.008  18.165  0.00  0.00    +0.000 A 
ATOM      8  C   UNL     1       4.106   4.035  17.383  0.00  0.00    +0.000 A 
ATOM      9  C   UNL     1       4.559   5.257  16.881  0.00  0.00    +0.000 A 
ATOM     10  C   UNL     1       3.994   6.471  17.309  0.00  0.00    +0.000 A 
BRANCH   9  11
ATOM     11  S   UNL     1       5.858   5.230  15.666  0.00  0.00    +0.000 S 
ATOM     12  O   UNL     1       5.932   3.888  15.132  0.00  0.00    +0.000 OA
ATOM     13  O   UNL     1       5.663   6.375  14.793  0.00  0.00    +0.000 OA
BRANCH  11  14
ATOM     14  N   UNL     1       7.263   5.514  16.586  0.00  0.00    +0.000 NA
ATOM     15  C   UNL     1       7.602   4.571  17.666  0.00  0.00    +0.000 C 
ATOM     16  C   UNL     1       7.251   5.321  18.936  0.00  0.00    +0.000 C 
ATOM     17  C   UNL     1       7.582   6.767  18.613  0.00  0.00    +0.000 C 
ATOM     18  C   UNL     1       7.524   6.884  17.089  0.00  0.00    +0.000 C 
ENDBRANCH  11  14
ENDBRANCH   9  11
ENDBRANCH   3   5
BRANCH   2  19
ATOM     19  C   UNL     1       1.218   9.185  20.237  0.00  0.00    +0.000 C 
BRANCH  19  20
ATOM     20  O   UNL     1       0.506   9.663  19.103  0.00  0.00    +0.000 OA
BRANCH  20  21
ATOM     21  C   UNL     1      -0.525  10.544  19.348  0.00  0.00    +0.000 A 
ATOM     22  C   UNL     1      -0.572  11.390  20.463  0.00  0.00    +0.000 A 
ATOM     23  C   UNL     1      -1.646  12.257  20.655  0.00  0.00    +0.000 A 
ATOM     24  C   UNL     1      -2.683  12.295  19.731  0.00  0.00    +0.000 A 
ATOM     25  C   UNL     1      -2.654  11.480  18.592  0.00  0.00    +0.000 A 
ATOM     26  C   UNL     1      -3.703  11.538  17.660  0.00  0.00    +0.000 A 
ATOM     27  C   UNL     1      -3.690  10.740  16.517  0.00  0.00    +0.000 A 
ATOM     28  C   UNL     1      -2.625   9.879  16.291  0.00  0.00    +0.000 A 
ATOM     29  C   UNL     1      -1.574   9.808  17.210  0.00  0.00    +0.000 A 
ATOM     30  C   UNL     1      -1.564  10.598  18.381  0.00  0.00    +0.000 A 
ENDBRANCH  20  21
ENDBRANCH  19  20
ENDBRANCH   2  19
TORSDOF 6
ENDMDL
MODEL 8
REMARK VINA RESULT:      -8.4      1.652      2.160
REMARK  Name = 
REMARK  6 active torsions:
REMARK  status: ('A' for Active; 'I' for Inactive)
REMARK    1  A    between atoms: C_2  and  C_3
REMARK    2  A    between atoms: C_3  and  O_4
REMARK    3  A    between atoms: O_4  and  C_5
REMARK    4  A    between atoms: N_15  and  C_16
REMARK    5  A    between atoms: C_20  and  S_21
REMARK    6  A    between atoms: S_21  and  N_24
REMARK                            x       y       z     vdW  Elec       q    Type
REMARK                         _______ _______ _______ _____ _____    ______ ____
ROOT
ATOM      1  O   UNL     1       6.971   8.351  16.910  0.00  0.00    +0.000 OA
ATOM      2  C   UNL     1       7.653   7.846  17.800  0.00  0.00    +0.000 C 
ATOM      3  N   UNL     1       7.666   6.500  18.150  0.00  0.00    +0.000 N 
ATOM      4  H   UNL     1       8.066   6.259  19.049  0.00  0.00    +0.000 HD
ENDROOT
BRANCH   3   5
ATOM      5  C   UNL     1       6.936   5.490  17.474  0.00  0.00    +0.000 A 
ATOM      6  C   UNL     1       7.388   4.922  16.276  0.00  0.00    +0.000 A 
ATOM      7  C   UNL     1       6.584   4.069  15.524  0.00  0.00    +0.000 A 
ATOM      8  C   UNL     1       5.343   3.695  16.009  0.00  0.00    +0.000 A 
ATOM      9  C   UNL     1       4.959   4.103  17.288  0.00  0.00    +0.000 A 
ATOM     10  C   UNL     1       5.723   5.037  18.010  0.00  0.00    +0.000 A 
BRANCH   9  11
ATOM     11  S   UNL     1       3.489   3.388  17.986  0.00  0.00    +0.000 S 
ATOM     12  O   UNL     1       2.359   3.878  17.227  0.00  0.00    +0.000 OA
ATOM     13  O   UNL     1       3.727   1.963  18.141  0.00  0.00    +0.000 OA
BRANCH  11  14
ATOM     14  N   UNL     1       3.419   4.074  19.544  0.00  0.00    +0.000 NA
ATOM     15  C   UNL     1       3.021   3.219  20.675  0.00  0.00    +0.000 C 
ATOM     16  C   UNL     1       1.604   3.657  20.989  0.00  0.00    +0.000 C 
ATOM     17  C   UNL     1       1.608   5.149  20.703  0.00  0.00    +0.000 C 
ATOM     18  C   UNL     1       2.753   5.387  19.717  0.00  0.00    +0.000 C 
ENDBRANCH  11  14
ENDBRANCH   9  11
ENDBRANCH   3   5
BRANCH   2  19
ATOM     19  C   UNL     1       8.607   8.730  18.599  0.00  0.00    +0.000 C 
BRANCH  19  20
ATOM     20  O   UNL     1       8.650  10.039  18.046  0.00  0.00    +0.000 OA
BRANCH  20  21
ATOM     21  C   UNL     1       9.264  11.010  18.808  0.00  0.00    +0.000 A 
ATOM     22  C   UNL     1      10.241  10.735  19.772  0.00  0.00    +0.000 A 
ATOM     23  C   UNL     1      10.820  11.764  20.512  0.00  0.00    +0.000 A 
ATOM     24  C   UNL     1      10.437  13.082  20.292  0.00  0.00    +0.000 A 
ATOM     25  C   UNL     1       9.480  13.393  19.317  0.00  0.00    +0.000 A 
ATOM     26  C   UNL     1       9.111  14.729  19.096  0.00  0.00    +0.000 A 
ATOM     27  C   UNL     1       8.166  15.060  18.125  0.00  0.00    +0.000 A 
ATOM     28  C   UNL     1       7.584  14.057  17.362  0.00  0.00    +0.000 A 
ATOM     29  C   UNL     1       7.939  12.722  17.570  0.00  0.00    +0.000 A 
ATOM     30  C   UNL     1       8.887  12.356  18.552  0.00  0.00    +0.000 A 
ENDBRANCH  20  21
ENDBRANCH  19  20
ENDBRANCH   2  19
TORSDOF 6
ENDMDL
MODEL 9
REMARK VINA RESULT:      -8.4      0.824      1.214
REMARK  Name = 
REMARK  6 active torsions:
REMARK  status: ('A' for Active; 'I' for Inactive)
REMARK    1  A    between atoms: C_2  and  C_3
REMARK    2  A    between atoms: C_3  and  O_4
REMARK    3  A    between atoms: O_4  and  C_5
REMARK    4  A    between atoms: N_15  and  C_16
REMARK    5  A    between atoms: C_20  and  S_21
REMARK    6  A    between atoms: S_21  and  N_24
REMARK                            x       y       z     vdW  Elec       q    Type
REMARK                         _______ _______ _______ _____ _____    ______ ____
ROOT
ATOM      1  O   UNL     1       8.051   6.900  18.632  0.00  0.00    +0.000 OA
ATOM      2  C   UNL     1       7.593   7.689  17.808  0.00  0.00    +0.000 C 
ATOM      3  N   UNL     1       6.553   7.428  16.923  0.00  0.00    +0.000 N 
ATOM      4  H   UNL     1       6.444   8.057  16.137  0.00  0.00    +0.000 HD
ENDROOT
BRANCH   3   5
ATOM      5  C   UNL     1       5.812   6.219  16.892  0.00  0.00    +0.000 A 
ATOM      6  C   UNL     1       6.312   5.057  16.289  0.00  0.00    +0.000 A 
ATOM      7  C   UNL     1       5.512   3.933  16.099  0.00  0.00    +0.000 A 
ATOM      8  C   UNL     1       4.219   3.921  16.593  0.00  0.00    +0.000 A 
ATOM      9  C   UNL     1       3.773   5.000  17.359  0.00  0.00    +0.000 A 
ATOM     10  C   UNL     1       4.539   6.173  17.476  0.00  0.00    +0.000 A 
BRANCH   9  11
ATOM     11  S   UNL     1       2.216   4.836  18.203  0.00  0.00    +0.000 S 
ATOM     12  O   UNL     1       2.039   6.011  19.029  0.00  0.00    +0.000 OA
ATOM     13  O   UNL     1       1.220   4.457  17.215  0.00  0.00    +0.000 OA
BRANCH  11  14
ATOM     14  N   UNL     1       2.463   3.499  19.229  0.00  0.00    +0.000 NA
ATOM     15  C   UNL     1       3.538   3.570  20.234  0.00  0.00    +0.000 C 
ATOM     16  C   UNL     1       4.628   2.678  19.674  0.00  0.00    +0.000 C 
ATOM     17  C   UNL     1       3.869   1.566  18.971  0.00  0.00    +0.000 C 
ATOM     18  C   UNL     1       2.491   2.140  18.638  0.00  0.00    +0.000 C 
ENDBRANCH  11  14
ENDBRANCH   9  11
ENDBRANCH   3   5
BRANCH   2  19
ATOM     19  C   UNL     1       8.165   9.102  17.732  0.00  0.00    +0.000 C 
BRANCH  19  20
ATOM     20  O   UNL     1       8.916   9.397  18.903  0.00  0.00    +0.000 OA
BRANCH  20  21
ATOM     21  C   UNL     1       9.601  10.592  18.912  0.00  0.00    +0.000 A 
ATOM     22  C   UNL     1      10.360  11.058  17.831  0.00  0.00    +0.000 A 
ATOM     23  C   UNL     1      11.033  12.276  17.906  0.00  0.00    +0.000 A 
ATOM     24  C   UNL     1      10.950  13.048  19.059  0.00  0.00    +0.000 A 
ATOM     25  C   UNL     1      10.179  12.622  20.148  0.00  0.00    +0.000 A 
ATOM     26  C   UNL     1      10.094  13.417  21.302  0.00  0.00    +0.000 A 
ATOM     27  C   UNL     1       9.327  13.015  22.395  0.00  0.00    +0.000 A 
ATOM     28  C   UNL     1       8.633  11.814  22.342  0.00  0.00    +0.000 A 
ATOM     29  C   UNL     1       8.708  11.010  21.202  0.00  0.00    +0.000 A 
ATOM     30  C   UNL     1       9.484  11.388  20.083  0.00  0.00    +0.000 A 
ENDBRANCH  20  21
ENDBRANCH  19  20
ENDBRANCH   2  19
TORSDOF 6
ENDMDL
