MODEL 1
REMARK VINA RESULT:     -10.1      0.000      0.000
REMARK  Name = 
REMARK  4 active torsions:
REMARK  status: ('A' for Active; 'I' for Inactive)
REMARK    1  A    between atoms: C_2  and  C_3
REMARK    2  A    between atoms: N_10  and  C_11
REMARK    3  A    between atoms: C_11  and  C_12
REMARK    4  A    between atoms: C_22  and  C_23
REMARK                            x       y       z     vdW  Elec       q    Type
REMARK                         _______ _______ _______ _____ _____    ______ ____
ROOT
ATOM      1  C   UNL     1       2.434   6.994  19.171  0.00  0.00    +0.000 A 
ATOM      2  C   UNL     1       2.288   7.918  18.141  0.00  0.00    +0.000 A 
ATOM      3  N   UNL     1       1.593   9.082  18.191  0.00  0.00    +0.000 NA
ATOM      4  C   UNL     1       1.118   9.343  19.426  0.00  0.00    +0.000 A 
ATOM      5  C   UNL     1       1.298   8.576  20.568  0.00  0.00    +0.000 A 
ATOM      6  C   UNL     1       0.700   9.342  21.594  0.00  0.00    +0.000 A 
ATOM      7  N   UNL     1       0.144  10.474  21.147  0.00  0.00    +0.000 NA
ATOM      8  N   UNL     1       0.363  10.421  19.806  0.00  0.00    +0.000 N 
ATOM      9  C   UNL     1       1.973   7.351  20.447  0.00  0.00    +0.000 A 
ENDROOT
BRANCH   1  11
ATOM     10  O   UNL     1       2.646   4.728  19.622  0.00  0.00    +0.000 OA
ATOM     11  C   UNL     1       3.100   5.675  18.983  0.00  0.00    +0.000 C 
ATOM     12  N   UNL     1       4.167   5.535  18.083  0.00  0.00    +0.000 N 
ATOM     13  C   UNL     1       4.750   6.623  17.296  0.00  0.00    +0.000 C 
ATOM     14  C   UNL     1       5.375   6.158  16.028  0.00  0.00    +0.000 C 
ATOM     15  C   UNL     1       5.498   4.870  15.680  0.00  0.00    +0.000 C 
ATOM     16  C   UNL     1       5.045   3.756  16.581  0.00  0.00    +0.000 C 
ATOM     17  C   UNL     1       4.875   4.251  18.024  0.00  0.00    +0.000 C 
BRANCH  15  18
ATOM     18  C   UNL     1       6.098   4.548  14.389  0.00  0.00    +0.000 A 
ATOM     19  C   UNL     1       7.243   5.225  13.959  0.00  0.00    +0.000 A 
ATOM     20  C   UNL     1       7.771   4.969  12.693  0.00  0.00    +0.000 A 
ATOM     21  C   UNL     1       7.150   4.047  11.853  0.00  0.00    +0.000 A 
ATOM     22  C   UNL     1       6.002   3.375  12.273  0.00  0.00    +0.000 A 
ATOM     23  C   UNL     1       5.473   3.628  13.540  0.00  0.00    +0.000 A 
ENDBRANCH  15  18
ENDBRANCH   1  11
BRANCH   8  24
ATOM     24  C   UNL     1      -0.157  11.457  18.927  0.00  0.00    +0.000 C 
BRANCH  24  25
ATOM     25  C   UNL     1      -1.564  11.136  18.482  0.00  0.00    +0.000 A 
ATOM     26  C   UNL     1      -1.793  10.127  17.535  0.00  0.00    +0.000 A 
ATOM     27  C   UNL     1      -3.079   9.884  17.052  0.00  0.00    +0.000 A 
ATOM     28  C   UNL     1      -4.152  10.646  17.512  0.00  0.00    +0.000 A 
ATOM     29  C   UNL     1      -3.942  11.636  18.470  0.00  0.00    +0.000 A 
ATOM     30  C   UNL     1      -2.656  11.880  18.954  0.00  0.00    +0.000 A 
ENDBRANCH  24  25
ENDBRANCH   8  24
TORSDOF 4
ENDMDL
MODEL 2
REMARK VINA RESULT:     -10.1      0.117      1.253
REMARK  Name = 
REMARK  4 active torsions:
REMARK  status: ('A' for Active; 'I' for Inactive)
REMARK    1  A    between atoms: C_2  and  C_3
REMARK    2  A    between atoms: N_10  and  C_11
REMARK    3  A    between atoms: C_11  and  C_12
REMARK    4  A    between atoms: C_22  and  C_23
REMARK                            x       y       z     vdW  Elec       q    Type
REMARK                         _______ _______ _______ _____ _____    ______ ____
ROOT
ATOM      1  C   UNL     1       2.432   7.032  19.225  0.00  0.00    +0.000 A 
ATOM      2  C   UNL     1       2.350   8.004  18.232  0.00  0.00    +0.000 A 
ATOM      3  N   UNL     1       1.649   9.164  18.291  0.00  0.00    +0.000 NA
ATOM      4  C   UNL     1       1.093   9.365  19.503  0.00  0.00    +0.000 A 
ATOM      5  C   UNL     1       1.200   8.545  20.618  0.00  0.00    +0.000 A 
ATOM      6  C   UNL     1       0.532   9.259  21.636  0.00  0.00    +0.000 A 
ATOM      7  N   UNL     1       0.003  10.412  21.208  0.00  0.00    +0.000 NA
ATOM      8  N   UNL     1       0.309  10.423  19.884  0.00  0.00    +0.000 N 
ATOM      9  C   UNL     1       1.887   7.327  20.482  0.00  0.00    +0.000 A 
ENDROOT
BRANCH   1  11
ATOM     10  O   UNL     1       2.701   4.773  19.676  0.00  0.00    +0.000 OA
ATOM     11  C   UNL     1       3.115   5.724  19.018  0.00  0.00    +0.000 C 
ATOM     12  N   UNL     1       4.151   5.600  18.081  0.00  0.00    +0.000 N 
ATOM     13  C   UNL     1       4.686   6.694  17.269  0.00  0.00    +0.000 C 
ATOM     14  C   UNL     1       5.273   6.235  15.982  0.00  0.00    +0.000 C 
ATOM     15  C   UNL     1       5.407   4.947  15.634  0.00  0.00    +0.000 C 
ATOM     16  C   UNL     1       5.006   3.829  16.556  0.00  0.00    +0.000 C 
ATOM     17  C   UNL     1       4.880   4.328  18.001  0.00  0.00    +0.000 C 
BRANCH  15  18
ATOM     18  C   UNL     1       5.966   4.630  14.324  0.00  0.00    +0.000 A 
ATOM     19  C   UNL     1       5.328   3.701  13.496  0.00  0.00    +0.000 A 
ATOM     20  C   UNL     1       5.905   3.343  12.276  0.00  0.00    +0.000 A 
ATOM     21  C   UNL     1       7.120   3.904  11.888  0.00  0.00    +0.000 A 
ATOM     22  C   UNL     1       7.765   4.824  12.715  0.00  0.00    +0.000 A 
ATOM     23  C   UNL     1       7.189   5.185  13.935  0.00  0.00    +0.000 A 
ENDBRANCH  15  18
ENDBRANCH   1  11
BRANCH   8  24
ATOM     24  C   UNL     1      -0.156  11.499  19.023  0.00  0.00    +0.000 C 
BRANCH  24  25
ATOM     25  C   UNL     1      -1.541  11.211  18.493  0.00  0.00    +0.000 A 
ATOM     26  C   UNL     1      -2.642  11.947  18.956  0.00  0.00    +0.000 A 
ATOM     27  C   UNL     1      -3.934  11.629  18.540  0.00  0.00    +0.000 A 
ATOM     28  C   UNL     1      -4.142  10.573  17.654  0.00  0.00    +0.000 A 
ATOM     29  C   UNL     1      -3.055   9.848  17.168  0.00  0.00    +0.000 A 
ATOM     30  C   UNL     1      -1.760  10.166  17.583  0.00  0.00    +0.000 A 
ENDBRANCH  24  25
ENDBRANCH   8  24
TORSDOF 4
ENDMDL
MODEL 3
REMARK VINA RESULT:      -9.5      1.622      2.782
REMARK  Name = 
REMARK  4 active torsions:
REMARK  status: ('A' for Active; 'I' for Inactive)
REMARK    1  A    between atoms: C_2  and  C_3
REMARK    2  A    between atoms: N_10  and  C_11
REMARK    3  A    between atoms: C_11  and  C_12
REMARK    4  A    between atoms: C_22  and  C_23
REMARK                            x       y       z     vdW  Elec       q    Type
REMARK                         _______ _______ _______ _____ _____    ______ ____
ROOT
ATOM      1  C   UNL     1       2.279   7.258  19.003  0.00  0.00    +0.000 A 
ATOM      2  C   UNL     1       2.150   8.150  17.943  0.00  0.00    +0.000 A 
ATOM      3  N   UNL     1       1.518   9.350  17.968  0.00  0.00    +0.000 NA
ATOM      4  C   UNL     1       1.093   9.680  19.204  0.00  0.00    +0.000 A 
ATOM      5  C   UNL     1       1.265   8.947  20.370  0.00  0.00    +0.000 A 
ATOM      6  C   UNL     1       0.737   9.779  21.381  0.00  0.00    +0.000 A 
ATOM      7  N   UNL     1       0.228  10.922  20.907  0.00  0.00    +0.000 NA
ATOM      8  N   UNL     1       0.405  10.809  19.564  0.00  0.00    +0.000 N 
ATOM      9  C   UNL     1       1.873   7.684  20.276  0.00  0.00    +0.000 A 
ENDROOT
BRANCH   1  11
ATOM     10  O   UNL     1       2.328   4.984  19.461  0.00  0.00    +0.000 OA
ATOM     11  C   UNL     1       2.870   5.899  18.846  0.00  0.00    +0.000 C 
ATOM     12  N   UNL     1       3.969   5.693  18.000  0.00  0.00    +0.000 N 
ATOM     13  C   UNL     1       4.657   6.741  17.244  0.00  0.00    +0.000 C 
ATOM     14  C   UNL     1       5.314   6.236  16.008  0.00  0.00    +0.000 C 
ATOM     15  C   UNL     1       5.374   4.942  15.665  0.00  0.00    +0.000 C 
ATOM     16  C   UNL     1       4.809   3.860  16.542  0.00  0.00    +0.000 C 
ATOM     17  C   UNL     1       4.599   4.367  17.975  0.00  0.00    +0.000 C 
BRANCH  15  18
ATOM     18  C   UNL     1       6.016   4.581  14.405  0.00  0.00    +0.000 A 
ATOM     19  C   UNL     1       7.203   5.210  14.017  0.00  0.00    +0.000 A 
ATOM     20  C   UNL     1       7.774   4.918  12.778  0.00  0.00    +0.000 A 
ATOM     21  C   UNL     1       7.157   4.007  11.923  0.00  0.00    +0.000 A 
ATOM     22  C   UNL     1       5.968   3.383  12.302  0.00  0.00    +0.000 A 
ATOM     23  C   UNL     1       5.395   3.672  13.542  0.00  0.00    +0.000 A 
ENDBRANCH  15  18
ENDBRANCH   1  11
BRANCH   8  24
ATOM     24  C   UNL     1      -0.087  11.838  18.660  0.00  0.00    +0.000 C 
BRANCH  24  25
ATOM     25  C   UNL     1       0.793  13.065  18.704  0.00  0.00    +0.000 A 
ATOM     26  C   UNL     1       0.272  14.293  19.136  0.00  0.00    +0.000 A 
ATOM     27  C   UNL     1       1.051  15.450  19.095  0.00  0.00    +0.000 A 
ATOM     28  C   UNL     1       2.361  15.391  18.623  0.00  0.00    +0.000 A 
ATOM     29  C   UNL     1       2.899  14.173  18.212  0.00  0.00    +0.000 A 
ATOM     30  C   UNL     1       2.121  13.015  18.253  0.00  0.00    +0.000 A 
ENDBRANCH  24  25
ENDBRANCH   8  24
TORSDOF 4
ENDMDL
MODEL 4
REMARK VINA RESULT:      -9.3      1.638      2.811
REMARK  Name = 
REMARK  4 active torsions:
REMARK  status: ('A' for Active; 'I' for Inactive)
REMARK    1  A    between atoms: C_2  and  C_3
REMARK    2  A    between atoms: N_10  and  C_11
REMARK    3  A    between atoms: C_11  and  C_12
REMARK    4  A    between atoms: C_22  and  C_23
REMARK                            x       y       z     vdW  Elec       q    Type
REMARK                         _______ _______ _______ _____ _____    ______ ____
ROOT
ATOM      1  C   UNL     1       2.227   7.359  18.994  0.00  0.00    +0.000 A 
ATOM      2  C   UNL     1       2.049   8.236  17.929  0.00  0.00    +0.000 A 
ATOM      3  N   UNL     1       1.406   9.430  17.964  0.00  0.00    +0.000 NA
ATOM      4  C   UNL     1       1.027   9.772  19.212  0.00  0.00    +0.000 A 
ATOM      5  C   UNL     1       1.253   9.057  20.379  0.00  0.00    +0.000 A 
ATOM      6  C   UNL     1       0.757   9.897  21.400  0.00  0.00    +0.000 A 
ATOM      7  N   UNL     1       0.218  11.029  20.932  0.00  0.00    +0.000 NA
ATOM      8  N   UNL     1       0.343  10.900  19.584  0.00  0.00    +0.000 N 
ATOM      9  C   UNL     1       1.868   7.798  20.277  0.00  0.00    +0.000 A 
ENDROOT
BRANCH   1  11
ATOM     10  O   UNL     1       2.301   5.088  19.460  0.00  0.00    +0.000 OA
ATOM     11  C   UNL     1       2.825   6.004  18.831  0.00  0.00    +0.000 C 
ATOM     12  N   UNL     1       3.909   5.802  17.965  0.00  0.00    +0.000 N 
ATOM     13  C   UNL     1       4.574   6.851  17.191  0.00  0.00    +0.000 C 
ATOM     14  C   UNL     1       5.210   6.346  15.945  0.00  0.00    +0.000 C 
ATOM     15  C   UNL     1       5.273   5.051  15.606  0.00  0.00    +0.000 C 
ATOM     16  C   UNL     1       4.732   3.968  16.497  0.00  0.00    +0.000 C 
ATOM     17  C   UNL     1       4.547   4.480  17.932  0.00  0.00    +0.000 C 
BRANCH  15  18
ATOM     18  C   UNL     1       5.893   4.689  14.335  0.00  0.00    +0.000 A 
ATOM     19  C   UNL     1       5.285   3.744  13.502  0.00  0.00    +0.000 A 
ATOM     20  C   UNL     1       5.917   3.345  12.323  0.00  0.00    +0.000 A 
ATOM     21  C   UNL     1       7.158   3.880  11.982  0.00  0.00    +0.000 A 
ATOM     22  C   UNL     1       7.772   4.815  12.814  0.00  0.00    +0.000 A 
ATOM     23  C   UNL     1       7.141   5.218  13.992  0.00  0.00    +0.000 A 
ENDBRANCH  15  18
ENDBRANCH   1  11
BRANCH   8  24
ATOM     24  C   UNL     1      -0.193  11.913  18.688  0.00  0.00    +0.000 C 
BRANCH  24  25
ATOM     25  C   UNL     1       0.704  13.127  18.640  0.00  0.00    +0.000 A 
ATOM     26  C   UNL     1       2.040  13.002  18.230  0.00  0.00    +0.000 A 
ATOM     27  C   UNL     1       2.900  14.100  18.268  0.00  0.00    +0.000 A 
ATOM     28  C   UNL     1       2.434  15.335  18.714  0.00  0.00    +0.000 A 
ATOM     29  C   UNL     1       1.103  15.479  19.102  0.00  0.00    +0.000 A 
ATOM     30  C   UNL     1       0.241  14.381  19.065  0.00  0.00    +0.000 A 
ENDBRANCH  24  25
ENDBRANCH   8  24
TORSDOF 4
ENDMDL
MODEL 5
REMARK VINA RESULT:      -8.9      0.878      1.343
REMARK  Name = 
REMARK  4 active torsions:
REMARK  status: ('A' for Active; 'I' for Inactive)
REMARK    1  A    between atoms: C_2  and  C_3
REMARK    2  A    between atoms: N_10  and  C_11
REMARK    3  A    between atoms: C_11  and  C_12
REMARK    4  A    between atoms: C_22  and  C_23
REMARK                            x       y       z     vdW  Elec       q    Type
REMARK                         _______ _______ _______ _____ _____    ______ ____
ROOT
ATOM      1  C   UNL     1       2.326   7.060  19.153  0.00  0.00    +0.000 A 
ATOM      2  C   UNL     1       2.203   8.002  18.136  0.00  0.00    +0.000 A 
ATOM      3  N   UNL     1       1.584   9.206  18.220  0.00  0.00    +0.000 NA
ATOM      4  C   UNL     1       1.168   9.482  19.473  0.00  0.00    +0.000 A 
ATOM      5  C   UNL     1       1.338   8.694  20.602  0.00  0.00    +0.000 A 
ATOM      6  C   UNL     1       0.824   9.484  21.654  0.00  0.00    +0.000 A 
ATOM      7  N   UNL     1       0.325  10.653  21.237  0.00  0.00    +0.000 NA
ATOM      8  N   UNL     1       0.495  10.601  19.889  0.00  0.00    +0.000 N 
ATOM      9  C   UNL     1       1.931   7.430  20.446  0.00  0.00    +0.000 A 
ENDROOT
BRANCH   1  11
ATOM     10  O   UNL     1       2.345   4.765  19.496  0.00  0.00    +0.000 OA
ATOM     11  C   UNL     1       2.902   5.703  18.930  0.00  0.00    +0.000 C 
ATOM     12  N   UNL     1       4.002   5.526  18.079  0.00  0.00    +0.000 N 
ATOM     13  C   UNL     1       4.705   6.602  17.379  0.00  0.00    +0.000 C 
ATOM     14  C   UNL     1       5.361   6.152  16.121  0.00  0.00    +0.000 C 
ATOM     15  C   UNL     1       5.407   4.876  15.714  0.00  0.00    +0.000 C 
ATOM     16  C   UNL     1       4.824   3.758  16.533  0.00  0.00    +0.000 C 
ATOM     17  C   UNL     1       4.615   4.195  17.988  0.00  0.00    +0.000 C 
BRANCH  15  18
ATOM     18  C   UNL     1       6.049   4.571  14.439  0.00  0.00    +0.000 A 
ATOM     19  C   UNL     1       7.224   5.234  14.070  0.00  0.00    +0.000 A 
ATOM     20  C   UNL     1       7.795   4.995  12.819  0.00  0.00    +0.000 A 
ATOM     21  C   UNL     1       7.188   4.105  11.934  0.00  0.00    +0.000 A 
ATOM     22  C   UNL     1       6.012   3.448  12.295  0.00  0.00    +0.000 A 
ATOM     23  C   UNL     1       5.440   3.683  13.546  0.00  0.00    +0.000 A 
ENDBRANCH  15  18
ENDBRANCH   1  11
BRANCH   8  24
ATOM     24  C   UNL     1       0.011  11.677  19.037  0.00  0.00    +0.000 C 
BRANCH  24  25
ATOM     25  C   UNL     1      -1.303  12.222  19.544  0.00  0.00    +0.000 A 
ATOM     26  C   UNL     1      -2.515  11.678  19.093  0.00  0.00    +0.000 A 
ATOM     27  C   UNL     1      -3.732  12.233  19.487  0.00  0.00    +0.000 A 
ATOM     28  C   UNL     1      -3.753  13.337  20.336  0.00  0.00    +0.000 A 
ATOM     29  C   UNL     1      -2.557  13.874  20.810  0.00  0.00    +0.000 A 
ATOM     30  C   UNL     1      -1.337  13.319  20.418  0.00  0.00    +0.000 A 
ENDBRANCH  24  25
ENDBRANCH   8  24
TORSDOF 4
ENDMDL
MODEL 6
REMARK VINA RESULT:      -8.7      1.627      2.504
REMARK  Name = 
REMARK  4 active torsions:
REMARK  status: ('A' for Active; 'I' for Inactive)
REMARK    1  A    between atoms: C_2  and  C_3
REMARK    2  A    between atoms: N_10  and  C_11
REMARK    3  A    between atoms: C_11  and  C_12
REMARK    4  A    between atoms: C_22  and  C_23
REMARK                            x       y       z     vdW  Elec       q    Type
REMARK                         _______ _______ _______ _____ _____    ______ ____
ROOT
ATOM      1  C   UNL     1       2.185   6.977  19.399  0.00  0.00    +0.000 A 
ATOM      2  C   UNL     1       1.872   7.395  20.689  0.00  0.00    +0.000 A 
ATOM      3  N   UNL     1       1.497   8.644  21.065  0.00  0.00    +0.000 NA
ATOM      4  C   UNL     1       1.334   9.469  20.012  0.00  0.00    +0.000 A 
ATOM      5  C   UNL     1       1.486   9.151  18.670  0.00  0.00    +0.000 A 
ATOM      6  C   UNL     1       1.097  10.326  17.990  0.00  0.00    +0.000 A 
ATOM      7  N   UNL     1       0.769  11.326  18.817  0.00  0.00    +0.000 NA
ATOM      8  N   UNL     1       0.981  10.793  20.050  0.00  0.00    +0.000 N 
ATOM      9  C   UNL     1       1.935   7.861  18.340  0.00  0.00    +0.000 A 
ENDROOT
BRANCH   1  11
ATOM     10  O   UNL     1       2.140   4.667  19.614  0.00  0.00    +0.000 OA
ATOM     11  C   UNL     1       2.722   5.619  19.100  0.00  0.00    +0.000 C 
ATOM     12  N   UNL     1       3.817   5.459  18.239  0.00  0.00    +0.000 N 
ATOM     13  C   UNL     1       4.550   6.553  17.599  0.00  0.00    +0.000 C 
ATOM     14  C   UNL     1       5.194   6.155  16.318  0.00  0.00    +0.000 C 
ATOM     15  C   UNL     1       5.204   4.903  15.840  0.00  0.00    +0.000 C 
ATOM     16  C   UNL     1       4.591   3.758  16.596  0.00  0.00    +0.000 C 
ATOM     17  C   UNL     1       4.394   4.119  18.074  0.00  0.00    +0.000 C 
BRANCH  15  18
ATOM     18  C   UNL     1       5.839   4.652  14.550  0.00  0.00    +0.000 A 
ATOM     19  C   UNL     1       5.242   3.780  13.633  0.00  0.00    +0.000 A 
ATOM     20  C   UNL     1       5.888   3.483  12.432  0.00  0.00    +0.000 A 
ATOM     21  C   UNL     1       7.131   4.047  12.151  0.00  0.00    +0.000 A 
ATOM     22  C   UNL     1       7.734   4.910  13.066  0.00  0.00    +0.000 A 
ATOM     23  C   UNL     1       7.090   5.210  14.267  0.00  0.00    +0.000 A 
ENDBRANCH  15  18
ENDBRANCH   1  11
BRANCH   8  24
ATOM     24  C   UNL     1       0.801  11.598  21.248  0.00  0.00    +0.000 C 
BRANCH  24  25
ATOM     25  C   UNL     1      -0.663  11.847  21.522  0.00  0.00    +0.000 A 
ATOM     26  C   UNL     1      -1.502  12.318  20.501  0.00  0.00    +0.000 A 
ATOM     27  C   UNL     1      -2.835  12.635  20.766  0.00  0.00    +0.000 A 
ATOM     28  C   UNL     1      -3.344  12.483  22.054  0.00  0.00    +0.000 A 
ATOM     29  C   UNL     1      -2.528  11.994  23.073  0.00  0.00    +0.000 A 
ATOM     30  C   UNL     1      -1.194  11.676  22.809  0.00  0.00    +0.000 A 
ENDBRANCH  24  25
ENDBRANCH   8  24
TORSDOF 4
ENDMDL
MODEL 7
REMARK VINA RESULT:      -8.7      1.926      3.029
REMARK  Name = 
REMARK  4 active torsions:
REMARK  status: ('A' for Active; 'I' for Inactive)
REMARK    1  A    between atoms: C_2  and  C_3
REMARK    2  A    between atoms: N_10  and  C_11
REMARK    3  A    between atoms: C_11  and  C_12
REMARK    4  A    between atoms: C_22  and  C_23
REMARK                            x       y       z     vdW  Elec       q    Type
REMARK                         _______ _______ _______ _____ _____    ______ ____
ROOT
ATOM      1  C   UNL     1       2.225   6.788  19.270  0.00  0.00    +0.000 A 
ATOM      2  C   UNL     1       2.198   7.862  18.386  0.00  0.00    +0.000 A 
ATOM      3  N   UNL     1       1.737   9.111  18.645  0.00  0.00    +0.000 NA
ATOM      4  C   UNL     1       1.389   9.271  19.938  0.00  0.00    +0.000 A 
ATOM      5  C   UNL     1       1.485   8.328  20.951  0.00  0.00    +0.000 A 
ATOM      6  C   UNL     1       1.099   9.032  22.113  0.00  0.00    +0.000 A 
ATOM      7  N   UNL     1       0.742  10.298  21.866  0.00  0.00    +0.000 NA
ATOM      8  N   UNL     1       0.872  10.401  20.517  0.00  0.00    +0.000 N 
ATOM      9  C   UNL     1       1.910   7.033  20.614  0.00  0.00    +0.000 A 
ENDROOT
BRANCH   1  11
ATOM     10  O   UNL     1       1.878   4.495  19.200  0.00  0.00    +0.000 OA
ATOM     11  C   UNL     1       2.620   5.412  18.856  0.00  0.00    +0.000 C 
ATOM     12  N   UNL     1       3.766   5.203  18.076  0.00  0.00    +0.000 N 
ATOM     13  C   UNL     1       4.686   6.253  17.636  0.00  0.00    +0.000 C 
ATOM     14  C   UNL     1       5.400   5.915  16.375  0.00  0.00    +0.000 C 
ATOM     15  C   UNL     1       5.304   4.732  15.752  0.00  0.00    +0.000 C 
ATOM     16  C   UNL     1       4.484   3.603  16.310  0.00  0.00    +0.000 C 
ATOM     17  C   UNL     1       4.188   3.824  17.799  0.00  0.00    +0.000 C 
BRANCH  15  18
ATOM     18  C   UNL     1       6.027   4.541  14.498  0.00  0.00    +0.000 A 
ATOM     19  C   UNL     1       7.172   5.296  14.226  0.00  0.00    +0.000 A 
ATOM     20  C   UNL     1       7.817   5.166  12.996  0.00  0.00    +0.000 A 
ATOM     21  C   UNL     1       7.315   4.290  12.035  0.00  0.00    +0.000 A 
ATOM     22  C   UNL     1       6.168   3.541  12.298  0.00  0.00    +0.000 A 
ATOM     23  C   UNL     1       5.522   3.668  13.528  0.00  0.00    +0.000 A 
ENDBRANCH  15  18
ENDBRANCH   1  11
BRANCH   8  24
ATOM     24  C   UNL     1       0.508  11.629  19.827  0.00  0.00    +0.000 C 
BRANCH  24  25
ATOM     25  C   UNL     1       0.960  12.843  20.603  0.00  0.00    +0.000 A 
ATOM     26  C   UNL     1       0.031  13.603  21.330  0.00  0.00    +0.000 A 
ATOM     27  C   UNL     1       0.424  14.775  21.976  0.00  0.00    +0.000 A 
ATOM     28  C   UNL     1       1.748  15.201  21.905  0.00  0.00    +0.000 A 
ATOM     29  C   UNL     1       2.687  14.443  21.205  0.00  0.00    +0.000 A 
ATOM     30  C   UNL     1       2.296  13.269  20.558  0.00  0.00    +0.000 A 
ENDBRANCH  24  25
ENDBRANCH   8  24
TORSDOF 4
ENDMDL
MODEL 8
REMARK VINA RESULT:      -8.7      3.461     10.384
REMARK  Name = 
REMARK  4 active torsions:
REMARK  status: ('A' for Active; 'I' for Inactive)
REMARK    1  A    between atoms: C_2  and  C_3
REMARK    2  A    between atoms: N_10  and  C_11
REMARK    3  A    between atoms: C_11  and  C_12
REMARK    4  A    between atoms: C_22  and  C_23
REMARK                            x       y       z     vdW  Elec       q    Type
REMARK                         _______ _______ _______ _____ _____    ______ ____
ROOT
ATOM      1  C   UNL     1       0.880   9.272  18.737  0.00  0.00    +0.000 A 
ATOM      2  C   UNL     1       1.056   8.497  19.879  0.00  0.00    +0.000 A 
ATOM      3  N   UNL     1       1.928   7.469  20.032  0.00  0.00    +0.000 NA
ATOM      4  C   UNL     1       2.737   7.320  18.964  0.00  0.00    +0.000 A 
ATOM      5  C   UNL     1       2.757   8.099  17.816  0.00  0.00    +0.000 A 
ATOM      6  C   UNL     1       3.847   7.593  17.075  0.00  0.00    +0.000 A 
ATOM      7  N   UNL     1       4.446   6.552  17.667  0.00  0.00    +0.000 NA
ATOM      8  N   UNL     1       3.709   6.368  18.794  0.00  0.00    +0.000 N 
ATOM      9  C   UNL     1       1.791   9.111  17.684  0.00  0.00    +0.000 A 
ENDROOT
BRANCH   1  11
ATOM     10  O   UNL     1      -0.972  10.167  17.663  0.00  0.00    +0.000 OA
ATOM     11  C   UNL     1      -0.201  10.290  18.612  0.00  0.00    +0.000 C 
ATOM     12  N   UNL     1      -0.336  11.307  19.567  0.00  0.00    +0.000 N 
ATOM     13  C   UNL     1       0.549  11.504  20.717  0.00  0.00    +0.000 C 
ATOM     14  C   UNL     1      -0.120  12.181  21.861  0.00  0.00    +0.000 C 
ATOM     15  C   UNL     1      -1.369  12.665  21.822  0.00  0.00    +0.000 C 
ATOM     16  C   UNL     1      -2.206  12.605  20.575  0.00  0.00    +0.000 C 
ATOM     17  C   UNL     1      -1.332  12.362  19.337  0.00  0.00    +0.000 C 
BRANCH  15  18
ATOM     18  C   UNL     1      -1.922  13.274  23.027  0.00  0.00    +0.000 A 
ATOM     19  C   UNL     1      -3.193  12.905  23.479  0.00  0.00    +0.000 A 
ATOM     20  C   UNL     1      -3.751  13.543  24.588  0.00  0.00    +0.000 A 
ATOM     21  C   UNL     1      -3.045  14.553  25.239  0.00  0.00    +0.000 A 
ATOM     22  C   UNL     1      -1.781  14.930  24.787  0.00  0.00    +0.000 A 
ATOM     23  C   UNL     1      -1.220  14.293  23.679  0.00  0.00    +0.000 A 
ENDBRANCH  15  18
ENDBRANCH   1  11
BRANCH   8  24
ATOM     24  C   UNL     1       3.999   5.267  19.700  0.00  0.00    +0.000 C 
BRANCH  24  25
ATOM     25  C   UNL     1       2.971   4.169  19.568  0.00  0.00    +0.000 A 
ATOM     26  C   UNL     1       2.839   3.466  18.361  0.00  0.00    +0.000 A 
ATOM     27  C   UNL     1       1.834   2.513  18.200  0.00  0.00    +0.000 A 
ATOM     28  C   UNL     1       0.949   2.249  19.244  0.00  0.00    +0.000 A 
ATOM     29  C   UNL     1       1.083   2.924  20.457  0.00  0.00    +0.000 A 
ATOM     30  C   UNL     1       2.089   3.878  20.620  0.00  0.00    +0.000 A 
ENDBRANCH  24  25
ENDBRANCH   8  24
TORSDOF 4
ENDMDL
MODEL 9
REMARK VINA RESULT:      -8.6      3.191      9.490
REMARK  Name = 
REMARK  4 active torsions:
REMARK  status: ('A' for Active; 'I' for Inactive)
REMARK    1  A    between atoms: C_2  and  C_3
REMARK    2  A    between atoms: N_10  and  C_11
REMARK    3  A    between atoms: C_11  and  C_12
REMARK    4  A    between atoms: C_22  and  C_23
REMARK                            x       y       z     vdW  Elec       q    Type
REMARK                         _______ _______ _______ _____ _____    ______ ____
ROOT
ATOM      1  C   UNL     1       1.274   8.747  20.581  0.00  0.00    +0.000 A 
ATOM      2  C   UNL     1       1.837   8.813  19.310  0.00  0.00    +0.000 A 
ATOM      3  N   UNL     1       2.471   7.809  18.654  0.00  0.00    +0.000 NA
ATOM      4  C   UNL     1       2.413   6.641  19.325  0.00  0.00    +0.000 A 
ATOM      5  C   UNL     1       1.777   6.404  20.535  0.00  0.00    +0.000 A 
ATOM      6  C   UNL     1       1.924   5.013  20.734  0.00  0.00    +0.000 A 
ATOM      7  N   UNL     1       2.630   4.416  19.767  0.00  0.00    +0.000 NA
ATOM      8  N   UNL     1       2.968   5.447  18.947  0.00  0.00    +0.000 N 
ATOM      9  C   UNL     1       1.189   7.492  21.201  0.00  0.00    +0.000 A 
ENDROOT
BRANCH   1  11
ATOM     10  O   UNL     1       0.654   9.884  22.506  0.00  0.00    +0.000 OA
ATOM     11  C   UNL     1       0.720   9.940  21.280  0.00  0.00    +0.000 C 
ATOM     12  N   UNL     1       0.335  11.077  20.556  0.00  0.00    +0.000 N 
ATOM     13  C   UNL     1       0.390  11.203  19.098  0.00  0.00    +0.000 C 
ATOM     14  C   UNL     1       0.548  12.610  18.638  0.00  0.00    +0.000 C 
ATOM     15  C   UNL     1       0.533  13.673  19.453  0.00  0.00    +0.000 C 
ATOM     16  C   UNL     1       0.305  13.537  20.933  0.00  0.00    +0.000 C 
ATOM     17  C   UNL     1      -0.324  12.179  21.269  0.00  0.00    +0.000 C 
BRANCH  15  18
ATOM     18  C   UNL     1       0.737  14.999  18.879  0.00  0.00    +0.000 A 
ATOM     19  C   UNL     1       2.032  15.456  18.611  0.00  0.00    +0.000 A 
ATOM     20  C   UNL     1       2.229  16.752  18.132  0.00  0.00    +0.000 A 
ATOM     21  C   UNL     1       1.137  17.594  17.931  0.00  0.00    +0.000 A 
ATOM     22  C   UNL     1      -0.156  17.146  18.205  0.00  0.00    +0.000 A 
ATOM     23  C   UNL     1      -0.356  15.850  18.682  0.00  0.00    +0.000 A 
ENDBRANCH  15  18
ENDBRANCH   1  11
BRANCH   8  24
ATOM     24  C   UNL     1       3.814   5.224  17.784  0.00  0.00    +0.000 C 
BRANCH  24  25
ATOM     25  C   UNL     1       5.200   5.781  18.005  0.00  0.00    +0.000 A 
ATOM     26  C   UNL     1       5.681   6.821  17.196  0.00  0.00    +0.000 A 
ATOM     27  C   UNL     1       6.990   7.282  17.334  0.00  0.00    +0.000 A 
ATOM     28  C   UNL     1       7.834   6.710  18.284  0.00  0.00    +0.000 A 
ATOM     29  C   UNL     1       7.363   5.692  19.111  0.00  0.00    +0.000 A 
ATOM     30  C   UNL     1       6.052   5.230  18.974  0.00  0.00    +0.000 A 
ENDBRANCH  24  25
ENDBRANCH   8  24
TORSDOF 4
ENDMDL
