MODEL 1
REMARK VINA RESULT:      -8.5      0.000      0.000
REMARK  Name = 
REMARK  7 active torsions:
REMARK  status: ('A' for Active; 'I' for Inactive)
REMARK    1  A    between atoms: C_1  and  C_2
REMARK    2  A    between atoms: C_5  and  O_6
REMARK    3  A    between atoms: O_6  and  C_7
REMARK    4  A    between atoms: C_7  and  C_8
REMARK    5  A    between atoms: C_12  and  C_13
REMARK    6  A    between atoms: N_15  and  C_16
REMARK    7  A    between atoms: N_19  and  C_20
REMARK                            x       y       z     vdW  Elec       q    Type
REMARK                         _______ _______ _______ _____ _____    ______ ____
ROOT
ATOM      1  C   UNL     1       1.939   7.255  20.301  0.00  0.00    +0.000 C 
ATOM      2  O   UNL     1       2.231   7.986  19.363  0.00  0.00    +0.000 OA
ATOM      3  N   UNL     1       1.571   7.717  21.552  0.00  0.00    +0.000 N 
ATOM      4  H   UNL     1       1.605   7.068  22.329  0.00  0.00    +0.000 HD
ENDROOT
BRANCH   1   9
ATOM      5  C   UNL     1       3.411   3.805  19.731  0.00  0.00    +0.000 A 
ATOM      6  C   UNL     1       2.323   2.990  20.078  0.00  0.00    +0.000 A 
ATOM      7  C   UNL     1       1.104   3.553  20.455  0.00  0.00    +0.000 A 
ATOM      8  C   UNL     1       0.960   4.940  20.503  0.00  0.00    +0.000 A 
ATOM      9  C   UNL     1       2.039   5.770  20.173  0.00  0.00    +0.000 A 
ATOM     10  C   UNL     1       3.250   5.200  19.754  0.00  0.00    +0.000 A 
BRANCH   5  11
ATOM     11  C   UNL     1       4.737   3.182  19.364  0.00  0.00    +0.000 C 
BRANCH  11  12
ATOM     12  O   UNL     1       5.664   4.200  18.995  0.00  0.00    +0.000 OA
BRANCH  12  17
ATOM     13  C   UNL     1       7.273   4.805  13.639  0.00  0.00    +0.000 C 
ATOM     14  C   UNL     1       6.775   4.632  15.044  0.00  0.00    +0.000 A 
ATOM     15  C   UNL     1       5.428   4.404  15.299  0.00  0.00    +0.000 A 
ATOM     16  C   UNL     1       5.001   4.249  16.621  0.00  0.00    +0.000 A 
ATOM     17  C   UNL     1       5.925   4.323  17.659  0.00  0.00    +0.000 A 
ATOM     18  C   UNL     1       7.251   4.551  17.304  0.00  0.00    +0.000 A 
ATOM     19  N   UNL     1       7.694   4.707  16.032  0.00  0.00    +0.000 NA
ENDBRANCH  12  17
ENDBRANCH  11  12
ENDBRANCH   5  11
ENDBRANCH   1   9
BRANCH   3  20
ATOM     20  C   UNL     1       1.636   9.136  21.898  0.00  0.00    +0.000 C 
ATOM     21  C   UNL     1       0.849   9.416  23.174  0.00  0.00    +0.000 C 
ATOM     22  C   UNL     1      -0.592   9.490  22.672  0.00  0.00    +0.000 C 
ATOM     23  N   UNL     1      -0.487  10.109  21.344  0.00  0.00    +0.000 N 
ATOM     24  C   UNL     1       0.911  10.040  20.874  0.00  0.00    +0.000 C 
BRANCH  23  25
ATOM     25  C   UNL     1      -1.187  11.303  21.130  0.00  0.00    +0.000 A 
ATOM     26  N   UNL     1      -1.298  12.177  22.163  0.00  0.00    +0.000 NA
ATOM     27  C   UNL     1      -1.954  13.347  21.972  0.00  0.00    +0.000 A 
ATOM     28  C   UNL     1      -2.538  13.717  20.778  0.00  0.00    +0.000 A 
ATOM     29  C   UNL     1      -2.463  12.822  19.722  0.00  0.00    +0.000 A 
ATOM     30  C   UNL     1      -1.796  11.612  19.903  0.00  0.00    +0.000 A 
ATOM     31  F   UNL     1      -1.751  10.758  18.865  0.00  0.00    +0.000 F 
ENDBRANCH  23  25
ENDBRANCH   3  20
TORSDOF 6
ENDMDL
MODEL 2
REMARK VINA RESULT:      -8.2      0.990      1.201
REMARK  Name = 
REMARK  7 active torsions:
REMARK  status: ('A' for Active; 'I' for Inactive)
REMARK    1  A    between atoms: C_1  and  C_2
REMARK    2  A    between atoms: C_5  and  O_6
REMARK    3  A    between atoms: O_6  and  C_7
REMARK    4  A    between atoms: C_7  and  C_8
REMARK    5  A    between atoms: C_12  and  C_13
REMARK    6  A    between atoms: N_15  and  C_16
REMARK    7  A    between atoms: N_19  and  C_20
REMARK                            x       y       z     vdW  Elec       q    Type
REMARK                         _______ _______ _______ _____ _____    ______ ____
ROOT
ATOM      1  C   UNL     1       1.982   7.221  20.209  0.00  0.00    +0.000 C 
ATOM      2  O   UNL     1       2.346   7.931  19.281  0.00  0.00    +0.000 OA
ATOM      3  N   UNL     1       1.537   7.710  21.425  0.00  0.00    +0.000 N 
ATOM      4  H   UNL     1       1.510   7.075  22.213  0.00  0.00    +0.000 HD
ENDROOT
BRANCH   1   9
ATOM      5  C   UNL     1       3.408   3.750  19.650  0.00  0.00    +0.000 A 
ATOM      6  C   UNL     1       2.336   2.950  20.073  0.00  0.00    +0.000 A 
ATOM      7  C   UNL     1       1.141   3.528  20.499  0.00  0.00    +0.000 A 
ATOM      8  C   UNL     1       1.005   4.916  20.519  0.00  0.00    +0.000 A 
ATOM      9  C   UNL     1       2.069   5.733  20.113  0.00  0.00    +0.000 A 
ATOM     10  C   UNL     1       3.254   5.147  19.646  0.00  0.00    +0.000 A 
BRANCH   5  11
ATOM     11  C   UNL     1       4.711   3.111  19.230  0.00  0.00    +0.000 C 
BRANCH  11  12
ATOM     12  O   UNL     1       5.655   4.121  18.882  0.00  0.00    +0.000 OA
BRANCH  12  17
ATOM     13  C   UNL     1       7.292   4.834  13.548  0.00  0.00    +0.000 C 
ATOM     14  C   UNL     1       6.788   4.628  14.946  0.00  0.00    +0.000 A 
ATOM     15  C   UNL     1       5.454   4.317  15.183  0.00  0.00    +0.000 A 
ATOM     16  C   UNL     1       5.021   4.134  16.500  0.00  0.00    +0.000 A 
ATOM     17  C   UNL     1       5.925   4.263  17.550  0.00  0.00    +0.000 A 
ATOM     18  C   UNL     1       7.238   4.573  17.212  0.00  0.00    +0.000 A 
ATOM     19  N   UNL     1       7.687   4.759  15.946  0.00  0.00    +0.000 NA
ENDBRANCH  12  17
ENDBRANCH  11  12
ENDBRANCH   5  11
ENDBRANCH   1   9
BRANCH   3  20
ATOM     20  C   UNL     1       1.599   9.134  21.750  0.00  0.00    +0.000 C 
ATOM     21  C   UNL     1       0.792   9.434  23.009  0.00  0.00    +0.000 C 
ATOM     22  C   UNL     1      -0.641   9.503  22.483  0.00  0.00    +0.000 C 
ATOM     23  N   UNL     1      -0.514  10.102  21.147  0.00  0.00    +0.000 N 
ATOM     24  C   UNL     1       0.893  10.024  20.701  0.00  0.00    +0.000 C 
BRANCH  23  25
ATOM     25  C   UNL     1      -1.208  11.293  20.905  0.00  0.00    +0.000 A 
ATOM     26  N   UNL     1      -2.032  11.350  19.828  0.00  0.00    +0.000 NA
ATOM     27  C   UNL     1      -2.727  12.487  19.587  0.00  0.00    +0.000 A 
ATOM     28  C   UNL     1      -2.649  13.620  20.370  0.00  0.00    +0.000 A 
ATOM     29  C   UNL     1      -1.786  13.592  21.455  0.00  0.00    +0.000 A 
ATOM     30  C   UNL     1      -1.059  12.431  21.714  0.00  0.00    +0.000 A 
ATOM     31  F   UNL     1      -0.221  12.438  22.765  0.00  0.00    +0.000 F 
ENDBRANCH  23  25
ENDBRANCH   3  20
TORSDOF 6
ENDMDL
MODEL 3
REMARK VINA RESULT:      -8.2      2.158      2.916
REMARK  Name = 
REMARK  7 active torsions:
REMARK  status: ('A' for Active; 'I' for Inactive)
REMARK    1  A    between atoms: C_1  and  C_2
REMARK    2  A    between atoms: C_5  and  O_6
REMARK    3  A    between atoms: O_6  and  C_7
REMARK    4  A    between atoms: C_7  and  C_8
REMARK    5  A    between atoms: C_12  and  C_13
REMARK    6  A    between atoms: N_15  and  C_16
REMARK    7  A    between atoms: N_19  and  C_20
REMARK                            x       y       z     vdW  Elec       q    Type
REMARK                         _______ _______ _______ _____ _____    ______ ____
ROOT
ATOM      1  C   UNL     1       1.985   8.386  18.184  0.00  0.00    +0.000 C 
ATOM      2  O   UNL     1       2.366   8.933  17.157  0.00  0.00    +0.000 OA
ATOM      3  N   UNL     1       1.143   8.980  19.108  0.00  0.00    +0.000 N 
ATOM      4  H   UNL     1       1.092   8.576  20.035  0.00  0.00    +0.000 HD
ENDROOT
BRANCH   1   9
ATOM      5  C   UNL     1       3.728   5.024  17.941  0.00  0.00    +0.000 A 
ATOM      6  C   UNL     1       3.571   4.547  19.251  0.00  0.00    +0.000 A 
ATOM      7  C   UNL     1       2.869   5.290  20.200  0.00  0.00    +0.000 A 
ATOM      8  C   UNL     1       2.324   6.527  19.855  0.00  0.00    +0.000 A 
ATOM      9  C   UNL     1       2.481   7.027  18.555  0.00  0.00    +0.000 A 
ATOM     10  C   UNL     1       3.152   6.258  17.593  0.00  0.00    +0.000 A 
BRANCH   5  11
ATOM     11  C   UNL     1       4.525   4.228  16.935  0.00  0.00    +0.000 C 
BRANCH  11  12
ATOM     12  O   UNL     1       5.867   4.077  17.392  0.00  0.00    +0.000 OA
BRANCH  12  17
ATOM     13  C   UNL     1       8.498   9.014  17.981  0.00  0.00    +0.000 C 
ATOM     14  C   UNL     1       7.822   7.677  17.890  0.00  0.00    +0.000 A 
ATOM     15  C   UNL     1       7.968   6.736  18.901  0.00  0.00    +0.000 A 
ATOM     16  C   UNL     1       7.324   5.500  18.781  0.00  0.00    +0.000 A 
ATOM     17  C   UNL     1       6.549   5.232  17.657  0.00  0.00    +0.000 A 
ATOM     18  C   UNL     1       6.460   6.238  16.701  0.00  0.00    +0.000 A 
ATOM     19  N   UNL     1       7.074   7.444  16.789  0.00  0.00    +0.000 NA
ENDBRANCH  12  17
ENDBRANCH  11  12
ENDBRANCH   5  11
ENDBRANCH   1   9
BRANCH   3  20
ATOM     20  C   UNL     1       0.746  10.383  18.995  0.00  0.00    +0.000 C 
ATOM     21  C   UNL     1       1.498  11.237  20.011  0.00  0.00    +0.000 C 
ATOM     22  C   UNL     1       0.711  11.002  21.299  0.00  0.00    +0.000 C 
ATOM     23  N   UNL     1      -0.685  10.876  20.859  0.00  0.00    +0.000 N 
ATOM     24  C   UNL     1      -0.725  10.628  19.403  0.00  0.00    +0.000 C 
BRANCH  23  25
ATOM     25  C   UNL     1      -1.614  11.779  21.390  0.00  0.00    +0.000 A 
ATOM     26  N   UNL     1      -2.119  12.738  20.574  0.00  0.00    +0.000 NA
ATOM     27  C   UNL     1      -3.034  13.609  21.063  0.00  0.00    +0.000 A 
ATOM     28  C   UNL     1      -3.492  13.595  22.365  0.00  0.00    +0.000 A 
ATOM     29  C   UNL     1      -2.962  12.643  23.222  0.00  0.00    +0.000 A 
ATOM     30  C   UNL     1      -2.016  11.743  22.736  0.00  0.00    +0.000 A 
ATOM     31  F   UNL     1      -1.510  10.840  23.593  0.00  0.00    +0.000 F 
ENDBRANCH  23  25
ENDBRANCH   3  20
TORSDOF 6
ENDMDL
MODEL 4
REMARK VINA RESULT:      -8.2      1.904      2.456
REMARK  Name = 
REMARK  7 active torsions:
REMARK  status: ('A' for Active; 'I' for Inactive)
REMARK    1  A    between atoms: C_1  and  C_2
REMARK    2  A    between atoms: C_5  and  O_6
REMARK    3  A    between atoms: O_6  and  C_7
REMARK    4  A    between atoms: C_7  and  C_8
REMARK    5  A    between atoms: C_12  and  C_13
REMARK    6  A    between atoms: N_15  and  C_16
REMARK    7  A    between atoms: N_19  and  C_20
REMARK                            x       y       z     vdW  Elec       q    Type
REMARK                         _______ _______ _______ _____ _____    ______ ____
ROOT
ATOM      1  C   UNL     1       1.967   8.699  18.245  0.00  0.00    +0.000 C 
ATOM      2  O   UNL     1       2.581   9.364  17.420  0.00  0.00    +0.000 OA
ATOM      3  N   UNL     1       0.802   9.121  18.861  0.00  0.00    +0.000 N 
ATOM      4  H   UNL     1       0.510   8.644  19.706  0.00  0.00    +0.000 HD
ENDROOT
BRANCH   1   9
ATOM      5  C   UNL     1       4.301   5.746  18.719  0.00  0.00    +0.000 A 
ATOM      6  C   UNL     1       3.598   5.001  19.677  0.00  0.00    +0.000 A 
ATOM      7  C   UNL     1       2.353   5.430  20.139  0.00  0.00    +0.000 A 
ATOM      8  C   UNL     1       1.801   6.617  19.658  0.00  0.00    +0.000 A 
ATOM      9  C   UNL     1       2.494   7.382  18.710  0.00  0.00    +0.000 A 
ATOM     10  C   UNL     1       3.725   6.926  18.218  0.00  0.00    +0.000 A 
BRANCH   5  11
ATOM     11  C   UNL     1       5.665   5.291  18.258  0.00  0.00    +0.000 C 
BRANCH  11  12
ATOM     12  O   UNL     1       5.532   4.169  17.387  0.00  0.00    +0.000 OA
BRANCH  12  17
ATOM     13  C   UNL     1       7.833   5.212  12.362  0.00  0.00    +0.000 C 
ATOM     14  C   UNL     1       7.173   4.886  13.669  0.00  0.00    +0.000 A 
ATOM     15  C   UNL     1       6.098   4.008  13.725  0.00  0.00    +0.000 A 
ATOM     16  C   UNL     1       5.508   3.730  14.962  0.00  0.00    +0.000 A 
ATOM     17  C   UNL     1       6.003   4.333  16.115  0.00  0.00    +0.000 A 
ATOM     18  C   UNL     1       7.083   5.195  15.958  0.00  0.00    +0.000 A 
ATOM     19  N   UNL     1       7.674   5.485  14.772  0.00  0.00    +0.000 NA
ENDBRANCH  12  17
ENDBRANCH  11  12
ENDBRANCH   5  11
ENDBRANCH   1   9
BRANCH   3  20
ATOM     20  C   UNL     1       0.279  10.474  18.674  0.00  0.00    +0.000 C 
ATOM     21  C   UNL     1       1.133  11.489  19.427  0.00  0.00    +0.000 C 
ATOM     22  C   UNL     1       0.619  11.368  20.860  0.00  0.00    +0.000 C 
ATOM     23  N   UNL     1      -0.820  11.107  20.713  0.00  0.00    +0.000 N 
ATOM     24  C   UNL     1      -1.107  10.680  19.328  0.00  0.00    +0.000 C 
BRANCH  23  25
ATOM     25  C   UNL     1      -1.705  12.012  21.311  0.00  0.00    +0.000 A 
ATOM     26  N   UNL     1      -2.175  13.042  20.563  0.00  0.00    +0.000 NA
ATOM     27  C   UNL     1      -3.048  13.917  21.117  0.00  0.00    +0.000 A 
ATOM     28  C   UNL     1      -3.496  13.840  22.420  0.00  0.00    +0.000 A 
ATOM     29  C   UNL     1      -3.000  12.814  23.209  0.00  0.00    +0.000 A 
ATOM     30  C   UNL     1      -2.097  11.907  22.656  0.00  0.00    +0.000 A 
ATOM     31  F   UNL     1      -1.624  10.930  23.448  0.00  0.00    +0.000 F 
ENDBRANCH  23  25
ENDBRANCH   3  20
TORSDOF 6
ENDMDL
MODEL 5
REMARK VINA RESULT:      -8.2      1.349      1.664
REMARK  Name = 
REMARK  7 active torsions:
REMARK  status: ('A' for Active; 'I' for Inactive)
REMARK    1  A    between atoms: C_1  and  C_2
REMARK    2  A    between atoms: C_5  and  O_6
REMARK    3  A    between atoms: O_6  and  C_7
REMARK    4  A    between atoms: C_7  and  C_8
REMARK    5  A    between atoms: C_12  and  C_13
REMARK    6  A    between atoms: N_15  and  C_16
REMARK    7  A    between atoms: N_19  and  C_20
REMARK                            x       y       z     vdW  Elec       q    Type
REMARK                         _______ _______ _______ _____ _____    ______ ____
ROOT
ATOM      1  C   UNL     1       2.096   7.310  19.790  0.00  0.00    +0.000 C 
ATOM      2  O   UNL     1       2.794   7.947  19.013  0.00  0.00    +0.000 OA
ATOM      3  N   UNL     1       1.499   7.854  20.914  0.00  0.00    +0.000 N 
ATOM      4  H   UNL     1       1.169   7.222  21.633  0.00  0.00    +0.000 HD
ENDROOT
BRANCH   1   9
ATOM      5  C   UNL     1       2.293   3.830  18.291  0.00  0.00    +0.000 A 
ATOM      6  C   UNL     1       1.705   3.066  19.311  0.00  0.00    +0.000 A 
ATOM      7  C   UNL     1       1.208   3.678  20.462  0.00  0.00    +0.000 A 
ATOM      8  C   UNL     1       1.305   5.061  20.615  0.00  0.00    +0.000 A 
ATOM      9  C   UNL     1       1.901   5.840  19.614  0.00  0.00    +0.000 A 
ATOM     10  C   UNL     1       2.361   5.225  18.440  0.00  0.00    +0.000 A 
BRANCH   5  11
ATOM     11  C   UNL     1       2.863   3.150  17.069  0.00  0.00    +0.000 C 
BRANCH  11  12
ATOM     12  O   UNL     1       4.267   2.962  17.230  0.00  0.00    +0.000 OA
BRANCH  12  17
ATOM     13  C   UNL     1       7.577   7.499  17.537  0.00  0.00    +0.000 C 
ATOM     14  C   UNL     1       6.679   6.307  17.385  0.00  0.00    +0.000 A 
ATOM     15  C   UNL     1       5.994   6.078  16.198  0.00  0.00    +0.000 A 
ATOM     16  C   UNL     1       5.165   4.957  16.095  0.00  0.00    +0.000 A 
ATOM     17  C   UNL     1       5.038   4.089  17.175  0.00  0.00    +0.000 A 
ATOM     18  C   UNL     1       5.766   4.400  18.319  0.00  0.00    +0.000 A 
ATOM     19  N   UNL     1       6.576   5.480  18.449  0.00  0.00    +0.000 NA
ENDBRANCH  12  17
ENDBRANCH  11  12
ENDBRANCH   5  11
ENDBRANCH   1   9
BRANCH   3  20
ATOM     20  C   UNL     1       1.772   9.225  21.342  0.00  0.00    +0.000 C 
ATOM     21  C   UNL     1       1.508   9.385  22.835  0.00  0.00    +0.000 C 
ATOM     22  C   UNL     1      -0.009   9.551  22.896  0.00  0.00    +0.000 C 
ATOM     23  N   UNL     1      -0.345  10.307  21.681  0.00  0.00    +0.000 N 
ATOM     24  C   UNL     1       0.789  10.254  20.735  0.00  0.00    +0.000 C 
BRANCH  23  25
ATOM     25  C   UNL     1      -0.998  11.535  21.845  0.00  0.00    +0.000 A 
ATOM     26  N   UNL     1      -0.813  12.211  23.007  0.00  0.00    +0.000 NA
ATOM     27  C   UNL     1      -1.420  13.411  23.177  0.00  0.00    +0.000 A 
ATOM     28  C   UNL     1      -2.239  14.001  22.237  0.00  0.00    +0.000 A 
ATOM     29  C   UNL     1      -2.465  13.308  21.058  0.00  0.00    +0.000 A 
ATOM     30  C   UNL     1      -1.853  12.071  20.868  0.00  0.00    +0.000 A 
ATOM     31  F   UNL     1      -2.102  11.416  19.721  0.00  0.00    +0.000 F 
ENDBRANCH  23  25
ENDBRANCH   3  20
TORSDOF 6
ENDMDL
MODEL 6
REMARK VINA RESULT:      -8.1      3.125     10.195
REMARK  Name = 
REMARK  7 active torsions:
REMARK  status: ('A' for Active; 'I' for Inactive)
REMARK    1  A    between atoms: C_1  and  C_2
REMARK    2  A    between atoms: C_5  and  O_6
REMARK    3  A    between atoms: O_6  and  C_7
REMARK    4  A    between atoms: C_7  and  C_8
REMARK    5  A    between atoms: C_12  and  C_13
REMARK    6  A    between atoms: N_15  and  C_16
REMARK    7  A    between atoms: N_19  and  C_20
REMARK                            x       y       z     vdW  Elec       q    Type
REMARK                         _______ _______ _______ _____ _____    ______ ____
ROOT
ATOM      1  C   UNL     1       1.282   9.227  19.274  0.00  0.00    +0.000 C 
ATOM      2  O   UNL     1       1.219   9.959  18.295  0.00  0.00    +0.000 OA
ATOM      3  N   UNL     1       1.794   7.942  19.244  0.00  0.00    +0.000 N 
ATOM      4  H   UNL     1       1.570   7.321  20.013  0.00  0.00    +0.000 HD
ENDROOT
BRANCH   1   9
ATOM      5  C   UNL     1      -0.770  11.131  21.836  0.00  0.00    +0.000 A 
ATOM      6  C   UNL     1      -0.480  10.406  23.002  0.00  0.00    +0.000 A 
ATOM      7  C   UNL     1       0.407   9.330  22.969  0.00  0.00    +0.000 A 
ATOM      8  C   UNL     1       1.008   8.957  21.766  0.00  0.00    +0.000 A 
ATOM      9  C   UNL     1       0.722   9.660  20.589  0.00  0.00    +0.000 A 
ATOM     10  C   UNL     1      -0.139  10.767  20.634  0.00  0.00    +0.000 A 
BRANCH   5  11
ATOM     11  C   UNL     1      -1.763  12.268  21.878  0.00  0.00    +0.000 C 
BRANCH  11  12
ATOM     12  O   UNL     1      -2.004  12.749  20.558  0.00  0.00    +0.000 OA
BRANCH  12  17
ATOM     13  C   UNL     1      -6.920  11.656  18.051  0.00  0.00    +0.000 C 
ATOM     14  C   UNL     1      -5.646  11.977  18.777  0.00  0.00    +0.000 A 
ATOM     15  C   UNL     1      -5.670  12.633  20.001  0.00  0.00    +0.000 A 
ATOM     16  C   UNL     1      -4.462  12.916  20.647  0.00  0.00    +0.000 A 
ATOM     17  C   UNL     1      -3.259  12.538  20.058  0.00  0.00    +0.000 A 
ATOM     18  C   UNL     1      -3.337  11.884  18.833  0.00  0.00    +0.000 A 
ATOM     19  N   UNL     1      -4.493  11.598  18.183  0.00  0.00    +0.000 NA
ENDBRANCH  12  17
ENDBRANCH  11  12
ENDBRANCH   5  11
ENDBRANCH   1   9
BRANCH   3  20
ATOM     20  C   UNL     1       2.180   7.297  17.990  0.00  0.00    +0.000 C 
ATOM     21  C   UNL     1       1.970   5.789  18.074  0.00  0.00    +0.000 C 
ATOM     22  C   UNL     1       3.211   5.315  18.829  0.00  0.00    +0.000 C 
ATOM     23  N   UNL     1       4.285   6.204  18.363  0.00  0.00    +0.000 N 
ATOM     24  C   UNL     1       3.697   7.390  17.707  0.00  0.00    +0.000 C 
BRANCH  23  25
ATOM     25  C   UNL     1       5.397   5.608  17.756  0.00  0.00    +0.000 A 
ATOM     26  N   UNL     1       5.343   5.355  16.423  0.00  0.00    +0.000 NA
ATOM     27  C   UNL     1       6.417   4.798  15.813  0.00  0.00    +0.000 A 
ATOM     28  C   UNL     1       7.583   4.453  16.466  0.00  0.00    +0.000 A 
ATOM     29  C   UNL     1       7.642   4.674  17.833  0.00  0.00    +0.000 A 
ATOM     30  C   UNL     1       6.545   5.242  18.477  0.00  0.00    +0.000 A 
ATOM     31  F   UNL     1       6.627   5.432  19.806  0.00  0.00    +0.000 F 
ENDBRANCH  23  25
ENDBRANCH   3  20
TORSDOF 6
ENDMDL
MODEL 7
REMARK VINA RESULT:      -8.0      1.682      2.330
REMARK  Name = 
REMARK  7 active torsions:
REMARK  status: ('A' for Active; 'I' for Inactive)
REMARK    1  A    between atoms: C_1  and  C_2
REMARK    2  A    between atoms: C_5  and  O_6
REMARK    3  A    between atoms: O_6  and  C_7
REMARK    4  A    between atoms: C_7  and  C_8
REMARK    5  A    between atoms: C_12  and  C_13
REMARK    6  A    between atoms: N_15  and  C_16
REMARK    7  A    between atoms: N_19  and  C_20
REMARK                            x       y       z     vdW  Elec       q    Type
REMARK                         _______ _______ _______ _____ _____    ______ ____
ROOT
ATOM      1  C   UNL     1       2.478   7.333  18.935  0.00  0.00    +0.000 C 
ATOM      2  O   UNL     1       2.801   8.248  18.189  0.00  0.00    +0.000 OA
ATOM      3  N   UNL     1       1.945   7.521  20.199  0.00  0.00    +0.000 N 
ATOM      4  H   UNL     1       1.955   6.738  20.842  0.00  0.00    +0.000 HD
ENDROOT
BRANCH   1   9
ATOM      5  C   UNL     1       3.940   4.298  17.191  0.00  0.00    +0.000 A 
ATOM      6  C   UNL     1       3.322   3.258  17.901  0.00  0.00    +0.000 A 
ATOM      7  C   UNL     1       2.404   3.536  18.914  0.00  0.00    +0.000 A 
ATOM      8  C   UNL     1       2.101   4.858  19.239  0.00  0.00    +0.000 A 
ATOM      9  C   UNL     1       2.717   5.910  18.550  0.00  0.00    +0.000 A 
ATOM     10  C   UNL     1       3.608   5.627  17.504  0.00  0.00    +0.000 A 
BRANCH   5  11
ATOM     11  C   UNL     1       4.962   3.983  16.124  0.00  0.00    +0.000 C 
BRANCH  11  12
ATOM     12  O   UNL     1       6.248   3.829  16.717  0.00  0.00    +0.000 OA
BRANCH  12  17
ATOM     13  C   UNL     1       8.506   8.707  18.375  0.00  0.00    +0.000 C 
ATOM     14  C   UNL     1       7.914   7.380  18.002  0.00  0.00    +0.000 A 
ATOM     15  C   UNL     1       7.844   6.345  18.926  0.00  0.00    +0.000 A 
ATOM     16  C   UNL     1       7.287   5.122  18.541  0.00  0.00    +0.000 A 
ATOM     17  C   UNL     1       6.811   4.958  17.244  0.00  0.00    +0.000 A 
ATOM     18  C   UNL     1       6.921   6.052  16.392  0.00  0.00    +0.000 A 
ATOM     19  N   UNL     1       7.458   7.248  16.736  0.00  0.00    +0.000 NA
ENDBRANCH  12  17
ENDBRANCH  11  12
ENDBRANCH   5  11
ENDBRANCH   1   9
BRANCH   3  20
ATOM     20  C   UNL     1       1.853   8.848  20.805  0.00  0.00    +0.000 C 
ATOM     21  C   UNL     1       1.045   8.794  22.098  0.00  0.00    +0.000 C 
ATOM     22  C   UNL     1      -0.398   8.801  21.596  0.00  0.00    +0.000 C 
ATOM     23  N   UNL     1      -0.369   9.666  20.408  0.00  0.00    +0.000 N 
ATOM     24  C   UNL     1       1.026   9.843  19.956  0.00  0.00    +0.000 C 
BRANCH  23  25
ATOM     25  C   UNL     1      -1.199  10.794  20.410  0.00  0.00    +0.000 A 
ATOM     26  N   UNL     1      -1.304  11.513  21.556  0.00  0.00    +0.000 NA
ATOM     27  C   UNL     1      -2.086  12.619  21.574  0.00  0.00    +0.000 A 
ATOM     28  C   UNL     1      -2.808  13.070  20.488  0.00  0.00    +0.000 A 
ATOM     29  C   UNL     1      -2.739  12.329  19.319  0.00  0.00    +0.000 A 
ATOM     30  C   UNL     1      -1.943  11.186  19.285  0.00  0.00    +0.000 A 
ATOM     31  F   UNL     1      -1.907  10.480  18.142  0.00  0.00    +0.000 F 
ENDBRANCH  23  25
ENDBRANCH   3  20
TORSDOF 6
ENDMDL
MODEL 8
REMARK VINA RESULT:      -8.0      1.606      1.952
REMARK  Name = 
REMARK  7 active torsions:
REMARK  status: ('A' for Active; 'I' for Inactive)
REMARK    1  A    between atoms: C_1  and  C_2
REMARK    2  A    between atoms: C_5  and  O_6
REMARK    3  A    between atoms: O_6  and  C_7
REMARK    4  A    between atoms: C_7  and  C_8
REMARK    5  A    between atoms: C_12  and  C_13
REMARK    6  A    between atoms: N_15  and  C_16
REMARK    7  A    between atoms: N_19  and  C_20
REMARK                            x       y       z     vdW  Elec       q    Type
REMARK                         _______ _______ _______ _____ _____    ______ ____
ROOT
ATOM      1  C   UNL     1       1.924   7.273  19.948  0.00  0.00    +0.000 C 
ATOM      2  O   UNL     1       2.599   7.938  19.174  0.00  0.00    +0.000 OA
ATOM      3  N   UNL     1       1.313   7.790  21.077  0.00  0.00    +0.000 N 
ATOM      4  H   UNL     1       1.005   7.141  21.792  0.00  0.00    +0.000 HD
ENDROOT
BRANCH   1   9
ATOM      5  C   UNL     1       2.211   3.816  18.412  0.00  0.00    +0.000 A 
ATOM      6  C   UNL     1       1.665   3.024  19.433  0.00  0.00    +0.000 A 
ATOM      7  C   UNL     1       1.166   3.608  20.597  0.00  0.00    +0.000 A 
ATOM      8  C   UNL     1       1.220   4.992  20.762  0.00  0.00    +0.000 A 
ATOM      9  C   UNL     1       1.774   5.799  19.760  0.00  0.00    +0.000 A 
ATOM     10  C   UNL     1       2.235   5.211  18.573  0.00  0.00    +0.000 A 
BRANCH   5  11
ATOM     11  C   UNL     1       2.783   3.167  17.174  0.00  0.00    +0.000 C 
BRANCH  11  12
ATOM     12  O   UNL     1       4.184   2.960  17.339  0.00  0.00    +0.000 OA
BRANCH  12  17
ATOM     13  C   UNL     1       7.580   7.441  17.507  0.00  0.00    +0.000 C 
ATOM     14  C   UNL     1       6.658   6.263  17.392  0.00  0.00    +0.000 A 
ATOM     15  C   UNL     1       5.941   6.031  16.225  0.00  0.00    +0.000 A 
ATOM     16  C   UNL     1       5.090   4.923  16.156  0.00  0.00    +0.000 A 
ATOM     17  C   UNL     1       4.973   4.072  17.251  0.00  0.00    +0.000 A 
ATOM     18  C   UNL     1       5.733   4.385  18.373  0.00  0.00    +0.000 A 
ATOM     19  N   UNL     1       6.564   5.453  18.470  0.00  0.00    +0.000 NA
ENDBRANCH  12  17
ENDBRANCH  11  12
ENDBRANCH   5  11
ENDBRANCH   1   9
BRANCH   3  20
ATOM     20  C   UNL     1       1.544   9.165  21.516  0.00  0.00    +0.000 C 
ATOM     21  C   UNL     1       1.043   9.367  22.942  0.00  0.00    +0.000 C 
ATOM     22  C   UNL     1      -0.460   9.564  22.748  0.00  0.00    +0.000 C 
ATOM     23  N   UNL     1      -0.573  10.297  21.479  0.00  0.00    +0.000 N 
ATOM     24  C   UNL     1       0.699  10.198  20.734  0.00  0.00    +0.000 C 
BRANCH  23  25
ATOM     25  C   UNL     1      -1.215  11.541  21.507  0.00  0.00    +0.000 A 
ATOM     26  N   UNL     1      -0.976  12.411  20.494  0.00  0.00    +0.000 NA
ATOM     27  C   UNL     1      -1.602  13.612  20.492  0.00  0.00    +0.000 A 
ATOM     28  C   UNL     1      -2.478  14.027  21.474  0.00  0.00    +0.000 A 
ATOM     29  C   UNL     1      -2.708  13.164  22.535  0.00  0.00    +0.000 A 
ATOM     30  C   UNL     1      -2.068  11.926  22.555  0.00  0.00    +0.000 A 
ATOM     31  F   UNL     1      -2.299  11.117  23.603  0.00  0.00    +0.000 F 
ENDBRANCH  23  25
ENDBRANCH   3  20
TORSDOF 6
ENDMDL
MODEL 9
REMARK VINA RESULT:      -8.0      1.577      2.073
REMARK  Name = 
REMARK  7 active torsions:
REMARK  status: ('A' for Active; 'I' for Inactive)
REMARK    1  A    between atoms: C_1  and  C_2
REMARK    2  A    between atoms: C_5  and  O_6
REMARK    3  A    between atoms: O_6  and  C_7
REMARK    4  A    between atoms: C_7  and  C_8
REMARK    5  A    between atoms: C_12  and  C_13
REMARK    6  A    between atoms: N_15  and  C_16
REMARK    7  A    between atoms: N_19  and  C_20
REMARK                            x       y       z     vdW  Elec       q    Type
REMARK                         _______ _______ _______ _____ _____    ______ ____
ROOT
ATOM      1  C   UNL     1       1.987   7.086  19.964  0.00  0.00    +0.000 C 
ATOM      2  O   UNL     1       2.412   7.810  19.073  0.00  0.00    +0.000 OA
ATOM      3  N   UNL     1       1.515   7.554  21.178  0.00  0.00    +0.000 N 
ATOM      4  H   UNL     1       1.435   6.896  21.944  0.00  0.00    +0.000 HD
ENDROOT
BRANCH   1   9
ATOM      5  C   UNL     1       3.136   3.615  18.950  0.00  0.00    +0.000 A 
ATOM      6  C   UNL     1       2.229   2.816  19.662  0.00  0.00    +0.000 A 
ATOM      7  C   UNL     1       1.223   3.396  20.434  0.00  0.00    +0.000 A 
ATOM      8  C   UNL     1       1.118   4.784  20.516  0.00  0.00    +0.000 A 
ATOM      9  C   UNL     1       2.022   5.600  19.824  0.00  0.00    +0.000 A 
ATOM     10  C   UNL     1       3.006   5.013  19.014  0.00  0.00    +0.000 A 
BRANCH   5  11
ATOM     11  C   UNL     1       4.245   2.974  18.149  0.00  0.00    +0.000 C 
BRANCH  11  12
ATOM     12  O   UNL     1       4.581   3.803  17.039  0.00  0.00    +0.000 OA
BRANCH  12  17
ATOM     13  C   UNL     1       8.060   8.182  17.638  0.00  0.00    +0.000 C 
ATOM     14  C   UNL     1       7.172   6.978  17.529  0.00  0.00    +0.000 A 
ATOM     15  C   UNL     1       7.431   5.832  18.272  0.00  0.00    +0.000 A 
ATOM     16  C   UNL     1       6.581   4.729  18.143  0.00  0.00    +0.000 A 
ATOM     17  C   UNL     1       5.492   4.793  17.278  0.00  0.00    +0.000 A 
ATOM     18  C   UNL     1       5.314   5.983  16.581  0.00  0.00    +0.000 A 
ATOM     19  N   UNL     1       6.122   7.067  16.683  0.00  0.00    +0.000 NA
ENDBRANCH  12  17
ENDBRANCH  11  12
ENDBRANCH   5  11
ENDBRANCH   1   9
BRANCH   3  20
ATOM     20  C   UNL     1       1.618   8.964  21.551  0.00  0.00    +0.000 C 
ATOM     21  C   UNL     1       0.913   9.222  22.878  0.00  0.00    +0.000 C 
ATOM     22  C   UNL     1      -0.555   9.323  22.468  0.00  0.00    +0.000 C 
ATOM     23  N   UNL     1      -0.524   9.972  21.149  0.00  0.00    +0.000 N 
ATOM     24  C   UNL     1       0.843   9.899  20.594  0.00  0.00    +0.000 C 
BRANCH  23  25
ATOM     25  C   UNL     1      -1.221  11.177  21.006  0.00  0.00    +0.000 A 
ATOM     26  N   UNL     1      -1.711  11.496  19.781  0.00  0.00    +0.000 NA
ATOM     27  C   UNL     1      -2.405  12.648  19.626  0.00  0.00    +0.000 A 
ATOM     28  C   UNL     1      -2.647  13.546  20.645  0.00  0.00    +0.000 A 
ATOM     29  C   UNL     1      -2.125  13.254  21.895  0.00  0.00    +0.000 A 
ATOM     30  C   UNL     1      -1.404  12.074  22.071  0.00  0.00    +0.000 A 
ATOM     31  F   UNL     1      -0.899  11.824  23.292  0.00  0.00    +0.000 F 
ENDBRANCH  23  25
ENDBRANCH   3  20
TORSDOF 6
ENDMDL
