MODEL 1
REMARK VINA RESULT:      -8.1      0.000      0.000
REMARK  Name = 
REMARK  9 active torsions:
REMARK  status: ('A' for Active; 'I' for Inactive)
REMARK    1  A    between atoms: C_1  and  C_2
REMARK    2  A    between atoms: C_2  and  C_3
REMARK    3  A    between atoms: C_6  and  C_7
REMARK    4  A    between atoms: N_10  and  C_11
REMARK    5  A    between atoms: C_15  and  C_16
REMARK    6  A    between atoms: C_16  and  C_17
REMARK    7  A    between atoms: C_16  and  C_18
REMARK    8  A    between atoms: C_18  and  C_19
REMARK    9  A    between atoms: N_23  and  C_24
REMARK                            x       y       z     vdW  Elec       q    Type
REMARK                         _______ _______ _______ _____ _____    ______ ____
ROOT
ATOM      1  C   UNL     1       1.446   9.002  20.160  0.00  0.00    +0.000 A 
ATOM      2  C   UNL     1       1.387   9.356  18.808  0.00  0.00    +0.000 A 
ATOM      3  C   UNL     1       1.846   8.496  17.801  0.00  0.00    +0.000 A 
ATOM      4  C   UNL     1       2.353   7.240  18.122  0.00  0.00    +0.000 A 
ATOM      5  C   UNL     1       2.405   6.830  19.455  0.00  0.00    +0.000 A 
ATOM      6  C   UNL     1       1.943   7.717  20.447  0.00  0.00    +0.000 A 
ENDROOT
BRANCH   1  10
ATOM      7  C   UNL     1      -0.724  10.949  22.168  0.00  0.00    +0.000 C 
ATOM      8  N   UNL     1      -0.314  10.186  23.143  0.00  0.00    +0.000 NA
ATOM      9  C   UNL     1       0.825   9.439  22.567  0.00  0.00    +0.000 C 
ATOM     10  N   UNL     1       1.035   9.835  21.184  0.00  0.00    +0.000 N 
ATOM     11  C   UNL     1       0.077  10.890  20.886  0.00  0.00    +0.000 C 
BRANCH   7  15
ATOM     12  C   UNL     1      -4.201  13.446  22.535  0.00  0.00    +0.000 A 
ATOM     13  C   UNL     1      -3.750  12.680  23.616  0.00  0.00    +0.000 A 
ATOM     14  C   UNL     1      -2.616  11.873  23.487  0.00  0.00    +0.000 A 
ATOM     15  C   UNL     1      -1.913  11.828  22.279  0.00  0.00    +0.000 A 
ATOM     16  C   UNL     1      -2.358  12.594  21.197  0.00  0.00    +0.000 A 
ATOM     17  C   UNL     1      -3.493  13.400  21.327  0.00  0.00    +0.000 A 
BRANCH  12  19
ATOM     18  C   UNL     1      -6.572  13.839  21.809  0.00  0.00    +0.000 C 
ATOM     19  C   UNL     1      -5.417  14.327  22.670  0.00  0.00    +0.000 C 
ENDBRANCH  12  19
ENDBRANCH   7  15
ENDBRANCH   1  10
BRANCH   5  20
ATOM     20  C   UNL     1       2.960   5.476  19.872  0.00  0.00    +0.000 C 
ATOM     21  C   UNL     1       1.889   4.643  20.589  0.00  0.00    +0.000 C 
BRANCH  20  22
ATOM     22  C   UNL     1       3.546   4.682  18.687  0.00  0.00    +0.000 C 
BRANCH  22  23
ATOM     23  C   UNL     1       5.035   4.767  18.617  0.00  0.00    +0.000 A 
ATOM     24  N   UNL     1       5.852   5.042  19.616  0.00  0.00    +0.000 NA
ATOM     25  N   UNL     1       7.142   5.014  19.139  0.00  0.00    +0.000 NA
ATOM     26  C   UNL     1       7.085   4.713  17.863  0.00  0.00    +0.000 A 
ATOM     27  N   UNL     1       5.787   4.549  17.493  0.00  0.00    +0.000 N 
ATOM     28  C   UNL     1       5.320   4.197  16.179  0.00  0.00    +0.000 C 
ENDBRANCH  22  23
ENDBRANCH  20  22
ENDBRANCH   5  20
TORSDOF 6
ENDMDL
MODEL 2
REMARK VINA RESULT:      -8.0      2.651      4.584
REMARK  Name = 
REMARK  9 active torsions:
REMARK  status: ('A' for Active; 'I' for Inactive)
REMARK    1  A    between atoms: C_1  and  C_2
REMARK    2  A    between atoms: C_2  and  C_3
REMARK    3  A    between atoms: C_6  and  C_7
REMARK    4  A    between atoms: N_10  and  C_11
REMARK    5  A    between atoms: C_15  and  C_16
REMARK    6  A    between atoms: C_16  and  C_17
REMARK    7  A    between atoms: C_16  and  C_18
REMARK    8  A    between atoms: C_18  and  C_19
REMARK    9  A    between atoms: N_23  and  C_24
REMARK                            x       y       z     vdW  Elec       q    Type
REMARK                         _______ _______ _______ _____ _____    ______ ____
ROOT
ATOM      1  C   UNL     1       2.879   5.615  18.751  0.00  0.00    +0.000 A 
ATOM      2  C   UNL     1       2.013   4.576  18.393  0.00  0.00    +0.000 A 
ATOM      3  C   UNL     1       2.354   3.639  17.408  0.00  0.00    +0.000 A 
ATOM      4  C   UNL     1       3.591   3.701  16.773  0.00  0.00    +0.000 A 
ATOM      5  C   UNL     1       4.501   4.702  17.117  0.00  0.00    +0.000 A 
ATOM      6  C   UNL     1       4.129   5.635  18.105  0.00  0.00    +0.000 A 
ENDROOT
BRANCH   1  10
ATOM      7  C   UNL     1       1.203   8.348  20.253  0.00  0.00    +0.000 C 
ATOM      8  N   UNL     1       0.975   7.516  21.232  0.00  0.00    +0.000 NA
ATOM      9  C   UNL     1       1.828   6.349  20.925  0.00  0.00    +0.000 C 
ATOM     10  N   UNL     1       2.565   6.578  19.692  0.00  0.00    +0.000 N 
ATOM     11  C   UNL     1       2.242   7.922  19.238  0.00  0.00    +0.000 C 
BRANCH   7  15
ATOM     12  C   UNL     1      -0.901  12.077  19.902  0.00  0.00    +0.000 A 
ATOM     13  C   UNL     1      -0.674  11.496  21.155  0.00  0.00    +0.000 A 
ATOM     14  C   UNL     1       0.014  10.284  21.259  0.00  0.00    +0.000 A 
ATOM     15  C   UNL     1       0.492   9.641  20.111  0.00  0.00    +0.000 A 
ATOM     16  C   UNL     1       0.270  10.220  18.857  0.00  0.00    +0.000 A 
ATOM     17  C   UNL     1      -0.420  11.432  18.756  0.00  0.00    +0.000 A 
BRANCH  12  19
ATOM     18  C   UNL     1      -0.733  14.575  20.090  0.00  0.00    +0.000 C 
ATOM     19  C   UNL     1      -1.634  13.389  19.783  0.00  0.00    +0.000 C 
ENDBRANCH  12  19
ENDBRANCH   7  15
ENDBRANCH   1  10
BRANCH   5  20
ATOM     20  C   UNL     1       5.863   4.832  16.451  0.00  0.00    +0.000 C 
ATOM     21  C   UNL     1       6.993   4.616  17.467  0.00  0.00    +0.000 C 
BRANCH  20  22
ATOM     22  C   UNL     1       6.034   3.875  15.255  0.00  0.00    +0.000 C 
BRANCH  22  23
ATOM     23  C   UNL     1       6.788   4.494  14.124  0.00  0.00    +0.000 A 
ATOM     24  N   UNL     1       7.690   5.453  14.215  0.00  0.00    +0.000 NA
ATOM     25  N   UNL     1       8.152   5.732  12.950  0.00  0.00    +0.000 NA
ATOM     26  C   UNL     1       7.530   4.932  12.116  0.00  0.00    +0.000 A 
ATOM     27  N   UNL     1       6.668   4.139  12.805  0.00  0.00    +0.000 N 
ATOM     28  C   UNL     1       5.821   3.122  12.244  0.00  0.00    +0.000 C 
ENDBRANCH  22  23
ENDBRANCH  20  22
ENDBRANCH   5  20
TORSDOF 6
ENDMDL
MODEL 3
REMARK VINA RESULT:      -7.9      1.271      1.583
REMARK  Name = 
REMARK  9 active torsions:
REMARK  status: ('A' for Active; 'I' for Inactive)
REMARK    1  A    between atoms: C_1  and  C_2
REMARK    2  A    between atoms: C_2  and  C_3
REMARK    3  A    between atoms: C_6  and  C_7
REMARK    4  A    between atoms: N_10  and  C_11
REMARK    5  A    between atoms: C_15  and  C_16
REMARK    6  A    between atoms: C_16  and  C_17
REMARK    7  A    between atoms: C_16  and  C_18
REMARK    8  A    between atoms: C_18  and  C_19
REMARK    9  A    between atoms: N_23  and  C_24
REMARK                            x       y       z     vdW  Elec       q    Type
REMARK                         _______ _______ _______ _____ _____    ______ ____
ROOT
ATOM      1  C   UNL     1       1.360   8.951  20.380  0.00  0.00    +0.000 A 
ATOM      2  C   UNL     1       1.276   9.521  19.105  0.00  0.00    +0.000 A 
ATOM      3  C   UNL     1       1.744   8.851  17.967  0.00  0.00    +0.000 A 
ATOM      4  C   UNL     1       2.284   7.573  18.072  0.00  0.00    +0.000 A 
ATOM      5  C   UNL     1       2.361   6.950  19.319  0.00  0.00    +0.000 A 
ATOM      6  C   UNL     1       1.891   7.649  20.447  0.00  0.00    +0.000 A 
ENDROOT
BRANCH   1  10
ATOM      7  C   UNL     1      -0.599  11.012  22.489  0.00  0.00    +0.000 C 
ATOM      8  N   UNL     1      -0.751   9.932  23.205  0.00  0.00    +0.000 NA
ATOM      9  C   UNL     1       0.220   8.976  22.632  0.00  0.00    +0.000 C 
ATOM     10  N   UNL     1       0.941   9.593  21.530  0.00  0.00    +0.000 N 
ATOM     11  C   UNL     1       0.487  10.973  21.436  0.00  0.00    +0.000 C 
BRANCH   7  15
ATOM     12  C   UNL     1      -2.965  14.557  23.027  0.00  0.00    +0.000 A 
ATOM     13  C   UNL     1      -1.653  14.636  22.547  0.00  0.00    +0.000 A 
ATOM     14  C   UNL     1      -0.892  13.476  22.372  0.00  0.00    +0.000 A 
ATOM     15  C   UNL     1      -1.437  12.222  22.668  0.00  0.00    +0.000 A 
ATOM     16  C   UNL     1      -2.749  12.139  23.145  0.00  0.00    +0.000 A 
ATOM     17  C   UNL     1      -3.508  13.300  23.320  0.00  0.00    +0.000 A 
BRANCH  12  19
ATOM     18  C   UNL     1      -4.119  16.065  24.670  0.00  0.00    +0.000 C 
ATOM     19  C   UNL     1      -3.795  15.803  23.208  0.00  0.00    +0.000 C 
ENDBRANCH  12  19
ENDBRANCH   7  15
ENDBRANCH   1  10
BRANCH   5  20
ATOM     20  C   UNL     1       2.953   5.560  19.502  0.00  0.00    +0.000 C 
ATOM     21  C   UNL     1       1.845   4.506  19.634  0.00  0.00    +0.000 C 
BRANCH  20  22
ATOM     22  C   UNL     1       3.923   5.172  18.369  0.00  0.00    +0.000 C 
BRANCH  22  23
ATOM     23  C   UNL     1       5.355   5.380  18.739  0.00  0.00    +0.000 A 
ATOM     24  N   UNL     1       5.972   4.882  19.793  0.00  0.00    +0.000 NA
ATOM     25  N   UNL     1       7.282   5.302  19.766  0.00  0.00    +0.000 NA
ATOM     26  C   UNL     1       7.438   6.040  18.691  0.00  0.00    +0.000 A 
ATOM     27  N   UNL     1       6.259   6.116  18.018  0.00  0.00    +0.000 N 
ATOM     28  C   UNL     1       6.033   6.819  16.784  0.00  0.00    +0.000 C 
ENDBRANCH  22  23
ENDBRANCH  20  22
ENDBRANCH   5  20
TORSDOF 6
ENDMDL
MODEL 4
REMARK VINA RESULT:      -7.9      1.758      2.282
REMARK  Name = 
REMARK  9 active torsions:
REMARK  status: ('A' for Active; 'I' for Inactive)
REMARK    1  A    between atoms: C_1  and  C_2
REMARK    2  A    between atoms: C_2  and  C_3
REMARK    3  A    between atoms: C_6  and  C_7
REMARK    4  A    between atoms: N_10  and  C_11
REMARK    5  A    between atoms: C_15  and  C_16
REMARK    6  A    between atoms: C_16  and  C_17
REMARK    7  A    between atoms: C_16  and  C_18
REMARK    8  A    between atoms: C_18  and  C_19
REMARK    9  A    between atoms: N_23  and  C_24
REMARK                            x       y       z     vdW  Elec       q    Type
REMARK                         _______ _______ _______ _____ _____    ______ ____
ROOT
ATOM      1  C   UNL     1       1.016   9.680  20.383  0.00  0.00    +0.000 A 
ATOM      2  C   UNL     1       0.952  10.232  19.099  0.00  0.00    +0.000 A 
ATOM      3  C   UNL     1       1.452   9.554  17.980  0.00  0.00    +0.000 A 
ATOM      4  C   UNL     1       2.008   8.285  18.114  0.00  0.00    +0.000 A 
ATOM      5  C   UNL     1       2.067   7.679  19.370  0.00  0.00    +0.000 A 
ATOM      6  C   UNL     1       1.562   8.387  20.479  0.00  0.00    +0.000 A 
ENDROOT
BRANCH   1  10
ATOM      7  C   UNL     1      -1.214  11.345  22.571  0.00  0.00    +0.000 C 
ATOM      8  N   UNL     1      -0.916  10.391  23.410  0.00  0.00    +0.000 NA
ATOM      9  C   UNL     1       0.229   9.699  22.781  0.00  0.00    +0.000 C 
ATOM     10  N   UNL     1       0.564  10.332  21.516  0.00  0.00    +0.000 N 
ATOM     11  C   UNL     1      -0.319  11.477  21.358  0.00  0.00    +0.000 C 
BRANCH   7  15
ATOM     12  C   UNL     1      -4.594  13.930  23.165  0.00  0.00    +0.000 A 
ATOM     13  C   UNL     1      -4.290  12.923  24.087  0.00  0.00    +0.000 A 
ATOM     14  C   UNL     1      -3.186  12.089  23.887  0.00  0.00    +0.000 A 
ATOM     15  C   UNL     1      -2.368  12.256  22.765  0.00  0.00    +0.000 A 
ATOM     16  C   UNL     1      -2.666  13.264  21.842  0.00  0.00    +0.000 A 
ATOM     17  C   UNL     1      -3.771  14.096  22.044  0.00  0.00    +0.000 A 
BRANCH  12  19
ATOM     18  C   UNL     1      -6.684  14.893  22.161  0.00  0.00    +0.000 C 
ATOM     19  C   UNL     1      -5.777  14.840  23.380  0.00  0.00    +0.000 C 
ENDBRANCH  12  19
ENDBRANCH   7  15
ENDBRANCH   1  10
BRANCH   5  20
ATOM     20  C   UNL     1       2.672   6.300  19.585  0.00  0.00    +0.000 C 
ATOM     21  C   UNL     1       1.797   5.456  20.521  0.00  0.00    +0.000 C 
BRANCH  20  22
ATOM     22  C   UNL     1       2.917   5.545  18.262  0.00  0.00    +0.000 C 
BRANCH  22  23
ATOM     23  C   UNL     1       2.468   4.122  18.319  0.00  0.00    +0.000 A 
ATOM     24  N   UNL     1       1.318   3.646  17.882  0.00  0.00    +0.000 NA
ATOM     25  N   UNL     1       1.297   2.289  18.111  0.00  0.00    +0.000 NA
ATOM     26  C   UNL     1       2.438   1.966  18.675  0.00  0.00    +0.000 A 
ATOM     27  N   UNL     1       3.202   3.081  18.824  0.00  0.00    +0.000 N 
ATOM     28  C   UNL     1       4.525   3.131  19.385  0.00  0.00    +0.000 C 
ENDBRANCH  22  23
ENDBRANCH  20  22
ENDBRANCH   5  20
TORSDOF 6
ENDMDL
MODEL 5
REMARK VINA RESULT:      -7.9      1.375      1.763
REMARK  Name = 
REMARK  9 active torsions:
REMARK  status: ('A' for Active; 'I' for Inactive)
REMARK    1  A    between atoms: C_1  and  C_2
REMARK    2  A    between atoms: C_2  and  C_3
REMARK    3  A    between atoms: C_6  and  C_7
REMARK    4  A    between atoms: N_10  and  C_11
REMARK    5  A    between atoms: C_15  and  C_16
REMARK    6  A    between atoms: C_16  and  C_17
REMARK    7  A    between atoms: C_16  and  C_18
REMARK    8  A    between atoms: C_18  and  C_19
REMARK    9  A    between atoms: N_23  and  C_24
REMARK                            x       y       z     vdW  Elec       q    Type
REMARK                         _______ _______ _______ _____ _____    ______ ____
ROOT
ATOM      1  C   UNL     1       1.040   9.581  20.372  0.00  0.00    +0.000 A 
ATOM      2  C   UNL     1       0.771  10.172  19.132  0.00  0.00    +0.000 A 
ATOM      3  C   UNL     1       1.173   9.576  17.929  0.00  0.00    +0.000 A 
ATOM      4  C   UNL     1       1.834   8.351  17.935  0.00  0.00    +0.000 A 
ATOM      5  C   UNL     1       2.098   7.708  19.145  0.00  0.00    +0.000 A 
ATOM      6  C   UNL     1       1.689   8.333  20.340  0.00  0.00    +0.000 A 
ENDROOT
BRANCH   1  10
ATOM      7  C   UNL     1      -0.876  11.371  22.750  0.00  0.00    +0.000 C 
ATOM      8  N   UNL     1      -0.820  10.271  23.448  0.00  0.00    +0.000 NA
ATOM      9  C   UNL     1       0.178   9.442  22.740  0.00  0.00    +0.000 C 
ATOM     10  N   UNL     1       0.690  10.154  21.580  0.00  0.00    +0.000 N 
ATOM     11  C   UNL     1       0.075  11.473  21.577  0.00  0.00    +0.000 C 
BRANCH   7  15
ATOM     12  C   UNL     1      -3.557  14.594  23.693  0.00  0.00    +0.000 A 
ATOM     13  C   UNL     1      -2.171  14.786  23.708  0.00  0.00    +0.000 A 
ATOM     14  C   UNL     1      -1.307  13.731  23.396  0.00  0.00    +0.000 A 
ATOM     15  C   UNL     1      -1.819  12.474  23.058  0.00  0.00    +0.000 A 
ATOM     16  C   UNL     1      -3.203  12.279  23.040  0.00  0.00    +0.000 A 
ATOM     17  C   UNL     1      -4.066  13.334  23.352  0.00  0.00    +0.000 A 
BRANCH  12  19
ATOM     18  C   UNL     1      -5.949  15.354  23.777  0.00  0.00    +0.000 C 
ATOM     19  C   UNL     1      -4.495  15.729  24.018  0.00  0.00    +0.000 C 
ENDBRANCH  12  19
ENDBRANCH   7  15
ENDBRANCH   1  10
BRANCH   5  20
ATOM     20  C   UNL     1       2.827   6.374  19.220  0.00  0.00    +0.000 C 
ATOM     21  C   UNL     1       2.073   5.387  20.120  0.00  0.00    +0.000 C 
BRANCH  20  22
ATOM     22  C   UNL     1       3.068   5.750  17.830  0.00  0.00    +0.000 C 
BRANCH  22  23
ATOM     23  C   UNL     1       4.479   5.902  17.367  0.00  0.00    +0.000 A 
ATOM     24  N   UNL     1       4.911   6.721  16.427  0.00  0.00    +0.000 NA
ATOM     25  N   UNL     1       6.273   6.563  16.309  0.00  0.00    +0.000 NA
ATOM     26  C   UNL     1       6.643   5.657  17.184  0.00  0.00    +0.000 A 
ATOM     27  N   UNL     1       5.555   5.216  17.869  0.00  0.00    +0.000 N 
ATOM     28  C   UNL     1       5.557   4.238  18.923  0.00  0.00    +0.000 C 
ENDBRANCH  22  23
ENDBRANCH  20  22
ENDBRANCH   5  20
TORSDOF 6
ENDMDL
MODEL 6
REMARK VINA RESULT:      -7.8      1.374      1.941
REMARK  Name = 
REMARK  9 active torsions:
REMARK  status: ('A' for Active; 'I' for Inactive)
REMARK    1  A    between atoms: C_1  and  C_2
REMARK    2  A    between atoms: C_2  and  C_3
REMARK    3  A    between atoms: C_6  and  C_7
REMARK    4  A    between atoms: N_10  and  C_11
REMARK    5  A    between atoms: C_15  and  C_16
REMARK    6  A    between atoms: C_16  and  C_17
REMARK    7  A    between atoms: C_16  and  C_18
REMARK    8  A    between atoms: C_18  and  C_19
REMARK    9  A    between atoms: N_23  and  C_24
REMARK                            x       y       z     vdW  Elec       q    Type
REMARK                         _______ _______ _______ _____ _____    ______ ____
ROOT
ATOM      1  C   UNL     1       1.094   9.520  20.351  0.00  0.00    +0.000 A 
ATOM      2  C   UNL     1       1.090   9.973  19.027  0.00  0.00    +0.000 A 
ATOM      3  C   UNL     1       1.623   9.203  17.984  0.00  0.00    +0.000 A 
ATOM      4  C   UNL     1       2.153   7.941  18.237  0.00  0.00    +0.000 A 
ATOM      5  C   UNL     1       2.152   7.434  19.538  0.00  0.00    +0.000 A 
ATOM      6  C   UNL     1       1.615   8.231  20.568  0.00  0.00    +0.000 A 
ENDROOT
BRANCH   1  10
ATOM      7  C   UNL     1      -1.233  11.242  22.389  0.00  0.00    +0.000 C 
ATOM      8  N   UNL     1      -0.838  10.425  23.326  0.00  0.00    +0.000 NA
ATOM      9  C   UNL     1       0.352   9.761  22.751  0.00  0.00    +0.000 C 
ATOM     10  N   UNL     1       0.607  10.263  21.411  0.00  0.00    +0.000 N 
ATOM     11  C   UNL     1      -0.374  11.303  21.144  0.00  0.00    +0.000 C 
BRANCH   7  15
ATOM     12  C   UNL     1      -4.752  13.689  22.678  0.00  0.00    +0.000 A 
ATOM     13  C   UNL     1      -4.059  13.570  21.468  0.00  0.00    +0.000 A 
ATOM     14  C   UNL     1      -2.916  12.768  21.384  0.00  0.00    +0.000 A 
ATOM     15  C   UNL     1      -2.457  12.071  22.506  0.00  0.00    +0.000 A 
ATOM     16  C   UNL     1      -3.149  12.185  23.716  0.00  0.00    +0.000 A 
ATOM     17  C   UNL     1      -4.291  12.987  23.799  0.00  0.00    +0.000 A 
BRANCH  12  19
ATOM     18  C   UNL     1      -6.978  14.244  21.656  0.00  0.00    +0.000 C 
ATOM     19  C   UNL     1      -5.991  14.544  22.774  0.00  0.00    +0.000 C 
ENDBRANCH  12  19
ENDBRANCH   7  15
ENDBRANCH   1  10
BRANCH   5  20
ATOM     20  C   UNL     1       2.727   6.067  19.882  0.00  0.00    +0.000 C 
ATOM     21  C   UNL     1       1.763   5.278  20.778  0.00  0.00    +0.000 C 
BRANCH  20  22
ATOM     22  C   UNL     1       3.087   5.242  18.631  0.00  0.00    +0.000 C 
BRANCH  22  23
ATOM     23  C   UNL     1       3.643   3.897  18.968  0.00  0.00    +0.000 A 
ATOM     24  N   UNL     1       4.821   3.650  19.508  0.00  0.00    +0.000 NA
ATOM     25  N   UNL     1       4.947   2.289  19.665  0.00  0.00    +0.000 NA
ATOM     26  C   UNL     1       3.841   1.736  19.225  0.00  0.00    +0.000 A 
ATOM     27  N   UNL     1       2.996   2.704  18.780  0.00  0.00    +0.000 N 
ATOM     28  C   UNL     1       1.679   2.495  18.240  0.00  0.00    +0.000 C 
ENDBRANCH  22  23
ENDBRANCH  20  22
ENDBRANCH   5  20
TORSDOF 6
ENDMDL
MODEL 7
REMARK VINA RESULT:      -7.8      1.421      1.727
REMARK  Name = 
REMARK  9 active torsions:
REMARK  status: ('A' for Active; 'I' for Inactive)
REMARK    1  A    between atoms: C_1  and  C_2
REMARK    2  A    between atoms: C_2  and  C_3
REMARK    3  A    between atoms: C_6  and  C_7
REMARK    4  A    between atoms: N_10  and  C_11
REMARK    5  A    between atoms: C_15  and  C_16
REMARK    6  A    between atoms: C_16  and  C_17
REMARK    7  A    between atoms: C_16  and  C_18
REMARK    8  A    between atoms: C_18  and  C_19
REMARK    9  A    between atoms: N_23  and  C_24
REMARK                            x       y       z     vdW  Elec       q    Type
REMARK                         _______ _______ _______ _____ _____    ______ ____
ROOT
ATOM      1  C   UNL     1       1.117   9.576  20.385  0.00  0.00    +0.000 A 
ATOM      2  C   UNL     1       1.047  10.193  19.132  0.00  0.00    +0.000 A 
ATOM      3  C   UNL     1       1.477   9.545  17.966  0.00  0.00    +0.000 A 
ATOM      4  C   UNL     1       1.966   8.243  18.022  0.00  0.00    +0.000 A 
ATOM      5  C   UNL     1       2.027   7.574  19.246  0.00  0.00    +0.000 A 
ATOM      6  C   UNL     1       1.594   8.252  20.403  0.00  0.00    +0.000 A 
ENDROOT
BRANCH   1  10
ATOM      7  C   UNL     1      -0.870  11.442  22.644  0.00  0.00    +0.000 C 
ATOM      8  N   UNL     1      -0.820  10.372  23.387  0.00  0.00    +0.000 NA
ATOM      9  C   UNL     1       0.202   9.524  22.737  0.00  0.00    +0.000 C 
ATOM     10  N   UNL     1       0.734  10.194  21.561  0.00  0.00    +0.000 N 
ATOM     11  C   UNL     1       0.107  11.505  21.490  0.00  0.00    +0.000 C 
BRANCH   7  15
ATOM     12  C   UNL     1      -3.685  14.625  23.280  0.00  0.00    +0.000 A 
ATOM     13  C   UNL     1      -4.077  13.434  22.657  0.00  0.00    +0.000 A 
ATOM     14  C   UNL     1      -3.154  12.403  22.457  0.00  0.00    +0.000 A 
ATOM     15  C   UNL     1      -1.830  12.547  22.885  0.00  0.00    +0.000 A 
ATOM     16  C   UNL     1      -1.435  13.734  23.511  0.00  0.00    +0.000 A 
ATOM     17  C   UNL     1      -2.359  14.764  23.709  0.00  0.00    +0.000 A 
BRANCH  12  19
ATOM     18  C   UNL     1      -6.067  15.205  23.822  0.00  0.00    +0.000 C 
ATOM     19  C   UNL     1      -4.678  15.737  23.508  0.00  0.00    +0.000 C 
ENDBRANCH  12  19
ENDBRANCH   7  15
ENDBRANCH   1  10
BRANCH   5  20
ATOM     20  C   UNL     1       2.562   6.155  19.376  0.00  0.00    +0.000 C 
ATOM     21  C   UNL     1       1.919   5.434  20.568  0.00  0.00    +0.000 C 
BRANCH  20  22
ATOM     22  C   UNL     1       2.373   5.328  18.089  0.00  0.00    +0.000 C 
BRANCH  22  23
ATOM     23  C   UNL     1       3.666   5.012  17.411  0.00  0.00    +0.000 A 
ATOM     24  N   UNL     1       4.473   5.874  16.823  0.00  0.00    +0.000 NA
ATOM     25  N   UNL     1       5.557   5.184  16.331  0.00  0.00    +0.000 NA
ATOM     26  C   UNL     1       5.392   3.918  16.638  0.00  0.00    +0.000 A 
ATOM     27  N   UNL     1       4.223   3.763  17.314  0.00  0.00    +0.000 N 
ATOM     28  C   UNL     1       3.703   2.527  17.833  0.00  0.00    +0.000 C 
ENDBRANCH  22  23
ENDBRANCH  20  22
ENDBRANCH   5  20
TORSDOF 6
ENDMDL
MODEL 8
REMARK VINA RESULT:      -7.7      1.646      2.062
REMARK  Name = 
REMARK  9 active torsions:
REMARK  status: ('A' for Active; 'I' for Inactive)
REMARK    1  A    between atoms: C_1  and  C_2
REMARK    2  A    between atoms: C_2  and  C_3
REMARK    3  A    between atoms: C_6  and  C_7
REMARK    4  A    between atoms: N_10  and  C_11
REMARK    5  A    between atoms: C_15  and  C_16
REMARK    6  A    between atoms: C_16  and  C_17
REMARK    7  A    between atoms: C_16  and  C_18
REMARK    8  A    between atoms: C_18  and  C_19
REMARK    9  A    between atoms: N_23  and  C_24
REMARK                            x       y       z     vdW  Elec       q    Type
REMARK                         _______ _______ _______ _____ _____    ______ ____
ROOT
ATOM      1  C   UNL     1       1.146   9.660  20.210  0.00  0.00    +0.000 A 
ATOM      2  C   UNL     1       1.280  10.303  18.975  0.00  0.00    +0.000 A 
ATOM      3  C   UNL     1       1.799   9.643  17.853  0.00  0.00    +0.000 A 
ATOM      4  C   UNL     1       2.174   8.305  17.931  0.00  0.00    +0.000 A 
ATOM      5  C   UNL     1       2.031   7.612  19.134  0.00  0.00    +0.000 A 
ATOM      6  C   UNL     1       1.513   8.302  20.248  0.00  0.00    +0.000 A 
ENDROOT
BRANCH   1  10
ATOM      7  C   UNL     1      -1.146  11.218  22.412  0.00  0.00    +0.000 C 
ATOM      8  N   UNL     1      -0.807  10.273  23.244  0.00  0.00    +0.000 NA
ATOM      9  C   UNL     1       0.365   9.633  22.609  0.00  0.00    +0.000 C 
ATOM     10  N   UNL     1       0.670  10.286  21.347  0.00  0.00    +0.000 N 
ATOM     11  C   UNL     1      -0.260  11.395  21.197  0.00  0.00    +0.000 C 
BRANCH   7  15
ATOM     12  C   UNL     1      -4.621  13.665  23.043  0.00  0.00    +0.000 A 
ATOM     13  C   UNL     1      -4.089  12.892  24.081  0.00  0.00    +0.000 A 
ATOM     14  C   UNL     1      -2.956  12.102  23.867  0.00  0.00    +0.000 A 
ATOM     15  C   UNL     1      -2.336  12.080  22.613  0.00  0.00    +0.000 A 
ATOM     16  C   UNL     1      -2.863  12.853  21.573  0.00  0.00    +0.000 A 
ATOM     17  C   UNL     1      -3.997  13.642  21.789  0.00  0.00    +0.000 A 
BRANCH  12  19
ATOM     18  C   UNL     1      -7.088  13.924  22.653  0.00  0.00    +0.000 C 
ATOM     19  C   UNL     1      -5.836  14.528  23.270  0.00  0.00    +0.000 C 
ENDBRANCH  12  19
ENDBRANCH   7  15
ENDBRANCH   1  10
BRANCH   5  20
ATOM     20  C   UNL     1       2.433   6.152  19.289  0.00  0.00    +0.000 C 
ATOM     21  C   UNL     1       1.889   5.570  20.600  0.00  0.00    +0.000 C 
BRANCH  20  22
ATOM     22  C   UNL     1       1.988   5.283  18.096  0.00  0.00    +0.000 C 
BRANCH  22  23
ATOM     23  C   UNL     1       2.709   3.976  18.033  0.00  0.00    +0.000 A 
ATOM     24  N   UNL     1       3.971   3.794  17.697  0.00  0.00    +0.000 NA
ATOM     25  N   UNL     1       4.248   2.448  17.774  0.00  0.00    +0.000 NA
ATOM     26  C   UNL     1       3.152   1.841  18.163  0.00  0.00    +0.000 A 
ATOM     27  N   UNL     1       2.163   2.757  18.338  0.00  0.00    +0.000 N 
ATOM     28  C   UNL     1       0.821   2.481  18.776  0.00  0.00    +0.000 C 
ENDBRANCH  22  23
ENDBRANCH  20  22
ENDBRANCH   5  20
TORSDOF 6
ENDMDL
MODEL 9
REMARK VINA RESULT:      -7.7      3.006      4.014
REMARK  Name = 
REMARK  9 active torsions:
REMARK  status: ('A' for Active; 'I' for Inactive)
REMARK    1  A    between atoms: C_1  and  C_2
REMARK    2  A    between atoms: C_2  and  C_3
REMARK    3  A    between atoms: C_6  and  C_7
REMARK    4  A    between atoms: N_10  and  C_11
REMARK    5  A    between atoms: C_15  and  C_16
REMARK    6  A    between atoms: C_16  and  C_17
REMARK    7  A    between atoms: C_16  and  C_18
REMARK    8  A    between atoms: C_18  and  C_19
REMARK    9  A    between atoms: N_23  and  C_24
REMARK                            x       y       z     vdW  Elec       q    Type
REMARK                         _______ _______ _______ _____ _____    ______ ____
ROOT
ATOM      1  C   UNL     1       1.137   9.133  19.012  0.00  0.00    +0.000 A 
ATOM      2  C   UNL     1       1.126   8.799  20.371  0.00  0.00    +0.000 A 
ATOM      3  C   UNL     1       1.781   7.658  20.854  0.00  0.00    +0.000 A 
ATOM      4  C   UNL     1       2.491   6.832  19.988  0.00  0.00    +0.000 A 
ATOM      5  C   UNL     1       2.556   7.140  18.628  0.00  0.00    +0.000 A 
ATOM      6  C   UNL     1       1.883   8.290  18.168  0.00  0.00    +0.000 A 
ENDROOT
BRANCH   1  10
ATOM      7  C   UNL     1      -1.486  11.432  18.408  0.00  0.00    +0.000 C 
ATOM      8  N   UNL     1      -0.648  12.325  18.857  0.00  0.00    +0.000 NA
ATOM      9  C   UNL     1       0.642  11.607  18.934  0.00  0.00    +0.000 C 
ATOM     10  N   UNL     1       0.476  10.231  18.493  0.00  0.00    +0.000 N 
ATOM     11  C   UNL     1      -0.905  10.078  18.064  0.00  0.00    +0.000 C 
BRANCH   7  15
ATOM     12  C   UNL     1      -5.697  12.185  18.007  0.00  0.00    +0.000 A 
ATOM     13  C   UNL     1      -5.038  12.423  19.219  0.00  0.00    +0.000 A 
ATOM     14  C   UNL     1      -3.666  12.178  19.338  0.00  0.00    +0.000 A 
ATOM     15  C   UNL     1      -2.936  11.699  18.245  0.00  0.00    +0.000 A 
ATOM     16  C   UNL     1      -3.591  11.462  17.032  0.00  0.00    +0.000 A 
ATOM     17  C   UNL     1      -4.962  11.708  16.915  0.00  0.00    +0.000 A 
BRANCH  12  19
ATOM     18  C   UNL     1      -7.448  13.735  17.092  0.00  0.00    +0.000 C 
ATOM     19  C   UNL     1      -7.174  12.457  17.868  0.00  0.00    +0.000 C 
ENDBRANCH  12  19
ENDBRANCH   7  15
ENDBRANCH   1  10
BRANCH   5  20
ATOM     20  C   UNL     1       3.305   6.271  17.628  0.00  0.00    +0.000 C 
ATOM     21  C   UNL     1       4.447   7.056  16.968  0.00  0.00    +0.000 C 
BRANCH  20  22
ATOM     22  C   UNL     1       3.847   4.972  18.257  0.00  0.00    +0.000 C 
BRANCH  22  23
ATOM     23  C   UNL     1       2.802   3.911  18.378  0.00  0.00    +0.000 A 
ATOM     24  N   UNL     1       1.661   3.857  17.718  0.00  0.00    +0.000 NA
ATOM     25  N   UNL     1       0.991   2.720  18.108  0.00  0.00    +0.000 NA
ATOM     26  C   UNL     1       1.741   2.102  18.990  0.00  0.00    +0.000 A 
ATOM     27  N   UNL     1       2.884   2.810  19.189  0.00  0.00    +0.000 N 
ATOM     28  C   UNL     1       3.962   2.446  20.068  0.00  0.00    +0.000 C 
ENDBRANCH  22  23
ENDBRANCH  20  22
ENDBRANCH   5  20
TORSDOF 6
ENDMDL
