MODEL 1
REMARK VINA RESULT:      -9.8      0.000      0.000
REMARK  Name = 
REMARK  3 active torsions:
REMARK  status: ('A' for Active; 'I' for Inactive)
REMARK    1  A    between atoms: C_2  and  C_20
REMARK    2  A    between atoms: N_3  and  C_4
REMARK    3  A    between atoms: C_8  and  C_9
REMARK                            x       y       z     vdW  Elec       q    Type
REMARK                         _______ _______ _______ _____ _____    ______ ____
ROOT
ATOM      1  C   UNL     1       6.464   6.467  16.655  0.00  0.00    +0.000 A 
ATOM      2  C   UNL     1       6.232   5.990  15.356  0.00  0.00    +0.000 A 
ATOM      3  C   UNL     1       5.541   4.793  15.147  0.00  0.00    +0.000 A 
ATOM      4  C   UNL     1       5.064   4.071  16.237  0.00  0.00    +0.000 A 
ATOM      5  C   UNL     1       5.308   4.523  17.550  0.00  0.00    +0.000 A 
ATOM      6  C   UNL     1       6.036   5.694  17.735  0.00  0.00    +0.000 A 
ENDROOT
BRANCH   5   7
ATOM      7  C   UNL     1       4.806   3.728  18.674  0.00  0.00    +0.000 A 
ATOM      8  N   UNL     1       5.554   3.045  19.517  0.00  0.00    +0.000 NA
ATOM      9  N   UNL     1       4.750   2.532  20.498  0.00  0.00    +0.000 NA
ATOM     10  C   UNL     1       3.510   2.875  20.238  0.00  0.00    +0.000 A 
ATOM     11  N   UNL     1       3.485   3.560  19.040  0.00  0.00    +0.000 N 
ATOM     12  C   UNL     1       2.317   3.999  18.306  0.00  0.00    +0.000 C 
ATOM     13  C   UNL     1       1.101   3.087  18.418  0.00  0.00    +0.000 C 
ATOM     14  C   UNL     1       0.318   3.272  19.716  0.00  0.00    +0.000 C 
ATOM     15  C   UNL     1       1.165   3.522  20.964  0.00  0.00    +0.000 C 
ATOM     16  C   UNL     1       2.336   2.554  21.101  0.00  0.00    +0.000 C 
ENDBRANCH   5   7
BRANCH   1  19
ATOM     17  O   UNL     1       8.396   7.019  18.754  0.00  0.00    +0.000 OA
ATOM     18  C   UNL     1       7.975   7.898  17.986  0.00  0.00    +0.000 C 
ATOM     19  N   UNL     1       7.130   7.683  16.929  0.00  0.00    +0.000 N 
ATOM     20  H   UNL     1       7.004   8.441  16.259  0.00  0.00    +0.000 HD
BRANCH  18  21
ATOM     21  C   UNL     1       8.405   9.284  18.271  0.00  0.00    +0.000 A 
ATOM     22  C   UNL     1       7.802  10.267  17.475  0.00  0.00    +0.000 A 
ATOM     23  C   UNL     1       8.249  11.575  17.532  0.00  0.00    +0.000 A 
ATOM     24  C   UNL     1       9.196  11.950  18.483  0.00  0.00    +0.000 A 
ATOM     25  C   UNL     1       9.653  13.266  18.515  0.00  0.00    +0.000 A 
ATOM     26  C   UNL     1      10.148  13.789  19.699  0.00  0.00    +0.000 A 
ATOM     27  C   UNL     1      10.445  12.931  20.751  0.00  0.00    +0.000 A 
ATOM     28  C   UNL     1      10.300  11.547  20.585  0.00  0.00    +0.000 A 
ATOM     29  C   UNL     1       9.627  11.026  19.461  0.00  0.00    +0.000 A 
ATOM     30  C   UNL     1       9.311   9.659  19.277  0.00  0.00    +0.000 A 
ENDBRANCH  18  21
ENDBRANCH   1  19
TORSDOF 3
ENDMDL
MODEL 2
REMARK VINA RESULT:      -9.8      5.219      7.523
REMARK  Name = 
REMARK  3 active torsions:
REMARK  status: ('A' for Active; 'I' for Inactive)
REMARK    1  A    between atoms: C_2  and  C_20
REMARK    2  A    between atoms: N_3  and  C_4
REMARK    3  A    between atoms: C_8  and  C_9
REMARK                            x       y       z     vdW  Elec       q    Type
REMARK                         _______ _______ _______ _____ _____    ______ ____
ROOT
ATOM      1  C   UNL     1       1.785   5.611  20.586  0.00  0.00    +0.000 A 
ATOM      2  C   UNL     1       1.241   4.326  20.740  0.00  0.00    +0.000 A 
ATOM      3  C   UNL     1       1.964   3.193  20.356  0.00  0.00    +0.000 A 
ATOM      4  C   UNL     1       3.245   3.337  19.830  0.00  0.00    +0.000 A 
ATOM      5  C   UNL     1       3.798   4.620  19.647  0.00  0.00    +0.000 A 
ATOM      6  C   UNL     1       3.042   5.735  19.995  0.00  0.00    +0.000 A 
ENDROOT
BRANCH   5   7
ATOM      7  C   UNL     1       5.141   4.733  19.073  0.00  0.00    +0.000 A 
ATOM      8  N   UNL     1       6.267   4.715  19.758  0.00  0.00    +0.000 NA
ATOM      9  N   UNL     1       7.314   4.722  18.879  0.00  0.00    +0.000 NA
ATOM     10  C   UNL     1       6.831   4.776  17.660  0.00  0.00    +0.000 A 
ATOM     11  N   UNL     1       5.457   4.876  17.736  0.00  0.00    +0.000 N 
ATOM     12  C   UNL     1       4.533   5.100  16.644  0.00  0.00    +0.000 C 
ATOM     13  C   UNL     1       5.064   5.977  15.515  0.00  0.00    +0.000 C 
ATOM     14  C   UNL     1       5.982   5.233  14.547  0.00  0.00    +0.000 C 
ATOM     15  C   UNL     1       6.922   4.212  15.187  0.00  0.00    +0.000 C 
ATOM     16  C   UNL     1       7.651   4.748  16.413  0.00  0.00    +0.000 C 
ENDBRANCH   5   7
BRANCH   1  19
ATOM     17  O   UNL     1       1.989   8.264  19.420  0.00  0.00    +0.000 OA
ATOM     18  C   UNL     1       1.316   8.031  20.435  0.00  0.00    +0.000 C 
ATOM     19  N   UNL     1       1.115   6.790  20.981  0.00  0.00    +0.000 N 
ATOM     20  H   UNL     1       0.394   6.696  21.697  0.00  0.00    +0.000 HD
BRANCH  18  21
ATOM     21  C   UNL     1       0.716   9.202  21.112  0.00  0.00    +0.000 A 
ATOM     22  C   UNL     1       0.139   8.933  22.361  0.00  0.00    +0.000 A 
ATOM     23  C   UNL     1      -0.599   9.908  23.007  0.00  0.00    +0.000 A 
ATOM     24  C   UNL     1      -0.649  11.203  22.494  0.00  0.00    +0.000 A 
ATOM     25  C   UNL     1      -1.413  12.170  23.144  0.00  0.00    +0.000 A 
ATOM     26  C   UNL     1      -1.086  13.509  23.002  0.00  0.00    +0.000 A 
ATOM     27  C   UNL     1      -0.195  13.890  22.005  0.00  0.00    +0.000 A 
ATOM     28  C   UNL     1       0.315  12.931  21.121  0.00  0.00    +0.000 A 
ATOM     29  C   UNL     1       0.136  11.555  21.374  0.00  0.00    +0.000 A 
ATOM     30  C   UNL     1       0.730  10.516  20.618  0.00  0.00    +0.000 A 
ENDBRANCH  18  21
ENDBRANCH   1  19
TORSDOF 3
ENDMDL
MODEL 3
REMARK VINA RESULT:      -9.7      7.464     10.143
REMARK  Name = 
REMARK  3 active torsions:
REMARK  status: ('A' for Active; 'I' for Inactive)
REMARK    1  A    between atoms: C_2  and  C_20
REMARK    2  A    between atoms: N_3  and  C_4
REMARK    3  A    between atoms: C_8  and  C_9
REMARK                            x       y       z     vdW  Elec       q    Type
REMARK                         _______ _______ _______ _____ _____    ______ ____
ROOT
ATOM      1  C   UNL     1       0.633  10.419  18.893  0.00  0.00    +0.000 A 
ATOM      2  C   UNL     1       1.246  11.671  19.054  0.00  0.00    +0.000 A 
ATOM      3  C   UNL     1       0.547  12.849  18.774  0.00  0.00    +0.000 A 
ATOM      4  C   UNL     1      -0.775  12.784  18.346  0.00  0.00    +0.000 A 
ATOM      5  C   UNL     1      -1.399  11.534  18.157  0.00  0.00    +0.000 A 
ATOM      6  C   UNL     1      -0.670  10.374  18.398  0.00  0.00    +0.000 A 
ENDROOT
BRANCH   5   7
ATOM      7  C   UNL     1      -2.787  11.503  17.688  0.00  0.00    +0.000 A 
ATOM      8  N   UNL     1      -3.170  11.214  16.461  0.00  0.00    +0.000 NA
ATOM      9  N   UNL     1      -4.536  11.166  16.428  0.00  0.00    +0.000 NA
ATOM     10  C   UNL     1      -4.989  11.456  17.626  0.00  0.00    +0.000 A 
ATOM     11  N   UNL     1      -3.917  11.766  18.438  0.00  0.00    +0.000 N 
ATOM     12  C   UNL     1      -3.962  12.277  19.792  0.00  0.00    +0.000 C 
ATOM     13  C   UNL     1      -5.139  13.195  20.099  0.00  0.00    +0.000 C 
ATOM     14  C   UNL     1      -6.442  12.446  20.370  0.00  0.00    +0.000 C 
ATOM     15  C   UNL     1      -6.682  11.211  19.502  0.00  0.00    +0.000 C 
ATOM     16  C   UNL     1      -6.429  11.458  18.018  0.00  0.00    +0.000 C 
ENDBRANCH   5   7
BRANCH   1  19
ATOM     17  O   UNL     1       2.467   8.913  17.215  0.00  0.00    +0.000 OA
ATOM     18  C   UNL     1       2.072   8.496  18.316  0.00  0.00    +0.000 C 
ATOM     19  N   UNL     1       1.277   9.195  19.185  0.00  0.00    +0.000 N 
ATOM     20  H   UNL     1       1.175   8.833  20.133  0.00  0.00    +0.000 HD
BRANCH  18  21
ATOM     21  C   UNL     1       2.479   7.123  18.685  0.00  0.00    +0.000 A 
ATOM     22  C   UNL     1       3.566   6.612  17.964  0.00  0.00    +0.000 A 
ATOM     23  C   UNL     1       3.926   5.284  18.101  0.00  0.00    +0.000 A 
ATOM     24  C   UNL     1       3.308   4.487  19.062  0.00  0.00    +0.000 A 
ATOM     25  C   UNL     1       3.665   3.145  19.175  0.00  0.00    +0.000 A 
ATOM     26  C   UNL     1       3.493   2.491  20.384  0.00  0.00    +0.000 A 
ATOM     27  C   UNL     1       2.716   3.082  21.374  0.00  0.00    +0.000 A 
ATOM     28  C   UNL     1       2.069   4.298  21.119  0.00  0.00    +0.000 A 
ATOM     29  C   UNL     1       2.388   5.054  19.972  0.00  0.00    +0.000 A 
ATOM     30  C   UNL     1       1.892   6.352  19.702  0.00  0.00    +0.000 A 
ENDBRANCH  18  21
ENDBRANCH   1  19
TORSDOF 3
ENDMDL
MODEL 4
REMARK VINA RESULT:      -9.6      7.476     10.219
REMARK  Name = 
REMARK  3 active torsions:
REMARK  status: ('A' for Active; 'I' for Inactive)
REMARK    1  A    between atoms: C_2  and  C_20
REMARK    2  A    between atoms: N_3  and  C_4
REMARK    3  A    between atoms: C_8  and  C_9
REMARK                            x       y       z     vdW  Elec       q    Type
REMARK                         _______ _______ _______ _____ _____    ______ ____
ROOT
ATOM      1  C   UNL     1       0.585  10.280  18.876  0.00  0.00    +0.000 A 
ATOM      2  C   UNL     1       1.230  11.511  19.069  0.00  0.00    +0.000 A 
ATOM      3  C   UNL     1       0.567  12.714  18.811  0.00  0.00    +0.000 A 
ATOM      4  C   UNL     1      -0.753  12.694  18.371  0.00  0.00    +0.000 A 
ATOM      5  C   UNL     1      -1.410  11.467  18.150  0.00  0.00    +0.000 A 
ATOM      6  C   UNL     1      -0.715  10.282  18.371  0.00  0.00    +0.000 A 
ENDROOT
BRANCH   5   7
ATOM      7  C   UNL     1      -2.794  11.484  17.669  0.00  0.00    +0.000 A 
ATOM      8  N   UNL     1      -3.177  11.215  16.437  0.00  0.00    +0.000 NA
ATOM      9  N   UNL     1      -4.543  11.212  16.394  0.00  0.00    +0.000 NA
ATOM     10  C   UNL     1      -4.996  11.511  17.590  0.00  0.00    +0.000 A 
ATOM     11  N   UNL     1      -3.921  11.780  18.411  0.00  0.00    +0.000 N 
ATOM     12  C   UNL     1      -3.960  12.285  19.768  0.00  0.00    +0.000 C 
ATOM     13  C   UNL     1      -5.108  13.241  20.071  0.00  0.00    +0.000 C 
ATOM     14  C   UNL     1      -6.438  12.533  20.328  0.00  0.00    +0.000 C 
ATOM     15  C   UNL     1      -6.711  11.312  19.450  0.00  0.00    +0.000 C 
ATOM     16  C   UNL     1      -6.438  11.558  17.970  0.00  0.00    +0.000 C 
ENDBRANCH   5   7
BRANCH   1  19
ATOM     17  O   UNL     1       2.526   8.844  17.259  0.00  0.00    +0.000 OA
ATOM     18  C   UNL     1       2.045   8.373  18.301  0.00  0.00    +0.000 C 
ATOM     19  N   UNL     1       1.193   9.033  19.146  0.00  0.00    +0.000 N 
ATOM     20  H   UNL     1       1.015   8.620  20.061  0.00  0.00    +0.000 HD
BRANCH  18  21
ATOM     21  C   UNL     1       2.409   6.975  18.622  0.00  0.00    +0.000 A 
ATOM     22  C   UNL     1       2.167   6.589  19.947  0.00  0.00    +0.000 A 
ATOM     23  C   UNL     1       2.624   5.367  20.406  0.00  0.00    +0.000 A 
ATOM     24  C   UNL     1       3.191   4.453  19.519  0.00  0.00    +0.000 A 
ATOM     25  C   UNL     1       3.665   3.234  20.000  0.00  0.00    +0.000 A 
ATOM     26  C   UNL     1       3.734   2.144  19.147  0.00  0.00    +0.000 A 
ATOM     27  C   UNL     1       3.605   2.341  17.777  0.00  0.00    +0.000 A 
ATOM     28  C   UNL     1       3.466   3.640  17.270  0.00  0.00    +0.000 A 
ATOM     29  C   UNL     1       3.209   4.725  18.134  0.00  0.00    +0.000 A 
ATOM     30  C   UNL     1       2.918   6.041  17.704  0.00  0.00    +0.000 A 
ENDBRANCH  18  21
ENDBRANCH   1  19
TORSDOF 3
ENDMDL
MODEL 5
REMARK VINA RESULT:      -9.5      1.362      1.819
REMARK  Name = 
REMARK  3 active torsions:
REMARK  status: ('A' for Active; 'I' for Inactive)
REMARK    1  A    between atoms: C_2  and  C_20
REMARK    2  A    between atoms: N_3  and  C_4
REMARK    3  A    between atoms: C_8  and  C_9
REMARK                            x       y       z     vdW  Elec       q    Type
REMARK                         _______ _______ _______ _____ _____    ______ ____
ROOT
ATOM      1  C   UNL     1       6.748   6.005  16.347  0.00  0.00    +0.000 A 
ATOM      2  C   UNL     1       7.284   5.135  15.386  0.00  0.00    +0.000 A 
ATOM      3  C   UNL     1       6.617   3.957  15.036  0.00  0.00    +0.000 A 
ATOM      4  C   UNL     1       5.399   3.649  15.636  0.00  0.00    +0.000 A 
ATOM      5  C   UNL     1       4.857   4.499  16.620  0.00  0.00    +0.000 A 
ATOM      6  C   UNL     1       5.561   5.643  16.984  0.00  0.00    +0.000 A 
ENDROOT
BRANCH   5   7
ATOM      7  C   UNL     1       3.583   4.134  17.244  0.00  0.00    +0.000 A 
ATOM      8  N   UNL     1       2.790   3.160  16.844  0.00  0.00    +0.000 NA
ATOM      9  N   UNL     1       1.760   3.040  17.735  0.00  0.00    +0.000 NA
ATOM     10  C   UNL     1       1.905   3.959  18.661  0.00  0.00    +0.000 A 
ATOM     11  N   UNL     1       2.999   4.736  18.341  0.00  0.00    +0.000 N 
ATOM     12  C   UNL     1       3.440   5.945  19.006  0.00  0.00    +0.000 C 
ATOM     13  C   UNL     1       2.326   6.813  19.579  0.00  0.00    +0.000 C 
ATOM     14  C   UNL     1       1.787   6.309  20.916  0.00  0.00    +0.000 C 
ATOM     15  C   UNL     1       1.676   4.790  21.049  0.00  0.00    +0.000 C 
ATOM     16  C   UNL     1       1.013   4.126  19.846  0.00  0.00    +0.000 C 
ENDBRANCH   5   7
BRANCH   1  19
ATOM     17  O   UNL     1       8.109   6.635  18.836  0.00  0.00    +0.000 OA
ATOM     18  C   UNL     1       7.920   7.478  17.946  0.00  0.00    +0.000 C 
ATOM     19  N   UNL     1       7.361   7.221  16.722  0.00  0.00    +0.000 N 
ATOM     20  H   UNL     1       7.430   7.945  16.006  0.00  0.00    +0.000 HD
BRANCH  18  21
ATOM     21  C   UNL     1       8.308   8.870  18.263  0.00  0.00    +0.000 A 
ATOM     22  C   UNL     1       7.748   9.846  17.428  0.00  0.00    +0.000 A 
ATOM     23  C   UNL     1       8.170  11.160  17.519  0.00  0.00    +0.000 A 
ATOM     24  C   UNL     1       9.040  11.547  18.537  0.00  0.00    +0.000 A 
ATOM     25  C   UNL     1       9.473  12.870  18.604  0.00  0.00    +0.000 A 
ATOM     26  C   UNL     1       9.872  13.397  19.821  0.00  0.00    +0.000 A 
ATOM     27  C   UNL     1      10.107  12.541  20.890  0.00  0.00    +0.000 A 
ATOM     28  C   UNL     1       9.995  11.156  20.712  0.00  0.00    +0.000 A 
ATOM     29  C   UNL     1       9.413  10.628  19.541  0.00  0.00    +0.000 A 
ATOM     30  C   UNL     1       9.132   9.256  19.333  0.00  0.00    +0.000 A 
ENDBRANCH  18  21
ENDBRANCH   1  19
TORSDOF 3
ENDMDL
MODEL 6
REMARK VINA RESULT:      -9.4      5.367      7.464
REMARK  Name = 
REMARK  3 active torsions:
REMARK  status: ('A' for Active; 'I' for Inactive)
REMARK    1  A    between atoms: C_2  and  C_20
REMARK    2  A    between atoms: N_3  and  C_4
REMARK    3  A    between atoms: C_8  and  C_9
REMARK                            x       y       z     vdW  Elec       q    Type
REMARK                         _______ _______ _______ _____ _____    ______ ____
ROOT
ATOM      1  C   UNL     1       1.862   5.986  20.491  0.00  0.00    +0.000 A 
ATOM      2  C   UNL     1       1.287   4.738  20.775  0.00  0.00    +0.000 A 
ATOM      3  C   UNL     1       1.978   3.554  20.500  0.00  0.00    +0.000 A 
ATOM      4  C   UNL     1       3.256   3.611  19.953  0.00  0.00    +0.000 A 
ATOM      5  C   UNL     1       3.840   4.855  19.640  0.00  0.00    +0.000 A 
ATOM      6  C   UNL     1       3.116   6.018  19.881  0.00  0.00    +0.000 A 
ENDROOT
BRANCH   5   7
ATOM      7  C   UNL     1       5.180   4.876  19.048  0.00  0.00    +0.000 A 
ATOM      8  N   UNL     1       6.312   4.824  19.722  0.00  0.00    +0.000 NA
ATOM      9  N   UNL     1       7.348   4.744  18.833  0.00  0.00    +0.000 NA
ATOM     10  C   UNL     1       6.852   4.778  17.617  0.00  0.00    +0.000 A 
ATOM     11  N   UNL     1       5.487   4.952  17.704  0.00  0.00    +0.000 N 
ATOM     12  C   UNL     1       4.562   5.184  16.613  0.00  0.00    +0.000 C 
ATOM     13  C   UNL     1       5.123   5.989  15.447  0.00  0.00    +0.000 C 
ATOM     14  C   UNL     1       5.990   5.163  14.498  0.00  0.00    +0.000 C 
ATOM     15  C   UNL     1       6.883   4.118  15.166  0.00  0.00    +0.000 C 
ATOM     16  C   UNL     1       7.655   4.660  16.364  0.00  0.00    +0.000 C 
ENDBRANCH   5   7
BRANCH   1  19
ATOM     17  O   UNL     1       1.850   8.406  18.883  0.00  0.00    +0.000 OA
ATOM     18  C   UNL     1       1.324   8.347  20.005  0.00  0.00    +0.000 C 
ATOM     19  N   UNL     1       1.226   7.216  20.772  0.00  0.00    +0.000 N 
ATOM     20  H   UNL     1       0.611   7.244  21.585  0.00  0.00    +0.000 HD
BRANCH  18  21
ATOM     21  C   UNL     1       0.796   9.616  20.554  0.00  0.00    +0.000 A 
ATOM     22  C   UNL     1       1.088  10.756  19.795  0.00  0.00    +0.000 A 
ATOM     23  C   UNL     1       0.797  12.013  20.293  0.00  0.00    +0.000 A 
ATOM     24  C   UNL     1       0.079  12.146  21.480  0.00  0.00    +0.000 A 
ATOM     25  C   UNL     1      -0.190  13.418  21.981  0.00  0.00    +0.000 A 
ATOM     26  C   UNL     1      -1.288  13.611  22.804  0.00  0.00    +0.000 A 
ATOM     27  C   UNL     1      -1.935  12.507  23.345  0.00  0.00    +0.000 A 
ATOM     28  C   UNL     1      -1.439  11.219  23.104  0.00  0.00    +0.000 A 
ATOM     29  C   UNL     1      -0.445  11.005  22.126  0.00  0.00    +0.000 A 
ATOM     30  C   UNL     1       0.016   9.731  21.716  0.00  0.00    +0.000 A 
ENDBRANCH  18  21
ENDBRANCH   1  19
TORSDOF 3
ENDMDL
MODEL 7
REMARK VINA RESULT:      -9.4      1.261      1.690
REMARK  Name = 
REMARK  3 active torsions:
REMARK  status: ('A' for Active; 'I' for Inactive)
REMARK    1  A    between atoms: C_2  and  C_20
REMARK    2  A    between atoms: N_3  and  C_4
REMARK    3  A    between atoms: C_8  and  C_9
REMARK                            x       y       z     vdW  Elec       q    Type
REMARK                         _______ _______ _______ _____ _____    ______ ____
ROOT
ATOM      1  C   UNL     1       7.329   6.390  17.761  0.00  0.00    +0.000 A 
ATOM      2  C   UNL     1       7.348   6.073  16.394  0.00  0.00    +0.000 A 
ATOM      3  C   UNL     1       6.634   4.974  15.906  0.00  0.00    +0.000 A 
ATOM      4  C   UNL     1       5.883   4.194  16.780  0.00  0.00    +0.000 A 
ATOM      5  C   UNL     1       5.871   4.485  18.159  0.00  0.00    +0.000 A 
ATOM      6  C   UNL     1       6.625   5.556  18.629  0.00  0.00    +0.000 A 
ENDROOT
BRANCH   5   7
ATOM      7  C   UNL     1       5.084   3.631  19.053  0.00  0.00    +0.000 A 
ATOM      8  N   UNL     1       5.580   2.746  19.894  0.00  0.00    +0.000 NA
ATOM      9  N   UNL     1       4.557   2.231  20.641  0.00  0.00    +0.000 NA
ATOM     10  C   UNL     1       3.433   2.777  20.237  0.00  0.00    +0.000 A 
ATOM     11  N   UNL     1       3.708   3.606  19.169  0.00  0.00    +0.000 N 
ATOM     12  C   UNL     1       2.752   4.298  18.329  0.00  0.00    +0.000 C 
ATOM     13  C   UNL     1       1.437   3.561  18.101  0.00  0.00    +0.000 C 
ATOM     14  C   UNL     1       0.458   3.687  19.267  0.00  0.00    +0.000 C 
ATOM     15  C   UNL     1       1.088   3.651  20.660  0.00  0.00    +0.000 C 
ATOM     16  C   UNL     1       2.093   2.518  20.839  0.00  0.00    +0.000 C 
ENDBRANCH   5   7
BRANCH   1  19
ATOM     17  O   UNL     1       7.016   9.197  17.077  0.00  0.00    +0.000 OA
ATOM     18  C   UNL     1       7.868   8.797  17.886  0.00  0.00    +0.000 C 
ATOM     19  N   UNL     1       8.007   7.502  18.309  0.00  0.00    +0.000 N 
ATOM     20  H   UNL     1       8.611   7.326  19.112  0.00  0.00    +0.000 HD
BRANCH  18  21
ATOM     21  C   UNL     1       8.817   9.810  18.398  0.00  0.00    +0.000 A 
ATOM     22  C   UNL     1       9.011   9.793  19.785  0.00  0.00    +0.000 A 
ATOM     23  C   UNL     1       9.739  10.798  20.396  0.00  0.00    +0.000 A 
ATOM     24  C   UNL     1      10.407  11.746  19.623  0.00  0.00    +0.000 A 
ATOM     25  C   UNL     1      11.120  12.765  20.251  0.00  0.00    +0.000 A 
ATOM     26  C   UNL     1      12.177  13.369  19.589  0.00  0.00    +0.000 A 
ATOM     27  C   UNL     1      12.333  13.159  18.224  0.00  0.00    +0.000 A 
ATOM     28  C   UNL     1      11.394  12.392  17.523  0.00  0.00    +0.000 A 
ATOM     29  C   UNL     1      10.432  11.627  18.216  0.00  0.00    +0.000 A 
ATOM     30  C   UNL     1       9.537  10.718  17.604  0.00  0.00    +0.000 A 
ENDBRANCH  18  21
ENDBRANCH   1  19
TORSDOF 3
ENDMDL
MODEL 8
REMARK VINA RESULT:      -9.3      7.723     10.389
REMARK  Name = 
REMARK  3 active torsions:
REMARK  status: ('A' for Active; 'I' for Inactive)
REMARK    1  A    between atoms: C_2  and  C_20
REMARK    2  A    between atoms: N_3  and  C_4
REMARK    3  A    between atoms: C_8  and  C_9
REMARK                            x       y       z     vdW  Elec       q    Type
REMARK                         _______ _______ _______ _____ _____    ______ ____
ROOT
ATOM      1  C   UNL     1       0.294  10.182  19.391  0.00  0.00    +0.000 A 
ATOM      2  C   UNL     1       0.688  11.223  20.247  0.00  0.00    +0.000 A 
ATOM      3  C   UNL     1      -0.110  12.360  20.403  0.00  0.00    +0.000 A 
ATOM      4  C   UNL     1      -1.316  12.457  19.716  0.00  0.00    +0.000 A 
ATOM      5  C   UNL     1      -1.717  11.433  18.836  0.00  0.00    +0.000 A 
ATOM      6  C   UNL     1      -0.886  10.331  18.662  0.00  0.00    +0.000 A 
ENDROOT
BRANCH   5   7
ATOM      7  C   UNL     1      -2.985  11.578  18.116  0.00  0.00    +0.000 A 
ATOM      8  N   UNL     1      -3.149  11.405  16.819  0.00  0.00    +0.000 NA
ATOM      9  N   UNL     1      -4.481  11.505  16.530  0.00  0.00    +0.000 NA
ATOM     10  C   UNL     1      -5.128  11.769  17.642  0.00  0.00    +0.000 A 
ATOM     11  N   UNL     1      -4.209  11.913  18.660  0.00  0.00    +0.000 N 
ATOM     12  C   UNL     1      -4.467  12.344  20.019  0.00  0.00    +0.000 C 
ATOM     13  C   UNL     1      -5.590  13.363  20.173  0.00  0.00    +0.000 C 
ATOM     14  C   UNL     1      -6.985  12.742  20.137  0.00  0.00    +0.000 C 
ATOM     15  C   UNL     1      -7.167  11.594  19.144  0.00  0.00    +0.000 C 
ATOM     16  C   UNL     1      -6.610  11.901  17.758  0.00  0.00    +0.000 C 
ENDBRANCH   5   7
BRANCH   1  19
ATOM     17  O   UNL     1       2.222   9.577  17.304  0.00  0.00    +0.000 OA
ATOM     18  C   UNL     1       1.881   8.746  18.159  0.00  0.00    +0.000 C 
ATOM     19  N   UNL     1       1.043   8.997  19.213  0.00  0.00    +0.000 N 
ATOM     20  H   UNL     1       0.985   8.297  19.953  0.00  0.00    +0.000 HD
BRANCH  18  21
ATOM     21  C   UNL     1       2.407   7.373  17.992  0.00  0.00    +0.000 A 
ATOM     22  C   UNL     1       3.774   7.294  17.697  0.00  0.00    +0.000 A 
ATOM     23  C   UNL     1       4.340   6.080  17.352  0.00  0.00    +0.000 A 
ATOM     24  C   UNL     1       3.590   4.909  17.439  0.00  0.00    +0.000 A 
ATOM     25  C   UNL     1       4.166   3.696  17.068  0.00  0.00    +0.000 A 
ATOM     26  C   UNL     1       3.684   2.516  17.612  0.00  0.00    +0.000 A 
ATOM     27  C   UNL     1       2.470   2.523  18.288  0.00  0.00    +0.000 A 
ATOM     28  C   UNL     1       1.720   3.704  18.362  0.00  0.00    +0.000 A 
ATOM     29  C   UNL     1       2.285   4.938  17.979  0.00  0.00    +0.000 A 
ATOM     30  C   UNL     1       1.657   6.195  18.147  0.00  0.00    +0.000 A 
ENDBRANCH  18  21
ENDBRANCH   1  19
TORSDOF 3
ENDMDL
MODEL 9
REMARK VINA RESULT:      -9.3      5.721      9.743
REMARK  Name = 
REMARK  3 active torsions:
REMARK  status: ('A' for Active; 'I' for Inactive)
REMARK    1  A    between atoms: C_2  and  C_20
REMARK    2  A    between atoms: N_3  and  C_4
REMARK    3  A    between atoms: C_8  and  C_9
REMARK                            x       y       z     vdW  Elec       q    Type
REMARK                         _______ _______ _______ _____ _____    ______ ____
ROOT
ATOM      1  C   UNL     1       0.676  10.053  18.456  0.00  0.00    +0.000 A 
ATOM      2  C   UNL     1      -0.692  10.311  18.274  0.00  0.00    +0.000 A 
ATOM      3  C   UNL     1      -1.264  11.495  18.748  0.00  0.00    +0.000 A 
ATOM      4  C   UNL     1      -0.469  12.437  19.394  0.00  0.00    +0.000 A 
ATOM      5  C   UNL     1       0.901  12.185  19.605  0.00  0.00    +0.000 A 
ATOM      6  C   UNL     1       1.440  10.980  19.164  0.00  0.00    +0.000 A 
ENDROOT
BRANCH   5   7
ATOM      7  C   UNL     1       1.704  13.192  20.304  0.00  0.00    +0.000 A 
ATOM      8  N   UNL     1       1.559  13.539  21.567  0.00  0.00    +0.000 NA
ATOM      9  N   UNL     1       2.557  14.413  21.898  0.00  0.00    +0.000 NA
ATOM     10  C   UNL     1       3.294  14.624  20.831  0.00  0.00    +0.000 A 
ATOM     11  N   UNL     1       2.736  13.939  19.771  0.00  0.00    +0.000 N 
ATOM     12  C   UNL     1       3.137  14.000  18.381  0.00  0.00    +0.000 C 
ATOM     13  C   UNL     1       3.663  15.354  17.917  0.00  0.00    +0.000 C 
ATOM     14  C   UNL     1       5.115  15.612  18.316  0.00  0.00    +0.000 C 
ATOM     15  C   UNL     1       5.515  15.105  19.701  0.00  0.00    +0.000 C 
ATOM     16  C   UNL     1       4.517  15.477  20.793  0.00  0.00    +0.000 C 
ENDBRANCH   5   7
BRANCH   1  19
ATOM     17  O   UNL     1       1.889   7.910  19.997  0.00  0.00    +0.000 OA
ATOM     18  C   UNL     1       1.939   7.953  18.758  0.00  0.00    +0.000 C 
ATOM     19  N   UNL     1       1.317   8.889  17.976  0.00  0.00    +0.000 N 
ATOM     20  H   UNL     1       1.271   8.716  16.971  0.00  0.00    +0.000 HD
BRANCH  18  21
ATOM     21  C   UNL     1       2.765   6.920  18.095  0.00  0.00    +0.000 A 
ATOM     22  C   UNL     1       2.260   5.615  18.176  0.00  0.00    +0.000 A 
ATOM     23  C   UNL     1       3.027   4.548  17.744  0.00  0.00    +0.000 A 
ATOM     24  C   UNL     1       4.239   4.774  17.094  0.00  0.00    +0.000 A 
ATOM     25  C   UNL     1       5.011   3.689  16.684  0.00  0.00    +0.000 A 
ATOM     26  C   UNL     1       5.893   3.839  15.625  0.00  0.00    +0.000 A 
ATOM     27  C   UNL     1       6.205   5.117  15.175  0.00  0.00    +0.000 A 
ATOM     28  C   UNL     1       5.675   6.236  15.830  0.00  0.00    +0.000 A 
ATOM     29  C   UNL     1       4.641   6.090  16.777  0.00  0.00    +0.000 A 
ATOM     30  C   UNL     1       3.951   7.167  17.385  0.00  0.00    +0.000 A 
ENDBRANCH  18  21
ENDBRANCH   1  19
TORSDOF 3
ENDMDL
