MODEL 1
REMARK VINA RESULT:      -8.7      0.000      0.000
REMARK  Name = 
REMARK  5 active torsions:
REMARK  status: ('A' for Active; 'I' for Inactive)
REMARK    1  A    between atoms: C_1  and  N_2
REMARK    2  A    between atoms: C_5  and  C_6
REMARK    3  A    between atoms: C_10  and  C_11
REMARK    4  A    between atoms: N_17  and  C_18
REMARK    5  A    between atoms: C_22  and  C_23
REMARK                            x       y       z     vdW  Elec       q    Type
REMARK                         _______ _______ _______ _____ _____    ______ ____
ROOT
ATOM      1  C   UNL     1       4.745   5.064  17.947  0.00  0.00    +0.000 A 
ATOM      2  C   UNL     1       4.345   6.357  17.602  0.00  0.00    +0.000 A 
ATOM      3  C   UNL     1       3.304   6.924  18.312  0.00  0.00    +0.000 A 
ATOM      4  C   UNL     1       2.637   6.271  19.343  0.00  0.00    +0.000 A 
ATOM      5  C   UNL     1       3.006   4.982  19.710  0.00  0.00    +0.000 A 
ATOM      6  C   UNL     1       4.074   4.396  19.001  0.00  0.00    +0.000 A 
ATOM      7  C   UNL     1       1.565   7.165  19.878  0.00  0.00    +0.000 C 
ATOM      8  N   UNL     1       1.664   8.356  19.046  0.00  0.00    +0.000 N 
ATOM      9  C   UNL     1       2.700   8.244  18.117  0.00  0.00    +0.000 C 
ATOM     10  O   UNL     1       3.112   9.014  17.270  0.00  0.00    +0.000 OA
ENDROOT
BRANCH   1  15
ATOM     11  C   UNL     1       5.546   3.970  13.546  0.00  0.00    +0.000 C 
ATOM     12  N   UNL     1       5.626   4.590  14.857  0.00  0.00    +0.000 NA
ATOM     13  C   UNL     1       6.933   5.180  15.135  0.00  0.00    +0.000 C 
ATOM     14  C   UNL     1       6.895   5.426  16.639  0.00  0.00    +0.000 C 
ATOM     15  C   UNL     1       5.883   4.405  17.188  0.00  0.00    +0.000 C 
ATOM     16  C   UNL     1       5.402   3.635  15.948  0.00  0.00    +0.000 C 
ENDBRANCH   1  15
BRANCH   8  17
ATOM     17  C   UNL     1       0.752   9.441  19.156  0.00  0.00    +0.000 A 
ATOM     18  C   UNL     1       0.852  10.372  20.195  0.00  0.00    +0.000 A 
ATOM     19  C   UNL     1      -0.012  11.465  20.271  0.00  0.00    +0.000 A 
ATOM     20  C   UNL     1      -1.001  11.644  19.308  0.00  0.00    +0.000 A 
ATOM     21  C   UNL     1      -1.147  10.724  18.268  0.00  0.00    +0.000 A 
ATOM     22  C   UNL     1      -0.261   9.633  18.199  0.00  0.00    +0.000 A 
BRANCH  21  23
ATOM     23  C   UNL     1      -2.133  10.900  17.191  0.00  0.00    +0.000 C 
ATOM     24  C   UNL     1      -3.238  10.172  16.996  0.00  0.00    +0.000 C 
ATOM     25  F   UNL     1      -3.556   9.136  17.800  0.00  0.00    +0.000 F 
ATOM     26  F   UNL     1      -4.049  10.480  15.962  0.00  0.00    +0.000 F 
ENDBRANCH  21  23
ENDBRANCH   8  17
BRANCH   5  27
ATOM     27  C   UNL     1       2.316   4.202  20.797  0.00  0.00    +0.000 C 
ATOM     28  F   UNL     1       0.970   4.085  20.611  0.00  0.00    +0.000 F 
ATOM     29  F   UNL     1       2.786   2.929  20.900  0.00  0.00    +0.000 F 
ATOM     30  F   UNL     1       2.471   4.764  22.026  0.00  0.00    +0.000 F 
ENDBRANCH   5  27
TORSDOF 4
ENDMDL
MODEL 2
REMARK VINA RESULT:      -8.6      3.151      8.371
REMARK  Name = 
REMARK  5 active torsions:
REMARK  status: ('A' for Active; 'I' for Inactive)
REMARK    1  A    between atoms: C_1  and  N_2
REMARK    2  A    between atoms: C_5  and  C_6
REMARK    3  A    between atoms: C_10  and  C_11
REMARK    4  A    between atoms: N_17  and  C_18
REMARK    5  A    between atoms: C_22  and  C_23
REMARK                            x       y       z     vdW  Elec       q    Type
REMARK                         _______ _______ _______ _____ _____    ______ ____
ROOT
ATOM      1  C   UNL     1       0.432  11.455  19.356  0.00  0.00    +0.000 A 
ATOM      2  C   UNL     1       1.154  10.496  18.641  0.00  0.00    +0.000 A 
ATOM      3  C   UNL     1       1.400   9.283  19.254  0.00  0.00    +0.000 A 
ATOM      4  C   UNL     1       0.971   8.974  20.541  0.00  0.00    +0.000 A 
ATOM      5  C   UNL     1       0.253   9.906  21.281  0.00  0.00    +0.000 A 
ATOM      6  C   UNL     1      -0.014  11.145  20.665  0.00  0.00    +0.000 A 
ATOM      7  C   UNL     1       1.419   7.591  20.890  0.00  0.00    +0.000 C 
ATOM      8  N   UNL     1       2.159   7.162  19.711  0.00  0.00    +0.000 N 
ATOM      9  C   UNL     1       2.149   8.143  18.718  0.00  0.00    +0.000 C 
ATOM     10  O   UNL     1       2.628   8.166  17.600  0.00  0.00    +0.000 OA
ENDROOT
BRANCH   1  15
ATOM     11  C   UNL     1      -0.084  15.763  20.898  0.00  0.00    +0.000 C 
ATOM     12  N   UNL     1       0.434  14.584  20.229  0.00  0.00    +0.000 NA
ATOM     13  C   UNL     1       1.314  14.900  19.106  0.00  0.00    +0.000 C 
ATOM     14  C   UNL     1       1.427  13.573  18.363  0.00  0.00    +0.000 C 
ATOM     15  C   UNL     1       0.143  12.803  18.719  0.00  0.00    +0.000 C 
ATOM     16  C   UNL     1      -0.627  13.749  19.653  0.00  0.00    +0.000 C 
ENDBRANCH   1  15
BRANCH   8  17
ATOM     17  C   UNL     1       2.846   5.920  19.653  0.00  0.00    +0.000 A 
ATOM     18  C   UNL     1       2.260   4.741  20.127  0.00  0.00    +0.000 A 
ATOM     19  C   UNL     1       2.916   3.514  20.022  0.00  0.00    +0.000 A 
ATOM     20  C   UNL     1       4.180   3.444  19.443  0.00  0.00    +0.000 A 
ATOM     21  C   UNL     1       4.808   4.602  18.978  0.00  0.00    +0.000 A 
ATOM     22  C   UNL     1       4.129   5.829  19.082  0.00  0.00    +0.000 A 
BRANCH  21  23
ATOM     23  C   UNL     1       6.113   4.574  18.302  0.00  0.00    +0.000 C 
ATOM     24  C   UNL     1       6.328   4.433  16.989  0.00  0.00    +0.000 C 
ATOM     25  F   UNL     1       5.311   4.271  16.118  0.00  0.00    +0.000 F 
ATOM     26  F   UNL     1       7.597   4.445  16.530  0.00  0.00    +0.000 F 
ENDBRANCH  21  23
ENDBRANCH   8  17
BRANCH   5  27
ATOM     27  C   UNL     1      -0.223   9.656  22.687  0.00  0.00    +0.000 C 
ATOM     28  F   UNL     1      -0.939  10.691  23.210  0.00  0.00    +0.000 F 
ATOM     29  F   UNL     1      -1.034   8.566  22.774  0.00  0.00    +0.000 F 
ATOM     30  F   UNL     1       0.799   9.437  23.557  0.00  0.00    +0.000 F 
ENDBRANCH   5  27
TORSDOF 4
ENDMDL
MODEL 3
REMARK VINA RESULT:      -8.6      3.033      7.897
REMARK  Name = 
REMARK  5 active torsions:
REMARK  status: ('A' for Active; 'I' for Inactive)
REMARK    1  A    between atoms: C_1  and  N_2
REMARK    2  A    between atoms: C_5  and  C_6
REMARK    3  A    between atoms: C_10  and  C_11
REMARK    4  A    between atoms: N_17  and  C_18
REMARK    5  A    between atoms: C_22  and  C_23
REMARK                            x       y       z     vdW  Elec       q    Type
REMARK                         _______ _______ _______ _____ _____    ______ ____
ROOT
ATOM      1  C   UNL     1       1.538   6.995  20.708  0.00  0.00    +0.000 A 
ATOM      2  C   UNL     1       2.401   7.413  19.692  0.00  0.00    +0.000 A 
ATOM      3  C   UNL     1       2.939   6.447  18.862  0.00  0.00    +0.000 A 
ATOM      4  C   UNL     1       2.667   5.089  18.993  0.00  0.00    +0.000 A 
ATOM      5  C   UNL     1       1.815   4.639  19.995  0.00  0.00    +0.000 A 
ATOM      6  C   UNL     1       1.252   5.614  20.842  0.00  0.00    +0.000 A 
ATOM      7  C   UNL     1       3.420   4.334  17.945  0.00  0.00    +0.000 C 
ATOM      8  N   UNL     1       4.158   5.372  17.238  0.00  0.00    +0.000 N 
ATOM      9  C   UNL     1       3.877   6.639  17.754  0.00  0.00    +0.000 C 
ATOM     10  O   UNL     1       4.269   7.746  17.436  0.00  0.00    +0.000 OA
ENDROOT
BRANCH   1  15
ATOM     11  C   UNL     1       1.031  11.572  20.654  0.00  0.00    +0.000 C 
ATOM     12  N   UNL     1       0.754  10.147  20.640  0.00  0.00    +0.000 NA
ATOM     13  C   UNL     1      -0.606   9.821  21.063  0.00  0.00    +0.000 C 
ATOM     14  C   UNL     1      -0.545   8.319  21.317  0.00  0.00    +0.000 C 
ATOM     15  C   UNL     1       0.930   8.025  21.642  0.00  0.00    +0.000 C 
ATOM     16  C   UNL     1       1.623   9.394  21.551  0.00  0.00    +0.000 C 
ENDBRANCH   1  15
BRANCH   8  17
ATOM     17  C   UNL     1       5.090   5.077  16.206  0.00  0.00    +0.000 A 
ATOM     18  C   UNL     1       6.445   5.398  16.335  0.00  0.00    +0.000 A 
ATOM     19  C   UNL     1       7.366   5.060  15.343  0.00  0.00    +0.000 A 
ATOM     20  C   UNL     1       6.944   4.398  14.194  0.00  0.00    +0.000 A 
ATOM     21  C   UNL     1       5.596   4.081  14.017  0.00  0.00    +0.000 A 
ATOM     22  C   UNL     1       4.682   4.418  15.032  0.00  0.00    +0.000 A 
BRANCH  21  23
ATOM     23  C   UNL     1       5.109   3.326  12.852  0.00  0.00    +0.000 C 
ATOM     24  C   UNL     1       5.851   2.841  11.851  0.00  0.00    +0.000 C 
ATOM     25  F   UNL     1       7.186   3.029  11.802  0.00  0.00    +0.000 F 
ATOM     26  F   UNL     1       5.243   2.154  10.861  0.00  0.00    +0.000 F 
ENDBRANCH  21  23
ENDBRANCH   8  17
BRANCH   5  27
ATOM     27  C   UNL     1       1.493   3.185  20.215  0.00  0.00    +0.000 C 
ATOM     28  F   UNL     1       0.867   2.941  21.401  0.00  0.00    +0.000 F 
ATOM     29  F   UNL     1       0.668   2.685  19.254  0.00  0.00    +0.000 F 
ATOM     30  F   UNL     1       2.600   2.395  20.212  0.00  0.00    +0.000 F 
ENDBRANCH   5  27
TORSDOF 4
ENDMDL
MODEL 4
REMARK VINA RESULT:      -8.5      3.008      8.082
REMARK  Name = 
REMARK  5 active torsions:
REMARK  status: ('A' for Active; 'I' for Inactive)
REMARK    1  A    between atoms: C_1  and  N_2
REMARK    2  A    between atoms: C_5  and  C_6
REMARK    3  A    between atoms: C_10  and  C_11
REMARK    4  A    between atoms: N_17  and  C_18
REMARK    5  A    between atoms: C_22  and  C_23
REMARK                            x       y       z     vdW  Elec       q    Type
REMARK                         _______ _______ _______ _____ _____    ______ ____
ROOT
ATOM      1  C   UNL     1       0.191  12.367  20.153  0.00  0.00    +0.000 A 
ATOM      2  C   UNL     1       0.836  11.705  19.106  0.00  0.00    +0.000 A 
ATOM      3  C   UNL     1       1.128  10.364  19.271  0.00  0.00    +0.000 A 
ATOM      4  C   UNL     1       0.816   9.650  20.423  0.00  0.00    +0.000 A 
ATOM      5  C   UNL     1       0.177  10.278  21.485  0.00  0.00    +0.000 A 
ATOM      6  C   UNL     1      -0.136  11.643  21.327  0.00  0.00    +0.000 A 
ATOM      7  C   UNL     1       1.283   8.238  20.268  0.00  0.00    +0.000 C 
ATOM      8  N   UNL     1       1.908   8.226  18.952  0.00  0.00    +0.000 N 
ATOM      9  C   UNL     1       1.815   9.474  18.332  0.00  0.00    +0.000 C 
ATOM     10  O   UNL     1       2.190   9.864  17.243  0.00  0.00    +0.000 OA
ENDROOT
BRANCH   1  15
ATOM     11  C   UNL     1       2.279  16.320  21.257  0.00  0.00    +0.000 C 
ATOM     12  N   UNL     1       1.694  15.225  20.504  0.00  0.00    +0.000 NA
ATOM     13  C   UNL     1       1.293  15.606  19.152  0.00  0.00    +0.000 C 
ATOM     14  C   UNL     1       0.406  14.448  18.709  0.00  0.00    +0.000 C 
ATOM     15  C   UNL     1      -0.144  13.841  20.011  0.00  0.00    +0.000 C 
ATOM     16  C   UNL     1       0.473  14.700  21.126  0.00  0.00    +0.000 C 
ENDBRANCH   1  15
BRANCH   8  17
ATOM     17  C   UNL     1       2.577   7.083  18.436  0.00  0.00    +0.000 A 
ATOM     18  C   UNL     1       3.922   7.138  18.055  0.00  0.00    +0.000 A 
ATOM     19  C   UNL     1       4.591   6.002  17.598  0.00  0.00    +0.000 A 
ATOM     20  C   UNL     1       3.921   4.786  17.506  0.00  0.00    +0.000 A 
ATOM     21  C   UNL     1       2.571   4.696  17.855  0.00  0.00    +0.000 A 
ATOM     22  C   UNL     1       1.915   5.847  18.324  0.00  0.00    +0.000 A 
BRANCH  21  23
ATOM     23  C   UNL     1       1.835   3.423  17.836  0.00  0.00    +0.000 C 
ATOM     24  C   UNL     1       1.150   2.884  18.850  0.00  0.00    +0.000 C 
ATOM     25  F   UNL     1       1.087   3.479  20.059  0.00  0.00    +0.000 F 
ATOM     26  F   UNL     1       0.514   1.709  18.657  0.00  0.00    +0.000 F 
ENDBRANCH  21  23
ENDBRANCH   8  17
BRANCH   5  27
ATOM     27  C   UNL     1      -0.170   9.580  22.773  0.00  0.00    +0.000 C 
ATOM     28  F   UNL     1      -0.906  10.348  23.626  0.00  0.00    +0.000 F 
ATOM     29  F   UNL     1      -0.902   8.450  22.570  0.00  0.00    +0.000 F 
ATOM     30  F   UNL     1       0.929   9.197  23.476  0.00  0.00    +0.000 F 
ENDBRANCH   5  27
TORSDOF 4
ENDMDL
MODEL 5
REMARK VINA RESULT:      -8.5      3.354      8.633
REMARK  Name = 
REMARK  5 active torsions:
REMARK  status: ('A' for Active; 'I' for Inactive)
REMARK    1  A    between atoms: C_1  and  N_2
REMARK    2  A    between atoms: C_5  and  C_6
REMARK    3  A    between atoms: C_10  and  C_11
REMARK    4  A    between atoms: N_17  and  C_18
REMARK    5  A    between atoms: C_22  and  C_23
REMARK                            x       y       z     vdW  Elec       q    Type
REMARK                         _______ _______ _______ _____ _____    ______ ____
ROOT
ATOM      1  C   UNL     1       0.150  11.869  19.528  0.00  0.00    +0.000 A 
ATOM      2  C   UNL     1       0.831  11.051  18.623  0.00  0.00    +0.000 A 
ATOM      3  C   UNL     1       1.175   9.778  19.036  0.00  0.00    +0.000 A 
ATOM      4  C   UNL     1       0.883   9.278  20.301  0.00  0.00    +0.000 A 
ATOM      5  C   UNL     1       0.210  10.066  21.226  0.00  0.00    +0.000 A 
ATOM      6  C   UNL     1      -0.157  11.364  20.816  0.00  0.00    +0.000 A 
ATOM      7  C   UNL     1       1.408   7.883  20.411  0.00  0.00    +0.000 C 
ATOM      8  N   UNL     1       2.044   7.652  19.121  0.00  0.00    +0.000 N 
ATOM      9  C   UNL     1       1.906   8.758  18.280  0.00  0.00    +0.000 C 
ATOM     10  O   UNL     1       2.273   8.953  17.137  0.00  0.00    +0.000 OA
ENDROOT
BRANCH   1  15
ATOM     11  C   UNL     1      -0.812  15.788  21.748  0.00  0.00    +0.000 C 
ATOM     12  N   UNL     1      -0.166  14.790  20.914  0.00  0.00    +0.000 NA
ATOM     13  C   UNL     1       0.715  15.369  19.902  0.00  0.00    +0.000 C 
ATOM     14  C   UNL     1       0.973  14.205  18.953  0.00  0.00    +0.000 C 
ATOM     15  C   UNL     1      -0.243  13.276  19.114  0.00  0.00    +0.000 C 
ATOM     16  C   UNL     1      -1.126  13.978  20.158  0.00  0.00    +0.000 C 
ENDBRANCH   1  15
BRANCH   8  17
ATOM     17  C   UNL     1       2.763   6.462  18.828  0.00  0.00    +0.000 A 
ATOM     18  C   UNL     1       2.178   5.418  18.102  0.00  0.00    +0.000 A 
ATOM     19  C   UNL     1       2.902   4.273  17.771  0.00  0.00    +0.000 A 
ATOM     20  C   UNL     1       4.231   4.147  18.167  0.00  0.00    +0.000 A 
ATOM     21  C   UNL     1       4.843   5.157  18.913  0.00  0.00    +0.000 A 
ATOM     22  C   UNL     1       4.102   6.309  19.229  0.00  0.00    +0.000 A 
BRANCH  21  23
ATOM     23  C   UNL     1       6.260   5.101  19.301  0.00  0.00    +0.000 C 
ATOM     24  C   UNL     1       7.250   5.859  18.817  0.00  0.00    +0.000 C 
ATOM     25  F   UNL     1       7.031   6.781  17.857  0.00  0.00    +0.000 F 
ATOM     26  F   UNL     1       8.499   5.689  19.298  0.00  0.00    +0.000 F 
ENDBRANCH  21  23
ENDBRANCH   8  17
BRANCH   5  27
ATOM     27  C   UNL     1      -0.120   9.606  22.621  0.00  0.00    +0.000 C 
ATOM     28  F   UNL     1      -0.916   8.499  22.653  0.00  0.00    +0.000 F 
ATOM     29  F   UNL     1       0.992   9.279  23.336  0.00  0.00    +0.000 F 
ATOM     30  F   UNL     1      -0.773  10.552  23.347  0.00  0.00    +0.000 F 
ENDBRANCH   5  27
TORSDOF 4
ENDMDL
MODEL 6
REMARK VINA RESULT:      -8.5      3.268      8.445
REMARK  Name = 
REMARK  5 active torsions:
REMARK  status: ('A' for Active; 'I' for Inactive)
REMARK    1  A    between atoms: C_1  and  N_2
REMARK    2  A    between atoms: C_5  and  C_6
REMARK    3  A    between atoms: C_10  and  C_11
REMARK    4  A    between atoms: N_17  and  C_18
REMARK    5  A    between atoms: C_22  and  C_23
REMARK                            x       y       z     vdW  Elec       q    Type
REMARK                         _______ _______ _______ _____ _____    ______ ____
ROOT
ATOM      1  C   UNL     1      -0.464  11.762  19.605  0.00  0.00    +0.000 A 
ATOM      2  C   UNL     1       0.318  11.028  18.709  0.00  0.00    +0.000 A 
ATOM      3  C   UNL     1       0.864   9.838  19.151  0.00  0.00    +0.000 A 
ATOM      4  C   UNL     1       0.677   9.342  20.438  0.00  0.00    +0.000 A 
ATOM      5  C   UNL     1      -0.092  10.048  21.355  0.00  0.00    +0.000 A 
ATOM      6  C   UNL     1      -0.664  11.258  20.915  0.00  0.00    +0.000 A 
ATOM      7  C   UNL     1       1.414   8.049  20.577  0.00  0.00    +0.000 C 
ATOM      8  N   UNL     1       2.053   7.876  19.280  0.00  0.00    +0.000 N 
ATOM      9  C   UNL     1       1.729   8.918  18.409  0.00  0.00    +0.000 C 
ATOM     10  O   UNL     1       2.040   9.130  17.252  0.00  0.00    +0.000 OA
ENDROOT
BRANCH   1  15
ATOM     11  C   UNL     1      -0.913  15.959  21.445  0.00  0.00    +0.000 C 
ATOM     12  N   UNL     1      -0.513  14.857  20.589  0.00  0.00    +0.000 NA
ATOM     13  C   UNL     1      -0.072  15.289  19.264  0.00  0.00    +0.000 C 
ATOM     14  C   UNL     1      -0.062  13.995  18.458  0.00  0.00    +0.000 C 
ATOM     15  C   UNL     1      -1.078  13.076  19.158  0.00  0.00    +0.000 C 
ATOM     16  C   UNL     1      -1.608  13.914  20.333  0.00  0.00    +0.000 C 
ENDBRANCH   1  15
BRANCH   8  17
ATOM     17  C   UNL     1       2.942   6.802  19.005  0.00  0.00    +0.000 A 
ATOM     18  C   UNL     1       2.922   5.628  19.766  0.00  0.00    +0.000 A 
ATOM     19  C   UNL     1       3.759   4.555  19.461  0.00  0.00    +0.000 A 
ATOM     20  C   UNL     1       4.644   4.640  18.390  0.00  0.00    +0.000 A 
ATOM     21  C   UNL     1       4.711   5.804  17.622  0.00  0.00    +0.000 A 
ATOM     22  C   UNL     1       3.851   6.872  17.934  0.00  0.00    +0.000 A 
BRANCH  21  23
ATOM     23  C   UNL     1       5.581   5.922  16.442  0.00  0.00    +0.000 C 
ATOM     24  C   UNL     1       5.555   5.147  15.352  0.00  0.00    +0.000 C 
ATOM     25  F   UNL     1       4.695   4.113  15.238  0.00  0.00    +0.000 F 
ATOM     26  F   UNL     1       6.418   5.403  14.347  0.00  0.00    +0.000 F 
ENDBRANCH  21  23
ENDBRANCH   8  17
BRANCH   5  27
ATOM     27  C   UNL     1      -0.319   9.589  22.771  0.00  0.00    +0.000 C 
ATOM     28  F   UNL     1      -1.084  10.448  23.504  0.00  0.00    +0.000 F 
ATOM     29  F   UNL     1      -0.956   8.387  22.831  0.00  0.00    +0.000 F 
ATOM     30  F   UNL     1       0.839   9.440  23.467  0.00  0.00    +0.000 F 
ENDBRANCH   5  27
TORSDOF 4
ENDMDL
MODEL 7
REMARK VINA RESULT:      -8.5      3.232      8.363
REMARK  Name = 
REMARK  5 active torsions:
REMARK  status: ('A' for Active; 'I' for Inactive)
REMARK    1  A    between atoms: C_1  and  N_2
REMARK    2  A    between atoms: C_5  and  C_6
REMARK    3  A    between atoms: C_10  and  C_11
REMARK    4  A    between atoms: N_17  and  C_18
REMARK    5  A    between atoms: C_22  and  C_23
REMARK                            x       y       z     vdW  Elec       q    Type
REMARK                         _______ _______ _______ _____ _____    ______ ____
ROOT
ATOM      1  C   UNL     1       0.883  11.776  19.413  0.00  0.00    +0.000 A 
ATOM      2  C   UNL     1       1.455  10.858  18.529  0.00  0.00    +0.000 A 
ATOM      3  C   UNL     1       1.586   9.549  18.951  0.00  0.00    +0.000 A 
ATOM      4  C   UNL     1       1.182   9.106  20.207  0.00  0.00    +0.000 A 
ATOM      5  C   UNL     1       0.611   9.993  21.112  0.00  0.00    +0.000 A 
ATOM      6  C   UNL     1       0.463  11.330  20.691  0.00  0.00    +0.000 A 
ATOM      7  C   UNL     1       1.480   7.646  20.332  0.00  0.00    +0.000 C 
ATOM      8  N   UNL     1       2.111   7.314  19.062  0.00  0.00    +0.000 N 
ATOM      9  C   UNL     1       2.171   8.424  18.218  0.00  0.00    +0.000 C 
ATOM     10  O   UNL     1       2.599   8.556  17.086  0.00  0.00    +0.000 OA
ENDROOT
BRANCH   1  15
ATOM     11  C   UNL     1       1.904  15.864  21.271  0.00  0.00    +0.000 C 
ATOM     12  N   UNL     1       1.891  14.701  20.401  0.00  0.00    +0.000 NA
ATOM     13  C   UNL     1       2.411  14.978  19.064  0.00  0.00    +0.000 C 
ATOM     14  C   UNL     1       1.968  13.763  18.256  0.00  0.00    +0.000 C 
ATOM     15  C   UNL     1       0.726  13.225  18.988  0.00  0.00    +0.000 C 
ATOM     16  C   UNL     1       0.539  14.177  20.179  0.00  0.00    +0.000 C 
ENDBRANCH   1  15
BRANCH   8  17
ATOM     17  C   UNL     1       2.645   6.026  18.791  0.00  0.00    +0.000 A 
ATOM     18  C   UNL     1       1.815   4.947  18.465  0.00  0.00    +0.000 A 
ATOM     19  C   UNL     1       2.345   3.697  18.148  0.00  0.00    +0.000 A 
ATOM     20  C   UNL     1       3.723   3.498  18.158  0.00  0.00    +0.000 A 
ATOM     21  C   UNL     1       4.584   4.543  18.500  0.00  0.00    +0.000 A 
ATOM     22  C   UNL     1       4.034   5.801  18.806  0.00  0.00    +0.000 A 
BRANCH  21  23
ATOM     23  C   UNL     1       6.047   4.404  18.464  0.00  0.00    +0.000 C 
ATOM     24  C   UNL     1       6.831   4.507  17.385  0.00  0.00    +0.000 C 
ATOM     25  F   UNL     1       6.321   4.739  16.158  0.00  0.00    +0.000 F 
ATOM     26  F   UNL     1       8.165   4.367  17.532  0.00  0.00    +0.000 F 
ENDBRANCH  21  23
ENDBRANCH   8  17
BRANCH   5  27
ATOM     27  C   UNL     1       0.173   9.595  22.496  0.00  0.00    +0.000 C 
ATOM     28  F   UNL     1       1.198   9.173  23.290  0.00  0.00    +0.000 F 
ATOM     29  F   UNL     1      -0.415  10.622  23.169  0.00  0.00    +0.000 F 
ATOM     30  F   UNL     1      -0.731   8.580  22.489  0.00  0.00    +0.000 F 
ENDBRANCH   5  27
TORSDOF 4
ENDMDL
MODEL 8
REMARK VINA RESULT:      -8.3      3.040      7.668
REMARK  Name = 
REMARK  5 active torsions:
REMARK  status: ('A' for Active; 'I' for Inactive)
REMARK    1  A    between atoms: C_1  and  N_2
REMARK    2  A    between atoms: C_5  and  C_6
REMARK    3  A    between atoms: C_10  and  C_11
REMARK    4  A    between atoms: N_17  and  C_18
REMARK    5  A    between atoms: C_22  and  C_23
REMARK                            x       y       z     vdW  Elec       q    Type
REMARK                         _______ _______ _______ _____ _____    ______ ____
ROOT
ATOM      1  C   UNL     1       1.679   6.776  20.472  0.00  0.00    +0.000 A 
ATOM      2  C   UNL     1       2.562   7.230  19.490  0.00  0.00    +0.000 A 
ATOM      3  C   UNL     1       3.088   6.300  18.614  0.00  0.00    +0.000 A 
ATOM      4  C   UNL     1       2.786   4.943  18.666  0.00  0.00    +0.000 A 
ATOM      5  C   UNL     1       1.914   4.457  19.632  0.00  0.00    +0.000 A 
ATOM      6  C   UNL     1       1.361   5.396  20.526  0.00  0.00    +0.000 A 
ATOM      7  C   UNL     1       3.535   4.231  17.585  0.00  0.00    +0.000 C 
ATOM      8  N   UNL     1       4.303   5.290  16.945  0.00  0.00    +0.000 N 
ATOM      9  C   UNL     1       4.044   6.532  17.528  0.00  0.00    +0.000 C 
ATOM     10  O   UNL     1       4.463   7.645  17.275  0.00  0.00    +0.000 OA
ENDROOT
BRANCH   1  15
ATOM     11  C   UNL     1       0.949  11.323  20.509  0.00  0.00    +0.000 C 
ATOM     12  N   UNL     1       0.741   9.886  20.494  0.00  0.00    +0.000 NA
ATOM     13  C   UNL     1      -0.572   9.490  20.998  0.00  0.00    +0.000 C 
ATOM     14  C   UNL     1      -0.423   7.990  21.228  0.00  0.00    +0.000 C 
ATOM     15  C   UNL     1       1.082   7.766  21.457  0.00  0.00    +0.000 C 
ATOM     16  C   UNL     1       1.702   9.167  21.339  0.00  0.00    +0.000 C 
ENDBRANCH   1  15
BRANCH   8  17
ATOM     17  C   UNL     1       5.240   5.031  15.908  0.00  0.00    +0.000 A 
ATOM     18  C   UNL     1       6.541   5.543  15.958  0.00  0.00    +0.000 A 
ATOM     19  C   UNL     1       7.474   5.245  14.965  0.00  0.00    +0.000 A 
ATOM     20  C   UNL     1       7.119   4.432  13.893  0.00  0.00    +0.000 A 
ATOM     21  C   UNL     1       5.823   3.920  13.795  0.00  0.00    +0.000 A 
ATOM     22  C   UNL     1       4.897   4.221  14.810  0.00  0.00    +0.000 A 
BRANCH  21  23
ATOM     23  C   UNL     1       5.415   3.006  12.718  0.00  0.00    +0.000 C 
ATOM     24  C   UNL     1       4.584   3.285  11.707  0.00  0.00    +0.000 C 
ATOM     25  F   UNL     1       3.992   4.492  11.589  0.00  0.00    +0.000 F 
ATOM     26  F   UNL     1       4.328   2.330  10.789  0.00  0.00    +0.000 F 
ENDBRANCH  21  23
ENDBRANCH   8  17
BRANCH   5  27
ATOM     27  C   UNL     1       1.558   3.000  19.768  0.00  0.00    +0.000 C 
ATOM     28  F   UNL     1       0.903   2.498  18.682  0.00  0.00    +0.000 F 
ATOM     29  F   UNL     1       2.655   2.211  19.933  0.00  0.00    +0.000 F 
ATOM     30  F   UNL     1       0.750   2.754  20.833  0.00  0.00    +0.000 F 
ENDBRANCH   5  27
TORSDOF 4
ENDMDL
MODEL 9
REMARK VINA RESULT:      -8.3      2.894      8.355
REMARK  Name = 
REMARK  5 active torsions:
REMARK  status: ('A' for Active; 'I' for Inactive)
REMARK    1  A    between atoms: C_1  and  N_2
REMARK    2  A    between atoms: C_5  and  C_6
REMARK    3  A    between atoms: C_10  and  C_11
REMARK    4  A    between atoms: N_17  and  C_18
REMARK    5  A    between atoms: C_22  and  C_23
REMARK                            x       y       z     vdW  Elec       q    Type
REMARK                         _______ _______ _______ _____ _____    ______ ____
ROOT
ATOM      1  C   UNL     1       0.344  12.105  19.677  0.00  0.00    +0.000 A 
ATOM      2  C   UNL     1       1.006  11.251  18.792  0.00  0.00    +0.000 A 
ATOM      3  C   UNL     1       1.254   9.956  19.205  0.00  0.00    +0.000 A 
ATOM      4  C   UNL     1       0.882   9.467  20.454  0.00  0.00    +0.000 A 
ATOM      5  C   UNL     1       0.224  10.290  21.360  0.00  0.00    +0.000 A 
ATOM      6  C   UNL     1      -0.044  11.611  20.948  0.00  0.00    +0.000 A 
ATOM      7  C   UNL     1       1.313   8.040  20.571  0.00  0.00    +0.000 C 
ATOM      8  N   UNL     1       1.983   7.779  19.305  0.00  0.00    +0.000 N 
ATOM      9  C   UNL     1       1.948   8.897  18.469  0.00  0.00    +0.000 C 
ATOM     10  O   UNL     1       2.371   9.077  17.342  0.00  0.00    +0.000 OA
ENDROOT
BRANCH   1  15
ATOM     11  C   UNL     1       0.269  16.183  21.814  0.00  0.00    +0.000 C 
ATOM     12  N   UNL     1       0.632  15.084  20.937  0.00  0.00    +0.000 NA
ATOM     13  C   UNL     1       1.384  15.513  19.759  0.00  0.00    +0.000 C 
ATOM     14  C   UNL     1       1.327  14.295  18.844  0.00  0.00    +0.000 C 
ATOM     15  C   UNL     1       0.056  13.536  19.262  0.00  0.00    +0.000 C 
ATOM     16  C   UNL     1      -0.537  14.378  20.402  0.00  0.00    +0.000 C 
ENDBRANCH   1  15
BRANCH   8  17
ATOM     17  C   UNL     1       2.637   6.548  19.028  0.00  0.00    +0.000 A 
ATOM     18  C   UNL     1       3.479   6.404  17.920  0.00  0.00    +0.000 A 
ATOM     19  C   UNL     1       4.161   5.211  17.680  0.00  0.00    +0.000 A 
ATOM     20  C   UNL     1       4.006   4.130  18.544  0.00  0.00    +0.000 A 
ATOM     21  C   UNL     1       3.156   4.227  19.648  0.00  0.00    +0.000 A 
ATOM     22  C   UNL     1       2.485   5.441  19.882  0.00  0.00    +0.000 A 
BRANCH  21  23
ATOM     23  C   UNL     1       3.006   3.139  20.626  0.00  0.00    +0.000 C 
ATOM     24  C   UNL     1       1.877   2.768  21.238  0.00  0.00    +0.000 C 
ATOM     25  F   UNL     1       0.709   3.409  21.022  0.00  0.00    +0.000 F 
ATOM     26  F   UNL     1       1.911   1.731  22.101  0.00  0.00    +0.000 F 
ENDBRANCH  21  23
ENDBRANCH   8  17
BRANCH   5  27
ATOM     27  C   UNL     1      -0.187   9.842  22.737  0.00  0.00    +0.000 C 
ATOM     28  F   UNL     1      -1.067   8.799  22.728  0.00  0.00    +0.000 F 
ATOM     29  F   UNL     1       0.871   9.423  23.485  0.00  0.00    +0.000 F 
ATOM     30  F   UNL     1      -0.790  10.828  23.453  0.00  0.00    +0.000 F 
ENDBRANCH   5  27
TORSDOF 4
ENDMDL
