MODEL 1
REMARK VINA RESULT:      -9.0      0.000      0.000
REMARK  Name = 
REMARK  8 active torsions:
REMARK  status: ('A' for Active; 'I' for Inactive)
REMARK    1  A    between atoms: C_1  and  C_2
REMARK    2  A    between atoms: C_6  and  N_7
REMARK    3  A    between atoms: N_7  and  S_8
REMARK    4  A    between atoms: S_8  and  C_11
REMARK    5  A    between atoms: C_13  and  C_14
REMARK    6  A    between atoms: N_16  and  C_17
REMARK    7  A    between atoms: C_22  and  C_23
REMARK    8  A    between atoms: C_26  and  C_27
REMARK                            x       y       z     vdW  Elec       q    Type
REMARK                         _______ _______ _______ _____ _____    ______ ____
ROOT
ATOM      1  C   UNL     1       4.598   5.889  18.309  0.00  0.00    +0.000 A 
ATOM      2  C   UNL     1       3.718   6.274  19.330  0.00  0.00    +0.000 A 
ATOM      3  C   UNL     1       2.700   7.201  19.068  0.00  0.00    +0.000 A 
ATOM      4  C   UNL     1       2.581   7.770  17.797  0.00  0.00    +0.000 A 
ATOM      5  C   UNL     1       3.477   7.415  16.790  0.00  0.00    +0.000 A 
ATOM      6  C   UNL     1       4.496   6.475  17.027  0.00  0.00    +0.000 A 
ATOM      7  C   UNL     1       5.455   6.167  15.908  0.00  0.00    +0.000 C 
ENDROOT
BRANCH   3   8
ATOM      8  C   UNL     1       1.799   7.633  20.172  0.00  0.00    +0.000 C 
ATOM      9  O   UNL     1       1.405   6.795  20.974  0.00  0.00    +0.000 OA
ATOM     10  N   UNL     1       1.446   8.969  20.147  0.00  0.00    +0.000 N 
ATOM     11  H   UNL     1       1.269   9.343  19.223  0.00  0.00    +0.000 HD
BRANCH  10  12
ATOM     12  C   UNL     1       0.600   9.537  21.106  0.00  0.00    +0.000 A 
ATOM     13  N   UNL     1       0.766   9.022  22.345  0.00  0.00    +0.000 NA
ATOM     14  C   UNL     1       0.023   9.556  23.338  0.00  0.00    +0.000 A 
ATOM     15  C   UNL     1      -0.920  10.548  23.147  0.00  0.00    +0.000 A 
ATOM     16  C   UNL     1      -1.135  11.003  21.853  0.00  0.00    +0.000 A 
ATOM     17  C   UNL     1      -0.381  10.483  20.792  0.00  0.00    +0.000 A 
ATOM     18  C   UNL     1      -0.718  10.885  19.386  0.00  0.00    +0.000 C 
ENDBRANCH  10  12
ENDBRANCH   3   8
BRANCH   1  19
ATOM     19  S   UNL     1       5.881   4.683  18.629  0.00  0.00    +0.000 S 
ATOM     20  O   UNL     1       6.242   4.844  20.022  0.00  0.00    +0.000 OA
ATOM     21  O   UNL     1       6.861   4.798  17.572  0.00  0.00    +0.000 OA
BRANCH  19  22
ATOM     22  N   UNL     1       5.132   3.164  18.551  0.00  0.00    +0.000 N 
ATOM     23  H   UNL     1       5.423   2.703  17.687  0.00  0.00    +0.000 HD
BRANCH  22  29
ATOM     24  C   UNL     1       1.420   2.668  21.835  0.00  0.00    +0.000 C 
ATOM     25  C   UNL     1       1.910   2.851  20.429  0.00  0.00    +0.000 A 
ATOM     26  C   UNL     1       0.996   2.996  19.376  0.00  0.00    +0.000 A 
ATOM     27  C   UNL     1       1.447   3.168  18.067  0.00  0.00    +0.000 A 
ATOM     28  C   UNL     1       2.819   3.202  17.795  0.00  0.00    +0.000 A 
ATOM     29  C   UNL     1       3.733   3.080  18.835  0.00  0.00    +0.000 A 
ATOM     30  C   UNL     1       3.286   2.887  20.149  0.00  0.00    +0.000 A 
ENDBRANCH  22  29
ENDBRANCH  19  22
ENDBRANCH   1  19
TORSDOF 5
ENDMDL
MODEL 2
REMARK VINA RESULT:      -8.7      2.442      4.605
REMARK  Name = 
REMARK  8 active torsions:
REMARK  status: ('A' for Active; 'I' for Inactive)
REMARK    1  A    between atoms: C_1  and  C_2
REMARK    2  A    between atoms: C_6  and  N_7
REMARK    3  A    between atoms: N_7  and  S_8
REMARK    4  A    between atoms: S_8  and  C_11
REMARK    5  A    between atoms: C_13  and  C_14
REMARK    6  A    between atoms: N_16  and  C_17
REMARK    7  A    between atoms: C_22  and  C_23
REMARK    8  A    between atoms: C_26  and  C_27
REMARK                            x       y       z     vdW  Elec       q    Type
REMARK                         _______ _______ _______ _____ _____    ______ ____
ROOT
ATOM      1  C   UNL     1       2.946   5.241  18.867  0.00  0.00    +0.000 A 
ATOM      2  C   UNL     1       2.719   6.566  18.471  0.00  0.00    +0.000 A 
ATOM      3  C   UNL     1       2.032   7.446  19.319  0.00  0.00    +0.000 A 
ATOM      4  C   UNL     1       1.541   6.994  20.547  0.00  0.00    +0.000 A 
ATOM      5  C   UNL     1       1.735   5.667  20.927  0.00  0.00    +0.000 A 
ATOM      6  C   UNL     1       2.435   4.772  20.099  0.00  0.00    +0.000 A 
ATOM      7  C   UNL     1       2.573   3.342  20.550  0.00  0.00    +0.000 C 
ENDROOT
BRANCH   3   8
ATOM      8  C   UNL     1       1.761   8.838  18.869  0.00  0.00    +0.000 C 
ATOM      9  O   UNL     1       2.371   9.274  17.899  0.00  0.00    +0.000 OA
ATOM     10  N   UNL     1       0.859   9.538  19.647  0.00  0.00    +0.000 N 
ATOM     11  H   UNL     1       0.943   9.375  20.643  0.00  0.00    +0.000 HD
BRANCH  10  12
ATOM     12  C   UNL     1       0.498  10.861  19.368  0.00  0.00    +0.000 A 
ATOM     13  N   UNL     1       1.182  11.772  20.096  0.00  0.00    +0.000 NA
ATOM     14  C   UNL     1       0.930  13.075  19.846  0.00  0.00    +0.000 A 
ATOM     15  C   UNL     1      -0.015  13.517  18.939  0.00  0.00    +0.000 A 
ATOM     16  C   UNL     1      -0.767  12.563  18.264  0.00  0.00    +0.000 A 
ATOM     17  C   UNL     1      -0.534  11.200  18.486  0.00  0.00    +0.000 A 
ATOM     18  C   UNL     1      -1.443  10.186  17.854  0.00  0.00    +0.000 C 
ENDBRANCH  10  12
ENDBRANCH   3   8
BRANCH   1  19
ATOM     19  S   UNL     1       3.848   4.122  17.802  0.00  0.00    +0.000 S 
ATOM     20  O   UNL     1       2.879   3.593  16.864  0.00  0.00    +0.000 OA
ATOM     21  O   UNL     1       4.636   3.254  18.649  0.00  0.00    +0.000 OA
BRANCH  19  22
ATOM     22  N   UNL     1       4.874   5.089  16.861  0.00  0.00    +0.000 N 
ATOM     23  H   UNL     1       5.062   4.602  15.983  0.00  0.00    +0.000 HD
BRANCH  22  29
ATOM     24  C   UNL     1       7.876   8.997  17.584  0.00  0.00    +0.000 C 
ATOM     25  C   UNL     1       7.490   7.573  17.856  0.00  0.00    +0.000 A 
ATOM     26  C   UNL     1       8.224   6.805  18.771  0.00  0.00    +0.000 A 
ATOM     27  C   UNL     1       7.867   5.481  19.028  0.00  0.00    +0.000 A 
ATOM     28  C   UNL     1       6.769   4.910  18.378  0.00  0.00    +0.000 A 
ATOM     29  C   UNL     1       6.022   5.669  17.484  0.00  0.00    +0.000 A 
ATOM     30  C   UNL     1       6.388   6.993  17.207  0.00  0.00    +0.000 A 
ENDBRANCH  22  29
ENDBRANCH  19  22
ENDBRANCH   1  19
TORSDOF 5
ENDMDL
MODEL 3
REMARK VINA RESULT:      -8.6      2.411      4.392
REMARK  Name = 
REMARK  8 active torsions:
REMARK  status: ('A' for Active; 'I' for Inactive)
REMARK    1  A    between atoms: C_1  and  C_2
REMARK    2  A    between atoms: C_6  and  N_7
REMARK    3  A    between atoms: N_7  and  S_8
REMARK    4  A    between atoms: S_8  and  C_11
REMARK    5  A    between atoms: C_13  and  C_14
REMARK    6  A    between atoms: N_16  and  C_17
REMARK    7  A    between atoms: C_22  and  C_23
REMARK    8  A    between atoms: C_26  and  C_27
REMARK                            x       y       z     vdW  Elec       q    Type
REMARK                         _______ _______ _______ _____ _____    ______ ____
ROOT
ATOM      1  C   UNL     1       2.773   5.078  18.754  0.00  0.00    +0.000 A 
ATOM      2  C   UNL     1       2.540   6.369  18.262  0.00  0.00    +0.000 A 
ATOM      3  C   UNL     1       2.034   7.364  19.111  0.00  0.00    +0.000 A 
ATOM      4  C   UNL     1       1.728   7.061  20.440  0.00  0.00    +0.000 A 
ATOM      5  C   UNL     1       1.926   5.768  20.921  0.00  0.00    +0.000 A 
ATOM      6  C   UNL     1       2.447   4.759  20.092  0.00  0.00    +0.000 A 
ATOM      7  C   UNL     1       2.597   3.374  20.663  0.00  0.00    +0.000 C 
ENDROOT
BRANCH   3   8
ATOM      8  C   UNL     1       1.752   8.720  18.565  0.00  0.00    +0.000 C 
ATOM      9  O   UNL     1       2.254   9.042  17.495  0.00  0.00    +0.000 OA
ATOM     10  N   UNL     1       0.969   9.522  19.373  0.00  0.00    +0.000 N 
ATOM     11  H   UNL     1       1.166   9.446  20.364  0.00  0.00    +0.000 HD
BRANCH  10  12
ATOM     12  C   UNL     1       0.615  10.828  19.014  0.00  0.00    +0.000 A 
ATOM     13  N   UNL     1       1.559  11.746  19.319  0.00  0.00    +0.000 NA
ATOM     14  C   UNL     1       1.316  13.023  18.955  0.00  0.00    +0.000 A 
ATOM     15  C   UNL     1       0.148  13.442  18.347  0.00  0.00    +0.000 A 
ATOM     16  C   UNL     1      -0.844  12.497  18.120  0.00  0.00    +0.000 A 
ATOM     17  C   UNL     1      -0.632  11.159  18.474  0.00  0.00    +0.000 A 
ATOM     18  C   UNL     1      -1.761  10.178  18.348  0.00  0.00    +0.000 C 
ENDBRANCH  10  12
ENDBRANCH   3   8
BRANCH   1  19
ATOM     19  S   UNL     1       3.447   3.811  17.684  0.00  0.00    +0.000 S 
ATOM     20  O   UNL     1       2.345   3.357  16.859  0.00  0.00    +0.000 OA
ATOM     21  O   UNL     1       4.202   2.898  18.512  0.00  0.00    +0.000 OA
BRANCH  19  22
ATOM     22  N   UNL     1       4.489   4.606  16.609  0.00  0.00    +0.000 N 
ATOM     23  H   UNL     1       4.801   3.935  15.905  0.00  0.00    +0.000 HD
BRANCH  22  29
ATOM     24  C   UNL     1       8.209   5.296  19.850  0.00  0.00    +0.000 C 
ATOM     25  C   UNL     1       7.348   5.780  18.720  0.00  0.00    +0.000 A 
ATOM     26  C   UNL     1       7.581   7.036  18.143  0.00  0.00    +0.000 A 
ATOM     27  C   UNL     1       6.784   7.489  17.091  0.00  0.00    +0.000 A 
ATOM     28  C   UNL     1       5.748   6.689  16.599  0.00  0.00    +0.000 A 
ATOM     29  C   UNL     1       5.522   5.434  17.151  0.00  0.00    +0.000 A 
ATOM     30  C   UNL     1       6.305   4.982  18.221  0.00  0.00    +0.000 A 
ENDBRANCH  22  29
ENDBRANCH  19  22
ENDBRANCH   1  19
TORSDOF 5
ENDMDL
MODEL 4
REMARK VINA RESULT:      -8.6      2.635      4.740
REMARK  Name = 
REMARK  8 active torsions:
REMARK  status: ('A' for Active; 'I' for Inactive)
REMARK    1  A    between atoms: C_1  and  C_2
REMARK    2  A    between atoms: C_6  and  N_7
REMARK    3  A    between atoms: N_7  and  S_8
REMARK    4  A    between atoms: S_8  and  C_11
REMARK    5  A    between atoms: C_13  and  C_14
REMARK    6  A    between atoms: N_16  and  C_17
REMARK    7  A    between atoms: C_22  and  C_23
REMARK    8  A    between atoms: C_26  and  C_27
REMARK                            x       y       z     vdW  Elec       q    Type
REMARK                         _______ _______ _______ _____ _____    ______ ____
ROOT
ATOM      1  C   UNL     1       4.185   6.295  17.826  0.00  0.00    +0.000 A 
ATOM      2  C   UNL     1       3.552   7.540  17.708  0.00  0.00    +0.000 A 
ATOM      3  C   UNL     1       2.452   7.849  18.520  0.00  0.00    +0.000 A 
ATOM      4  C   UNL     1       1.962   6.903  19.424  0.00  0.00    +0.000 A 
ATOM      5  C   UNL     1       2.568   5.651  19.517  0.00  0.00    +0.000 A 
ATOM      6  C   UNL     1       3.682   5.326  18.724  0.00  0.00    +0.000 A 
ATOM      7  C   UNL     1       4.264   3.943  18.844  0.00  0.00    +0.000 C 
ENDROOT
BRANCH   3   8
ATOM      8  C   UNL     1       1.763   9.158  18.354  0.00  0.00    +0.000 C 
ATOM      9  O   UNL     1       2.137   9.914  17.465  0.00  0.00    +0.000 OA
ATOM     10  N   UNL     1       0.776   9.418  19.285  0.00  0.00    +0.000 N 
ATOM     11  H   UNL     1       0.991   9.117  20.228  0.00  0.00    +0.000 HD
BRANCH  10  12
ATOM     12  C   UNL     1       0.036  10.607  19.279  0.00  0.00    +0.000 A 
ATOM     13  N   UNL     1       0.401  11.476  20.247  0.00  0.00    +0.000 NA
ATOM     14  C   UNL     1      -0.230  12.669  20.274  0.00  0.00    +0.000 A 
ATOM     15  C   UNL     1      -1.250  13.021  19.411  0.00  0.00    +0.000 A 
ATOM     16  C   UNL     1      -1.669  12.080  18.478  0.00  0.00    +0.000 A 
ATOM     17  C   UNL     1      -1.037  10.832  18.409  0.00  0.00    +0.000 A 
ATOM     18  C   UNL     1      -1.587   9.779  17.491  0.00  0.00    +0.000 C 
ENDBRANCH  10  12
ENDBRANCH   3   8
BRANCH   1  19
ATOM     19  S   UNL     1       5.609   5.906  16.813  0.00  0.00    +0.000 S 
ATOM     20  O   UNL     1       6.661   5.523  17.733  0.00  0.00    +0.000 OA
ATOM     21  O   UNL     1       5.781   6.988  15.870  0.00  0.00    +0.000 OA
BRANCH  19  22
ATOM     22  N   UNL     1       5.223   4.479  15.983  0.00  0.00    +0.000 N 
ATOM     23  H   UNL     1       5.359   3.689  16.617  0.00  0.00    +0.000 HD
BRANCH  22  29
ATOM     24  C   UNL     1       4.668   2.893  11.294  0.00  0.00    +0.000 C 
ATOM     25  C   UNL     1       5.492   3.534  12.373  0.00  0.00    +0.000 A 
ATOM     26  C   UNL     1       6.780   4.009  12.089  0.00  0.00    +0.000 A 
ATOM     27  C   UNL     1       7.548   4.607  13.087  0.00  0.00    +0.000 A 
ATOM     28  C   UNL     1       7.037   4.742  14.382  0.00  0.00    +0.000 A 
ATOM     29  C   UNL     1       5.753   4.293  14.669  0.00  0.00    +0.000 A 
ATOM     30  C   UNL     1       4.984   3.673  13.675  0.00  0.00    +0.000 A 
ENDBRANCH  22  29
ENDBRANCH  19  22
ENDBRANCH   1  19
TORSDOF 5
ENDMDL
MODEL 5
REMARK VINA RESULT:      -8.6      2.499      4.780
REMARK  Name = 
REMARK  8 active torsions:
REMARK  status: ('A' for Active; 'I' for Inactive)
REMARK    1  A    between atoms: C_1  and  C_2
REMARK    2  A    between atoms: C_6  and  N_7
REMARK    3  A    between atoms: N_7  and  S_8
REMARK    4  A    between atoms: S_8  and  C_11
REMARK    5  A    between atoms: C_13  and  C_14
REMARK    6  A    between atoms: N_16  and  C_17
REMARK    7  A    between atoms: C_22  and  C_23
REMARK    8  A    between atoms: C_26  and  C_27
REMARK                            x       y       z     vdW  Elec       q    Type
REMARK                         _______ _______ _______ _____ _____    ______ ____
ROOT
ATOM      1  C   UNL     1       3.344   5.546  18.568  0.00  0.00    +0.000 A 
ATOM      2  C   UNL     1       2.974   6.850  18.209  0.00  0.00    +0.000 A 
ATOM      3  C   UNL     1       2.164   7.611  19.063  0.00  0.00    +0.000 A 
ATOM      4  C   UNL     1       1.695   7.060  20.258  0.00  0.00    +0.000 A 
ATOM      5  C   UNL     1       2.033   5.752  20.599  0.00  0.00    +0.000 A 
ATOM      6  C   UNL     1       2.857   4.976  19.765  0.00  0.00    +0.000 A 
ATOM      7  C   UNL     1       3.149   3.556  20.173  0.00  0.00    +0.000 C 
ENDROOT
BRANCH   3   8
ATOM      8  C   UNL     1       1.744   8.978  18.649  0.00  0.00    +0.000 C 
ATOM      9  O   UNL     1       2.284   9.493  17.678  0.00  0.00    +0.000 OA
ATOM     10  N   UNL     1       0.795   9.567  19.463  0.00  0.00    +0.000 N 
ATOM     11  H   UNL     1       0.918   9.393  20.453  0.00  0.00    +0.000 HD
BRANCH  10  12
ATOM     12  C   UNL     1       0.296  10.852  19.222  0.00  0.00    +0.000 A 
ATOM     13  N   UNL     1       0.899  11.812  19.958  0.00  0.00    +0.000 NA
ATOM     14  C   UNL     1       0.511  13.087  19.744  0.00  0.00    +0.000 A 
ATOM     15  C   UNL     1      -0.492  13.451  18.865  0.00  0.00    +0.000 A 
ATOM     16  C   UNL     1      -1.157  12.441  18.181  0.00  0.00    +0.000 A 
ATOM     17  C   UNL     1      -0.782  11.104  18.366  0.00  0.00    +0.000 A 
ATOM     18  C   UNL     1      -1.596  10.017  17.727  0.00  0.00    +0.000 C 
ENDBRANCH  10  12
ENDBRANCH   3   8
BRANCH   1  19
ATOM     19  S   UNL     1       4.403   4.580  17.496  0.00  0.00    +0.000 S 
ATOM     20  O   UNL     1       3.563   3.540  16.937  0.00  0.00    +0.000 OA
ATOM     21  O   UNL     1       5.605   4.269  18.237  0.00  0.00    +0.000 OA
BRANCH  19  22
ATOM     22  N   UNL     1       4.784   5.580  16.181  0.00  0.00    +0.000 N 
ATOM     23  H   UNL     1       3.941   6.087  15.906  0.00  0.00    +0.000 HD
BRANCH  22  29
ATOM     24  C   UNL     1       4.925   3.093  11.867  0.00  0.00    +0.000 C 
ATOM     25  C   UNL     1       5.614   3.819  12.985  0.00  0.00    +0.000 A 
ATOM     26  C   UNL     1       7.003   4.007  12.954  0.00  0.00    +0.000 A 
ATOM     27  C   UNL     1       7.648   4.683  13.990  0.00  0.00    +0.000 A 
ATOM     28  C   UNL     1       6.911   5.185  15.067  0.00  0.00    +0.000 A 
ATOM     29  C   UNL     1       5.531   5.022  15.098  0.00  0.00    +0.000 A 
ATOM     30  C   UNL     1       4.881   4.326  14.070  0.00  0.00    +0.000 A 
ENDBRANCH  22  29
ENDBRANCH  19  22
ENDBRANCH   1  19
TORSDOF 5
ENDMDL
MODEL 6
REMARK VINA RESULT:      -8.5      2.367      4.479
REMARK  Name = 
REMARK  8 active torsions:
REMARK  status: ('A' for Active; 'I' for Inactive)
REMARK    1  A    between atoms: C_1  and  C_2
REMARK    2  A    between atoms: C_6  and  N_7
REMARK    3  A    between atoms: N_7  and  S_8
REMARK    4  A    between atoms: S_8  and  C_11
REMARK    5  A    between atoms: C_13  and  C_14
REMARK    6  A    between atoms: N_16  and  C_17
REMARK    7  A    between atoms: C_22  and  C_23
REMARK    8  A    between atoms: C_26  and  C_27
REMARK                            x       y       z     vdW  Elec       q    Type
REMARK                         _______ _______ _______ _____ _____    ______ ____
ROOT
ATOM      1  C   UNL     1       2.541   4.886  18.995  0.00  0.00    +0.000 A 
ATOM      2  C   UNL     1       2.383   6.186  18.494  0.00  0.00    +0.000 A 
ATOM      3  C   UNL     1       1.955   7.218  19.340  0.00  0.00    +0.000 A 
ATOM      4  C   UNL     1       1.652   6.947  20.677  0.00  0.00    +0.000 A 
ATOM      5  C   UNL     1       1.774   5.648  21.168  0.00  0.00    +0.000 A 
ATOM      6  C   UNL     1       2.217   4.601  20.341  0.00  0.00    +0.000 A 
ATOM      7  C   UNL     1       2.287   3.214  20.923  0.00  0.00    +0.000 C 
ENDROOT
BRANCH   3   8
ATOM      8  C   UNL     1       1.751   8.584  18.786  0.00  0.00    +0.000 C 
ATOM      9  O   UNL     1       2.357   8.905  17.770  0.00  0.00    +0.000 OA
ATOM     10  N   UNL     1       0.913   9.395  19.527  0.00  0.00    +0.000 N 
ATOM     11  H   UNL     1       1.016   9.306  20.530  0.00  0.00    +0.000 HD
BRANCH  10  12
ATOM     12  C   UNL     1       0.620  10.711  19.151  0.00  0.00    +0.000 A 
ATOM     13  N   UNL     1       1.540  11.609  19.567  0.00  0.00    +0.000 NA
ATOM     14  C   UNL     1       1.357  12.895  19.198  0.00  0.00    +0.000 A 
ATOM     15  C   UNL     1       0.267  13.341  18.475  0.00  0.00    +0.000 A 
ATOM     16  C   UNL     1      -0.710  12.416  18.131  0.00  0.00    +0.000 A 
ATOM     17  C   UNL     1      -0.557  11.070  18.487  0.00  0.00    +0.000 A 
ATOM     18  C   UNL     1      -1.682  10.110  18.228  0.00  0.00    +0.000 C 
ENDBRANCH  10  12
ENDBRANCH   3   8
BRANCH   1  19
ATOM     19  S   UNL     1       3.116   3.570  17.927  0.00  0.00    +0.000 S 
ATOM     20  O   UNL     1       1.955   2.754  17.637  0.00  0.00    +0.000 OA
ATOM     21  O   UNL     1       4.306   3.010  18.528  0.00  0.00    +0.000 OA
BRANCH  19  22
ATOM     22  N   UNL     1       3.510   4.299  16.448  0.00  0.00    +0.000 N 
ATOM     23  H   UNL     1       3.088   3.752  15.695  0.00  0.00    +0.000 HD
BRANCH  22  29
ATOM     24  C   UNL     1       7.420   7.169  17.582  0.00  0.00    +0.000 C 
ATOM     25  C   UNL     1       6.788   6.075  16.773  0.00  0.00    +0.000 A 
ATOM     26  C   UNL     1       7.540   5.380  15.816  0.00  0.00    +0.000 A 
ATOM     27  C   UNL     1       6.958   4.360  15.063  0.00  0.00    +0.000 A 
ATOM     28  C   UNL     1       5.616   4.019  15.262  0.00  0.00    +0.000 A 
ATOM     29  C   UNL     1       4.867   4.688  16.222  0.00  0.00    +0.000 A 
ATOM     30  C   UNL     1       5.441   5.727  16.967  0.00  0.00    +0.000 A 
ENDBRANCH  22  29
ENDBRANCH  19  22
ENDBRANCH   1  19
TORSDOF 5
ENDMDL
MODEL 7
REMARK VINA RESULT:      -8.5      2.672      4.322
REMARK  Name = 
REMARK  8 active torsions:
REMARK  status: ('A' for Active; 'I' for Inactive)
REMARK    1  A    between atoms: C_1  and  C_2
REMARK    2  A    between atoms: C_6  and  N_7
REMARK    3  A    between atoms: N_7  and  S_8
REMARK    4  A    between atoms: S_8  and  C_11
REMARK    5  A    between atoms: C_13  and  C_14
REMARK    6  A    between atoms: N_16  and  C_17
REMARK    7  A    between atoms: C_22  and  C_23
REMARK    8  A    between atoms: C_26  and  C_27
REMARK                            x       y       z     vdW  Elec       q    Type
REMARK                         _______ _______ _______ _____ _____    ______ ____
ROOT
ATOM      1  C   UNL     1       2.353   4.659  18.783  0.00  0.00    +0.000 A 
ATOM      2  C   UNL     1       2.172   5.945  18.255  0.00  0.00    +0.000 A 
ATOM      3  C   UNL     1       2.051   7.047  19.114  0.00  0.00    +0.000 A 
ATOM      4  C   UNL     1       2.077   6.861  20.498  0.00  0.00    +0.000 A 
ATOM      5  C   UNL     1       2.222   5.578  21.025  0.00  0.00    +0.000 A 
ATOM      6  C   UNL     1       2.360   4.462  20.182  0.00  0.00    +0.000 A 
ATOM      7  C   UNL     1       2.472   3.100  20.816  0.00  0.00    +0.000 C 
ENDROOT
BRANCH   3   8
ATOM      8  C   UNL     1       1.816   8.400  18.541  0.00  0.00    +0.000 C 
ATOM      9  O   UNL     1       2.252   8.652  17.424  0.00  0.00    +0.000 OA
ATOM     10  N   UNL     1       1.155   9.280  19.377  0.00  0.00    +0.000 N 
ATOM     11  H   UNL     1       1.425   9.222  20.352  0.00  0.00    +0.000 HD
BRANCH  10  12
ATOM     12  C   UNL     1       0.861  10.595  18.998  0.00  0.00    +0.000 A 
ATOM     13  N   UNL     1       1.890  11.452  19.180  0.00  0.00    +0.000 NA
ATOM     14  C   UNL     1       1.704  12.730  18.788  0.00  0.00    +0.000 A 
ATOM     15  C   UNL     1       0.516  13.212  18.269  0.00  0.00    +0.000 A 
ATOM     16  C   UNL     1      -0.556  12.334  18.170  0.00  0.00    +0.000 A 
ATOM     17  C   UNL     1      -0.405  10.996  18.559  0.00  0.00    +0.000 A 
ATOM     18  C   UNL     1      -1.606  10.096  18.574  0.00  0.00    +0.000 C 
ENDBRANCH  10  12
ENDBRANCH   3   8
BRANCH   1  19
ATOM     19  S   UNL     1       2.538   3.252  17.692  0.00  0.00    +0.000 S 
ATOM     20  O   UNL     1       2.215   3.732  16.364  0.00  0.00    +0.000 OA
ATOM     21  O   UNL     1       1.834   2.141  18.291  0.00  0.00    +0.000 OA
BRANCH  19  22
ATOM     22  N   UNL     1       4.198   2.914  17.634  0.00  0.00    +0.000 N 
ATOM     23  H   UNL     1       4.441   2.347  18.448  0.00  0.00    +0.000 HD
BRANCH  22  29
ATOM     24  C   UNL     1       7.800   6.014  19.128  0.00  0.00    +0.000 C 
ATOM     25  C   UNL     1       6.869   5.499  18.069  0.00  0.00    +0.000 A 
ATOM     26  C   UNL     1       6.910   6.031  16.773  0.00  0.00    +0.000 A 
ATOM     27  C   UNL     1       6.048   5.555  15.786  0.00  0.00    +0.000 A 
ATOM     28  C   UNL     1       5.137   4.536  16.081  0.00  0.00    +0.000 A 
ATOM     29  C   UNL     1       5.102   3.987  17.357  0.00  0.00    +0.000 A 
ATOM     30  C   UNL     1       5.951   4.476  18.359  0.00  0.00    +0.000 A 
ENDBRANCH  22  29
ENDBRANCH  19  22
ENDBRANCH   1  19
TORSDOF 5
ENDMDL
MODEL 8
REMARK VINA RESULT:      -8.5      2.704      8.044
REMARK  Name = 
REMARK  8 active torsions:
REMARK  status: ('A' for Active; 'I' for Inactive)
REMARK    1  A    between atoms: C_1  and  C_2
REMARK    2  A    between atoms: C_6  and  N_7
REMARK    3  A    between atoms: N_7  and  S_8
REMARK    4  A    between atoms: S_8  and  C_11
REMARK    5  A    between atoms: C_13  and  C_14
REMARK    6  A    between atoms: N_16  and  C_17
REMARK    7  A    between atoms: C_22  and  C_23
REMARK    8  A    between atoms: C_26  and  C_27
REMARK                            x       y       z     vdW  Elec       q    Type
REMARK                         _______ _______ _______ _____ _____    ______ ____
ROOT
ATOM      1  C   UNL     1       2.674   4.197  19.057  0.00  0.00    +0.000 A 
ATOM      2  C   UNL     1       3.497   4.819  18.108  0.00  0.00    +0.000 A 
ATOM      3  C   UNL     1       3.992   4.087  17.019  0.00  0.00    +0.000 A 
ATOM      4  C   UNL     1       3.694   2.727  16.897  0.00  0.00    +0.000 A 
ATOM      5  C   UNL     1       2.904   2.099  17.859  0.00  0.00    +0.000 A 
ATOM      6  C   UNL     1       2.385   2.818  18.950  0.00  0.00    +0.000 A 
ATOM      7  C   UNL     1       1.574   2.071  19.975  0.00  0.00    +0.000 C 
ENDROOT
BRANCH   3   8
ATOM      8  C   UNL     1       4.900   4.748  16.042  0.00  0.00    +0.000 C 
ATOM      9  O   UNL     1       4.992   5.970  16.056  0.00  0.00    +0.000 OA
ATOM     10  N   UNL     1       5.525   3.892  15.156  0.00  0.00    +0.000 N 
ATOM     11  H   UNL     1       4.945   3.133  14.819  0.00  0.00    +0.000 HD
BRANCH  10  12
ATOM     12  C   UNL     1       6.404   4.349  14.167  0.00  0.00    +0.000 A 
ATOM     13  N   UNL     1       7.316   5.236  14.625  0.00  0.00    +0.000 NA
ATOM     14  C   UNL     1       8.234   5.684  13.743  0.00  0.00    +0.000 A 
ATOM     15  C   UNL     1       8.257   5.331  12.407  0.00  0.00    +0.000 A 
ATOM     16  C   UNL     1       7.260   4.485  11.939  0.00  0.00    +0.000 A 
ATOM     17  C   UNL     1       6.290   3.990  12.820  0.00  0.00    +0.000 A 
ATOM     18  C   UNL     1       5.143   3.189  12.276  0.00  0.00    +0.000 C 
ENDBRANCH  10  12
ENDBRANCH   3   8
BRANCH   1  19
ATOM     19  S   UNL     1       2.015   5.134  20.432  0.00  0.00    +0.000 S 
ATOM     20  O   UNL     1       2.556   4.521  21.629  0.00  0.00    +0.000 OA
ATOM     21  O   UNL     1       0.590   5.268  20.225  0.00  0.00    +0.000 OA
BRANCH  19  22
ATOM     22  N   UNL     1       2.750   6.660  20.361  0.00  0.00    +0.000 N 
ATOM     23  H   UNL     1       3.182   6.853  21.266  0.00  0.00    +0.000 HD
BRANCH  22  29
ATOM     24  C   UNL     1      -0.367  10.501  20.946  0.00  0.00    +0.000 C 
ATOM     25  C   UNL     1       0.495   9.632  20.077  0.00  0.00    +0.000 A 
ATOM     26  C   UNL     1       0.624   9.910  18.709  0.00  0.00    +0.000 A 
ATOM     27  C   UNL     1       1.425   9.106  17.898  0.00  0.00    +0.000 A 
ATOM     28  C   UNL     1       2.112   8.018  18.445  0.00  0.00    +0.000 A 
ATOM     29  C   UNL     1       2.007   7.746  19.804  0.00  0.00    +0.000 A 
ATOM     30  C   UNL     1       1.187   8.538  20.620  0.00  0.00    +0.000 A 
ENDBRANCH  22  29
ENDBRANCH  19  22
ENDBRANCH   1  19
TORSDOF 5
ENDMDL
MODEL 9
REMARK VINA RESULT:      -8.4      2.654      4.552
REMARK  Name = 
REMARK  8 active torsions:
REMARK  status: ('A' for Active; 'I' for Inactive)
REMARK    1  A    between atoms: C_1  and  C_2
REMARK    2  A    between atoms: C_6  and  N_7
REMARK    3  A    between atoms: N_7  and  S_8
REMARK    4  A    between atoms: S_8  and  C_11
REMARK    5  A    between atoms: C_13  and  C_14
REMARK    6  A    between atoms: N_16  and  C_17
REMARK    7  A    between atoms: C_22  and  C_23
REMARK    8  A    between atoms: C_26  and  C_27
REMARK                            x       y       z     vdW  Elec       q    Type
REMARK                         _______ _______ _______ _____ _____    ______ ____
ROOT
ATOM      1  C   UNL     1       2.339   4.709  18.839  0.00  0.00    +0.000 A 
ATOM      2  C   UNL     1       2.160   5.993  18.306  0.00  0.00    +0.000 A 
ATOM      3  C   UNL     1       1.996   7.093  19.160  0.00  0.00    +0.000 A 
ATOM      4  C   UNL     1       1.977   6.906  20.545  0.00  0.00    +0.000 A 
ATOM      5  C   UNL     1       2.119   5.625  21.076  0.00  0.00    +0.000 A 
ATOM      6  C   UNL     1       2.301   4.511  20.238  0.00  0.00    +0.000 A 
ATOM      7  C   UNL     1       2.407   3.150  20.874  0.00  0.00    +0.000 C 
ENDROOT
BRANCH   3   8
ATOM      8  C   UNL     1       1.765   8.444  18.580  0.00  0.00    +0.000 C 
ATOM      9  O   UNL     1       2.223   8.697  17.473  0.00  0.00    +0.000 OA
ATOM     10  N   UNL     1       1.080   9.320  19.401  0.00  0.00    +0.000 N 
ATOM     11  H   UNL     1       1.329   9.266  20.381  0.00  0.00    +0.000 HD
BRANCH  10  12
ATOM     12  C   UNL     1       0.785  10.632  19.013  0.00  0.00    +0.000 A 
ATOM     13  N   UNL     1       1.795  11.502  19.241  0.00  0.00    +0.000 NA
ATOM     14  C   UNL     1       1.608  12.779  18.845  0.00  0.00    +0.000 A 
ATOM     15  C   UNL     1       0.438  13.247  18.278  0.00  0.00    +0.000 A 
ATOM     16  C   UNL     1      -0.617  12.356  18.131  0.00  0.00    +0.000 A 
ATOM     17  C   UNL     1      -0.466  11.019  18.521  0.00  0.00    +0.000 A 
ATOM     18  C   UNL     1      -1.654  10.103  18.483  0.00  0.00    +0.000 C 
ENDBRANCH  10  12
ENDBRANCH   3   8
BRANCH   1  19
ATOM     19  S   UNL     1       2.579   3.306  17.754  0.00  0.00    +0.000 S 
ATOM     20  O   UNL     1       2.409   3.809  16.406  0.00  0.00    +0.000 OA
ATOM     21  O   UNL     1       1.776   2.218  18.265  0.00  0.00    +0.000 OA
BRANCH  19  22
ATOM     22  N   UNL     1       4.222   2.903  17.859  0.00  0.00    +0.000 N 
ATOM     23  H   UNL     1       4.400   2.506  18.783  0.00  0.00    +0.000 HD
BRANCH  22  29
ATOM     24  C   UNL     1       6.978   4.898  14.221  0.00  0.00    +0.000 C 
ATOM     25  C   UNL     1       6.530   4.855  15.653  0.00  0.00    +0.000 A 
ATOM     26  C   UNL     1       7.015   5.794  16.573  0.00  0.00    +0.000 A 
ATOM     27  C   UNL     1       6.599   5.759  17.904  0.00  0.00    +0.000 A 
ATOM     28  C   UNL     1       5.689   4.787  18.331  0.00  0.00    +0.000 A 
ATOM     29  C   UNL     1       5.187   3.863  17.421  0.00  0.00    +0.000 A 
ATOM     30  C   UNL     1       5.616   3.881  16.088  0.00  0.00    +0.000 A 
ENDBRANCH  22  29
ENDBRANCH  19  22
ENDBRANCH   1  19
TORSDOF 5
ENDMDL
