MODEL 1
REMARK VINA RESULT:      -9.5      0.000      0.000
REMARK  Name = 
REMARK  5 active torsions:
REMARK  status: ('A' for Active; 'I' for Inactive)
REMARK    1  A    between atoms: C_1  and  N_2
REMARK    2  A    between atoms: C_6  and  C_7
REMARK    3  A    between atoms: C_7  and  C_8
REMARK    4  A    between atoms: C_8  and  C_9
REMARK    5  A    between atoms: C_13  and  N_14
REMARK                            x       y       z     vdW  Elec       q    Type
REMARK                         _______ _______ _______ _____ _____    ______ ____
ROOT
ATOM      1  C   UNL     1       4.514   4.803  17.210  0.00  0.00    +0.000 A 
ATOM      2  C   UNL     1       3.773   3.621  17.032  0.00  0.00    +0.000 A 
ATOM      3  C   UNL     1       2.471   3.515  17.499  0.00  0.00    +0.000 A 
ATOM      4  C   UNL     1       1.893   4.582  18.190  0.00  0.00    +0.000 A 
ATOM      5  C   UNL     1       2.574   5.790  18.376  0.00  0.00    +0.000 A 
ATOM      6  C   UNL     1       3.858   5.886  17.837  0.00  0.00    +0.000 A 
ENDROOT
BRANCH   5   7
ATOM      7  N   UNL     1       1.996   6.892  19.071  0.00  0.00    +0.000 N 
ATOM      8  C   UNL     1       1.563   6.808  20.509  0.00  0.00    +0.000 C 
ATOM      9  C   UNL     1       1.136   8.234  20.796  0.00  0.00    +0.000 A 
ATOM     10  C   UNL     1       1.374   8.971  19.616  0.00  0.00    +0.000 A 
ATOM     11  C   UNL     1       0.970  10.247  19.820  0.00  0.00    +0.000 A 
ATOM     12  N   UNL     1       0.560  10.161  21.082  0.00  0.00    +0.000 N 
ATOM     13  C   UNL     1       0.637   8.980  21.842  0.00  0.00    +0.000 A 
ATOM     14  C   UNL     1       0.088   9.854  22.924  0.00  0.00    +0.000 C 
ATOM     15  C   UNL     1      -0.042  11.014  21.994  0.00  0.00    +0.000 C 
ATOM     16  C   UNL     1       1.935   8.196  18.558  0.00  0.00    +0.000 C 
ATOM     17  O   UNL     1       2.285   8.651  17.480  0.00  0.00    +0.000 OA
ENDBRANCH   5   7
BRANCH   1  18
ATOM     18  C   UNL     1       6.046   4.896  16.794  0.00  0.00    +0.000 C 
ATOM     19  C   UNL     1       6.700   6.302  16.690  0.00  0.00    +0.000 C 
ATOM     20  O   UNL     1       7.544   6.073  17.841  0.00  0.00    +0.000 OA
ATOM     21  C   UNL     1       7.027   4.739  18.007  0.00  0.00    +0.000 C 
BRANCH  18  22
ATOM     22  C   UNL     1       6.387   3.952  15.607  0.00  0.00    +0.000 C 
BRANCH  22  28
ATOM     23  C   UNL     1       5.876   3.312  12.320  0.00  0.00    +0.000 C 
ATOM     24  N   UNL     1       6.729   4.250  13.010  0.00  0.00    +0.000 N 
ATOM     25  C   UNL     1       7.561   5.070  12.293  0.00  0.00    +0.000 A 
ATOM     26  N   UNL     1       8.281   5.799  13.103  0.00  0.00    +0.000 NA
ATOM     27  N   UNL     1       7.916   5.472  14.382  0.00  0.00    +0.000 NA
ATOM     28  C   UNL     1       6.958   4.560  14.347  0.00  0.00    +0.000 A 
ENDBRANCH  22  28
ENDBRANCH  18  22
ENDBRANCH   1  18
TORSDOF 4
ENDMDL
MODEL 2
REMARK VINA RESULT:      -9.3      1.203      1.782
REMARK  Name = 
REMARK  5 active torsions:
REMARK  status: ('A' for Active; 'I' for Inactive)
REMARK    1  A    between atoms: C_1  and  N_2
REMARK    2  A    between atoms: C_6  and  C_7
REMARK    3  A    between atoms: C_7  and  C_8
REMARK    4  A    between atoms: C_8  and  C_9
REMARK    5  A    between atoms: C_13  and  N_14
REMARK                            x       y       z     vdW  Elec       q    Type
REMARK                         _______ _______ _______ _____ _____    ______ ____
ROOT
ATOM      1  C   UNL     1       4.565   5.224  17.279  0.00  0.00    +0.000 A 
ATOM      2  C   UNL     1       3.724   4.096  17.252  0.00  0.00    +0.000 A 
ATOM      3  C   UNL     1       2.404   4.177  17.671  0.00  0.00    +0.000 A 
ATOM      4  C   UNL     1       1.905   5.385  18.163  0.00  0.00    +0.000 A 
ATOM      5  C   UNL     1       2.688   6.545  18.191  0.00  0.00    +0.000 A 
ATOM      6  C   UNL     1       3.991   6.445  17.701  0.00  0.00    +0.000 A 
ENDROOT
BRANCH   5   7
ATOM      7  N   UNL     1       2.192   7.788  18.681  0.00  0.00    +0.000 N 
ATOM      8  C   UNL     1       1.992   8.989  17.798  0.00  0.00    +0.000 C 
ATOM      9  C   UNL     1       1.357   9.982  18.751  0.00  0.00    +0.000 A 
ATOM     10  C   UNL     1       1.217   9.320  19.990  0.00  0.00    +0.000 A 
ATOM     11  C   UNL     1       0.684  10.188  20.881  0.00  0.00    +0.000 A 
ATOM     12  N   UNL     1       0.538  11.257  20.105  0.00  0.00    +0.000 N 
ATOM     13  C   UNL     1       0.874  11.273  18.739  0.00  0.00    +0.000 A 
ATOM     14  C   UNL     1       0.340  12.667  18.808  0.00  0.00    +0.000 C 
ATOM     15  C   UNL     1       0.119  12.567  20.280  0.00  0.00    +0.000 C 
ATOM     16  C   UNL     1       1.677   7.969  19.974  0.00  0.00    +0.000 C 
ATOM     17  O   UNL     1       1.580   7.196  20.915  0.00  0.00    +0.000 OA
ENDBRANCH   5   7
BRANCH   1  18
ATOM     18  C   UNL     1       6.111   5.119  16.923  0.00  0.00    +0.000 C 
ATOM     19  C   UNL     1       6.937   6.430  16.819  0.00  0.00    +0.000 C 
ATOM     20  O   UNL     1       7.702   6.126  18.008  0.00  0.00    +0.000 OA
ATOM     21  C   UNL     1       7.019   4.870  18.177  0.00  0.00    +0.000 C 
BRANCH  18  22
ATOM     22  C   UNL     1       6.377   4.112  15.768  0.00  0.00    +0.000 C 
BRANCH  22  28
ATOM     23  C   UNL     1       5.814   3.311  12.525  0.00  0.00    +0.000 C 
ATOM     24  N   UNL     1       6.693   4.267  13.156  0.00  0.00    +0.000 N 
ATOM     25  C   UNL     1       7.532   5.031  12.387  0.00  0.00    +0.000 A 
ATOM     26  N   UNL     1       8.277   5.787  13.150  0.00  0.00    +0.000 NA
ATOM     27  N   UNL     1       7.921   5.535  14.448  0.00  0.00    +0.000 NA
ATOM     28  C   UNL     1       6.944   4.642  14.471  0.00  0.00    +0.000 A 
ENDBRANCH  22  28
ENDBRANCH  18  22
ENDBRANCH   1  18
TORSDOF 4
ENDMDL
MODEL 3
REMARK VINA RESULT:      -8.8      0.780      1.309
REMARK  Name = 
REMARK  5 active torsions:
REMARK  status: ('A' for Active; 'I' for Inactive)
REMARK    1  A    between atoms: C_1  and  N_2
REMARK    2  A    between atoms: C_6  and  C_7
REMARK    3  A    between atoms: C_7  and  C_8
REMARK    4  A    between atoms: C_8  and  C_9
REMARK    5  A    between atoms: C_13  and  N_14
REMARK                            x       y       z     vdW  Elec       q    Type
REMARK                         _______ _______ _______ _____ _____    ______ ____
ROOT
ATOM      1  C   UNL     1       4.522   5.116  17.127  0.00  0.00    +0.000 A 
ATOM      2  C   UNL     1       3.938   3.836  17.098  0.00  0.00    +0.000 A 
ATOM      3  C   UNL     1       2.737   3.583  17.746  0.00  0.00    +0.000 A 
ATOM      4  C   UNL     1       2.111   4.600  18.469  0.00  0.00    +0.000 A 
ATOM      5  C   UNL     1       2.633   5.898  18.513  0.00  0.00    +0.000 A 
ATOM      6  C   UNL     1       3.808   6.135  17.797  0.00  0.00    +0.000 A 
ENDROOT
BRANCH   5   7
ATOM      7  N   UNL     1       2.003   6.949  19.239  0.00  0.00    +0.000 N 
ATOM      8  C   UNL     1       1.589   6.808  20.679  0.00  0.00    +0.000 C 
ATOM      9  C   UNL     1       1.088   8.201  21.003  0.00  0.00    +0.000 A 
ATOM     10  C   UNL     1       1.273   8.978  19.839  0.00  0.00    +0.000 A 
ATOM     11  C   UNL     1       0.802  10.225  20.078  0.00  0.00    +0.000 A 
ATOM     12  N   UNL     1       0.410  10.086  21.341  0.00  0.00    +0.000 N 
ATOM     13  C   UNL     1       0.559   8.894  22.071  0.00  0.00    +0.000 A 
ATOM     14  C   UNL     1      -0.027   9.710  23.178  0.00  0.00    +0.000 C 
ATOM     15  C   UNL     1      -0.228  10.883  22.279  0.00  0.00    +0.000 C 
ATOM     16  C   UNL     1       1.865   8.259  18.758  0.00  0.00    +0.000 C 
ATOM     17  O   UNL     1       2.179   8.759  17.689  0.00  0.00    +0.000 OA
ENDBRANCH   5   7
BRANCH   1  18
ATOM     18  C   UNL     1       5.957   5.390  16.499  0.00  0.00    +0.000 C 
ATOM     19  C   UNL     1       7.003   6.159  17.353  0.00  0.00    +0.000 C 
ATOM     20  O   UNL     1       7.843   4.992  17.503  0.00  0.00    +0.000 OA
ATOM     21  C   UNL     1       6.955   4.197  16.694  0.00  0.00    +0.000 C 
BRANCH  18  22
ATOM     22  C   UNL     1       5.867   5.875  15.025  0.00  0.00    +0.000 C 
BRANCH  22  28
ATOM     23  C   UNL     1       8.428   5.689  12.816  0.00  0.00    +0.000 C 
ATOM     24  N   UNL     1       7.260   4.868  13.027  0.00  0.00    +0.000 N 
ATOM     25  C   UNL     1       7.025   3.794  12.208  0.00  0.00    +0.000 A 
ATOM     26  N   UNL     1       5.897   3.221  12.530  0.00  0.00    +0.000 NA
ATOM     27  N   UNL     1       5.374   3.913  13.590  0.00  0.00    +0.000 NA
ATOM     28  C   UNL     1       6.198   4.894  13.925  0.00  0.00    +0.000 A 
ENDBRANCH  22  28
ENDBRANCH  18  22
ENDBRANCH   1  18
TORSDOF 4
ENDMDL
MODEL 4
REMARK VINA RESULT:      -8.7      2.060      3.367
REMARK  Name = 
REMARK  5 active torsions:
REMARK  status: ('A' for Active; 'I' for Inactive)
REMARK    1  A    between atoms: C_1  and  N_2
REMARK    2  A    between atoms: C_6  and  C_7
REMARK    3  A    between atoms: C_7  and  C_8
REMARK    4  A    between atoms: C_8  and  C_9
REMARK    5  A    between atoms: C_13  and  N_14
REMARK                            x       y       z     vdW  Elec       q    Type
REMARK                         _______ _______ _______ _____ _____    ______ ____
ROOT
ATOM      1  C   UNL     1       4.330   4.481  16.873  0.00  0.00    +0.000 A 
ATOM      2  C   UNL     1       3.621   3.315  17.216  0.00  0.00    +0.000 A 
ATOM      3  C   UNL     1       2.497   3.373  18.026  0.00  0.00    +0.000 A 
ATOM      4  C   UNL     1       2.076   4.601  18.541  0.00  0.00    +0.000 A 
ATOM      5  C   UNL     1       2.727   5.796  18.214  0.00  0.00    +0.000 A 
ATOM      6  C   UNL     1       3.816   5.709  17.345  0.00  0.00    +0.000 A 
ENDROOT
BRANCH   5   7
ATOM      7  N   UNL     1       2.306   7.058  18.725  0.00  0.00    +0.000 N 
ATOM      8  C   UNL     1       2.153   8.276  17.856  0.00  0.00    +0.000 C 
ATOM      9  C   UNL     1       1.589   9.292  18.829  0.00  0.00    +0.000 A 
ATOM     10  C   UNL     1       1.437   8.626  20.065  0.00  0.00    +0.000 A 
ATOM     11  C   UNL     1       0.968   9.512  20.974  0.00  0.00    +0.000 A 
ATOM     12  N   UNL     1       0.863  10.595  20.209  0.00  0.00    +0.000 N 
ATOM     13  C   UNL     1       1.174  10.606  18.837  0.00  0.00    +0.000 A 
ATOM     14  C   UNL     1       0.715  12.026  18.929  0.00  0.00    +0.000 C 
ATOM     15  C   UNL     1       0.516  11.923  20.404  0.00  0.00    +0.000 C 
ATOM     16  C   UNL     1       1.826   7.253  20.028  0.00  0.00    +0.000 C 
ATOM     17  O   UNL     1       1.706   6.478  20.964  0.00  0.00    +0.000 OA
ENDBRANCH   5   7
BRANCH   1  18
ATOM     18  C   UNL     1       5.691   4.416  16.053  0.00  0.00    +0.000 C 
ATOM     19  C   UNL     1       5.819   3.366  14.914  0.00  0.00    +0.000 C 
ATOM     20  O   UNL     1       5.827   4.380  13.884  0.00  0.00    +0.000 OA
ATOM     21  C   UNL     1       5.743   5.434  14.861  0.00  0.00    +0.000 C 
BRANCH  18  22
ATOM     22  C   UNL     1       6.936   4.497  16.979  0.00  0.00    +0.000 C 
BRANCH  22  28
ATOM     23  C   UNL     1       8.023   5.723  19.945  0.00  0.00    +0.000 C 
ATOM     24  N   UNL     1       7.851   6.325  18.645  0.00  0.00    +0.000 N 
ATOM     25  C   UNL     1       8.120   7.658  18.470  0.00  0.00    +0.000 A 
ATOM     26  N   UNL     1       7.850   8.014  17.243  0.00  0.00    +0.000 NA
ATOM     27  N   UNL     1       7.406   6.900  16.581  0.00  0.00    +0.000 NA
ATOM     28  C   UNL     1       7.429   5.862  17.403  0.00  0.00    +0.000 A 
ENDBRANCH  22  28
ENDBRANCH  18  22
ENDBRANCH   1  18
TORSDOF 4
ENDMDL
MODEL 5
REMARK VINA RESULT:      -8.7      2.885      4.611
REMARK  Name = 
REMARK  5 active torsions:
REMARK  status: ('A' for Active; 'I' for Inactive)
REMARK    1  A    between atoms: C_1  and  N_2
REMARK    2  A    between atoms: C_6  and  C_7
REMARK    3  A    between atoms: C_7  and  C_8
REMARK    4  A    between atoms: C_8  and  C_9
REMARK    5  A    between atoms: C_13  and  N_14
REMARK                            x       y       z     vdW  Elec       q    Type
REMARK                         _______ _______ _______ _____ _____    ______ ____
ROOT
ATOM      1  C   UNL     1       2.431   6.260  19.225  0.00  0.00    +0.000 A 
ATOM      2  C   UNL     1       2.813   6.659  17.931  0.00  0.00    +0.000 A 
ATOM      3  C   UNL     1       2.603   7.958  17.491  0.00  0.00    +0.000 A 
ATOM      4  C   UNL     1       1.970   8.880  18.328  0.00  0.00    +0.000 A 
ATOM      5  C   UNL     1       1.590   8.546  19.633  0.00  0.00    +0.000 A 
ATOM      6  C   UNL     1       1.874   7.250  20.066  0.00  0.00    +0.000 A 
ENDROOT
BRANCH   5   7
ATOM      7  N   UNL     1       0.950   9.476  20.502  0.00  0.00    +0.000 N 
ATOM      8  C   UNL     1       1.129  10.964  20.373  0.00  0.00    +0.000 C 
ATOM      9  C   UNL     1       0.176  11.492  21.427  0.00  0.00    +0.000 A 
ATOM     10  C   UNL     1      -0.452  10.366  22.002  0.00  0.00    +0.000 A 
ATOM     11  C   UNL     1      -1.288  10.795  22.977  0.00  0.00    +0.000 A 
ATOM     12  N   UNL     1      -1.103  12.108  22.881  0.00  0.00    +0.000 N 
ATOM     13  C   UNL     1      -0.250  12.701  21.933  0.00  0.00    +0.000 A 
ATOM     14  C   UNL     1      -0.755  13.971  22.539  0.00  0.00    +0.000 C 
ATOM     15  C   UNL     1      -1.545  13.229  23.564  0.00  0.00    +0.000 C 
ATOM     16  C   UNL     1      -0.035   9.124  21.436  0.00  0.00    +0.000 C 
ATOM     17  O   UNL     1      -0.506   8.038  21.735  0.00  0.00    +0.000 OA
ENDBRANCH   5   7
BRANCH   1  18
ATOM     18  C   UNL     1       2.548   4.747  19.697  0.00  0.00    +0.000 C 
ATOM     19  C   UNL     1       2.502   4.442  21.220  0.00  0.00    +0.000 C 
ATOM     20  O   UNL     1       1.216   3.788  21.123  0.00  0.00    +0.000 OA
ATOM     21  C   UNL     1       1.175   3.990  19.697  0.00  0.00    +0.000 C 
BRANCH  18  22
ATOM     22  C   UNL     1       3.666   3.981  18.934  0.00  0.00    +0.000 C 
BRANCH  22  28
ATOM     23  C   UNL     1       5.719   4.750  16.351  0.00  0.00    +0.000 C 
ATOM     24  N   UNL     1       5.860   4.880  17.782  0.00  0.00    +0.000 N 
ATOM     25  C   UNL     1       7.026   5.371  18.309  0.00  0.00    +0.000 A 
ATOM     26  N   UNL     1       6.970   5.357  19.614  0.00  0.00    +0.000 NA
ATOM     27  N   UNL     1       5.742   4.863  19.966  0.00  0.00    +0.000 NA
ATOM     28  C   UNL     1       5.045   4.598  18.872  0.00  0.00    +0.000 A 
ENDBRANCH  22  28
ENDBRANCH  18  22
ENDBRANCH   1  18
TORSDOF 4
ENDMDL
MODEL 6
REMARK VINA RESULT:      -8.6      1.871      2.985
REMARK  Name = 
REMARK  5 active torsions:
REMARK  status: ('A' for Active; 'I' for Inactive)
REMARK    1  A    between atoms: C_1  and  N_2
REMARK    2  A    between atoms: C_6  and  C_7
REMARK    3  A    between atoms: C_7  and  C_8
REMARK    4  A    between atoms: C_8  and  C_9
REMARK    5  A    between atoms: C_13  and  N_14
REMARK                            x       y       z     vdW  Elec       q    Type
REMARK                         _______ _______ _______ _____ _____    ______ ____
ROOT
ATOM      1  C   UNL     1       4.503   4.214  17.214  0.00  0.00    +0.000 A 
ATOM      2  C   UNL     1       4.138   2.939  17.684  0.00  0.00    +0.000 A 
ATOM      3  C   UNL     1       3.163   2.788  18.659  0.00  0.00    +0.000 A 
ATOM      4  C   UNL     1       2.555   3.917  19.214  0.00  0.00    +0.000 A 
ATOM      5  C   UNL     1       2.862   5.208  18.769  0.00  0.00    +0.000 A 
ATOM      6  C   UNL     1       3.800   5.321  17.741  0.00  0.00    +0.000 A 
ENDROOT
BRANCH   5   7
ATOM      7  N   UNL     1       2.245   6.370  19.318  0.00  0.00    +0.000 N 
ATOM      8  C   UNL     1       1.705   6.416  20.721  0.00  0.00    +0.000 C 
ATOM      9  C   UNL     1       1.274   7.864  20.848  0.00  0.00    +0.000 A 
ATOM     10  C   UNL     1       1.608   8.492  19.629  0.00  0.00    +0.000 A 
ATOM     11  C   UNL     1       1.205   9.783  19.688  0.00  0.00    +0.000 A 
ATOM     12  N   UNL     1       0.700   9.812  20.918  0.00  0.00    +0.000 N 
ATOM     13  C   UNL     1       0.706   8.702  21.783  0.00  0.00    +0.000 A 
ATOM     14  C   UNL     1       0.087   9.671  22.738  0.00  0.00    +0.000 C 
ATOM     15  C   UNL     1       0.041  10.745  21.703  0.00  0.00    +0.000 C 
ATOM     16  C   UNL     1       2.238   7.623  18.688  0.00  0.00    +0.000 C 
ATOM     17  O   UNL     1       2.673   7.980  17.605  0.00  0.00    +0.000 OA
ENDBRANCH   5   7
BRANCH   1  18
ATOM     18  C   UNL     1       5.705   4.412  16.192  0.00  0.00    +0.000 C 
ATOM     19  C   UNL     1       5.736   3.535  14.909  0.00  0.00    +0.000 C 
ATOM     20  O   UNL     1       5.474   4.664  14.045  0.00  0.00    +0.000 OA
ATOM     21  C   UNL     1       5.458   5.570  15.164  0.00  0.00    +0.000 C 
BRANCH  18  22
ATOM     22  C   UNL     1       7.076   4.520  16.915  0.00  0.00    +0.000 C 
BRANCH  22  28
ATOM     23  C   UNL     1       7.981   5.697  19.960  0.00  0.00    +0.000 C 
ATOM     24  N   UNL     1       7.878   6.322  18.664  0.00  0.00    +0.000 N 
ATOM     25  C   UNL     1       8.146   7.660  18.530  0.00  0.00    +0.000 A 
ATOM     26  N   UNL     1       7.943   8.038  17.296  0.00  0.00    +0.000 NA
ATOM     27  N   UNL     1       7.547   6.933  16.590  0.00  0.00    +0.000 NA
ATOM     28  C   UNL     1       7.532   5.880  17.392  0.00  0.00    +0.000 A 
ENDBRANCH  22  28
ENDBRANCH  18  22
ENDBRANCH   1  18
TORSDOF 4
ENDMDL
MODEL 7
REMARK VINA RESULT:      -8.6      3.550      8.974
REMARK  Name = 
REMARK  5 active torsions:
REMARK  status: ('A' for Active; 'I' for Inactive)
REMARK    1  A    between atoms: C_1  and  N_2
REMARK    2  A    between atoms: C_6  and  C_7
REMARK    3  A    between atoms: C_7  and  C_8
REMARK    4  A    between atoms: C_8  and  C_9
REMARK    5  A    between atoms: C_13  and  N_14
REMARK                            x       y       z     vdW  Elec       q    Type
REMARK                         _______ _______ _______ _____ _____    ______ ____
ROOT
ATOM      1  C   UNL     1      -0.295  10.265  20.073  0.00  0.00    +0.000 A 
ATOM      2  C   UNL     1      -0.194  10.263  21.477  0.00  0.00    +0.000 A 
ATOM      3  C   UNL     1       0.685   9.410  22.129  0.00  0.00    +0.000 A 
ATOM      4  C   UNL     1       1.458   8.512  21.390  0.00  0.00    +0.000 A 
ATOM      5  C   UNL     1       1.416   8.487  19.991  0.00  0.00    +0.000 A 
ATOM      6  C   UNL     1       0.570   9.403  19.364  0.00  0.00    +0.000 A 
ENDROOT
BRANCH   5   7
ATOM      7  N   UNL     1       2.204   7.583  19.221  0.00  0.00    +0.000 N 
ATOM      8  C   UNL     1       2.994   8.016  18.017  0.00  0.00    +0.000 C 
ATOM      9  C   UNL     1       3.724   6.742  17.641  0.00  0.00    +0.000 A 
ATOM     10  C   UNL     1       3.361   5.771  18.599  0.00  0.00    +0.000 A 
ATOM     11  C   UNL     1       3.967   4.604  18.276  0.00  0.00    +0.000 A 
ATOM     12  N   UNL     1       4.638   4.984  17.193  0.00  0.00    +0.000 N 
ATOM     13  C   UNL     1       4.622   6.299  16.693  0.00  0.00    +0.000 A 
ATOM     14  C   UNL     1       5.586   5.740  15.697  0.00  0.00    +0.000 C 
ATOM     15  C   UNL     1       5.446   4.363  16.253  0.00  0.00    +0.000 C 
ATOM     16  C   UNL     1       2.468   6.258  19.600  0.00  0.00    +0.000 C 
ATOM     17  O   UNL     1       2.089   5.607  20.561  0.00  0.00    +0.000 OA
ENDBRANCH   5   7
BRANCH   1  18
ATOM     18  C   UNL     1      -1.385  11.144  19.320  0.00  0.00    +0.000 C 
ATOM     19  C   UNL     1      -1.905  12.433  20.014  0.00  0.00    +0.000 C 
ATOM     20  O   UNL     1      -1.266  13.297  19.048  0.00  0.00    +0.000 OA
ATOM     21  C   UNL     1      -0.762  12.168  18.309  0.00  0.00    +0.000 C 
BRANCH  18  22
ATOM     22  C   UNL     1      -2.506  10.271  18.690  0.00  0.00    +0.000 C 
BRANCH  22  28
ATOM     23  C   UNL     1      -5.007  11.920  17.107  0.00  0.00    +0.000 C 
ATOM     24  N   UNL     1      -3.890  11.145  16.623  0.00  0.00    +0.000 N 
ATOM     25  C   UNL     1      -3.731  10.946  15.276  0.00  0.00    +0.000 A 
ATOM     26  N   UNL     1      -2.698  10.178  15.053  0.00  0.00    +0.000 NA
ATOM     27  N   UNL     1      -2.148   9.870  16.269  0.00  0.00    +0.000 NA
ATOM     28  C   UNL     1      -2.836  10.469  17.228  0.00  0.00    +0.000 A 
ENDBRANCH  22  28
ENDBRANCH  18  22
ENDBRANCH   1  18
TORSDOF 4
ENDMDL
MODEL 8
REMARK VINA RESULT:      -8.5      2.751      4.238
REMARK  Name = 
REMARK  5 active torsions:
REMARK  status: ('A' for Active; 'I' for Inactive)
REMARK    1  A    between atoms: C_1  and  N_2
REMARK    2  A    between atoms: C_6  and  C_7
REMARK    3  A    between atoms: C_7  and  C_8
REMARK    4  A    between atoms: C_8  and  C_9
REMARK    5  A    between atoms: C_13  and  N_14
REMARK                            x       y       z     vdW  Elec       q    Type
REMARK                         _______ _______ _______ _____ _____    ______ ____
ROOT
ATOM      1  C   UNL     1       2.814   6.138  18.914  0.00  0.00    +0.000 A 
ATOM      2  C   UNL     1       3.563   6.552  17.797  0.00  0.00    +0.000 A 
ATOM      3  C   UNL     1       3.446   7.840  17.295  0.00  0.00    +0.000 A 
ATOM      4  C   UNL     1       2.546   8.734  17.880  0.00  0.00    +0.000 A 
ATOM      5  C   UNL     1       1.794   8.385  19.007  0.00  0.00    +0.000 A 
ATOM      6  C   UNL     1       1.984   7.103  19.527  0.00  0.00    +0.000 A 
ENDROOT
BRANCH   5   7
ATOM      7  N   UNL     1       0.878   9.287  19.622  0.00  0.00    +0.000 N 
ATOM      8  C   UNL     1       1.002   9.719  21.057  0.00  0.00    +0.000 C 
ATOM      9  C   UNL     1      -0.113  10.739  21.180  0.00  0.00    +0.000 A 
ATOM     10  C   UNL     1      -0.713  10.835  19.906  0.00  0.00    +0.000 A 
ATOM     11  C   UNL     1      -1.741  11.713  19.982  0.00  0.00    +0.000 A 
ATOM     12  N   UNL     1      -1.647  12.068  21.260  0.00  0.00    +0.000 N 
ATOM     13  C   UNL     1      -0.656  11.577  22.129  0.00  0.00    +0.000 A 
ATOM     14  C   UNL     1      -1.305  12.507  23.104  0.00  0.00    +0.000 C 
ATOM     15  C   UNL     1      -2.368  12.877  22.125  0.00  0.00    +0.000 C 
ATOM     16  C   UNL     1      -0.110   9.996  18.922  0.00  0.00    +0.000 C 
ATOM     17  O   UNL     1      -0.425   9.981  17.742  0.00  0.00    +0.000 OA
ENDBRANCH   5   7
BRANCH   1  18
ATOM     18  C   UNL     1       2.843   4.632  19.423  0.00  0.00    +0.000 C 
ATOM     19  C   UNL     1       2.590   4.355  20.931  0.00  0.00    +0.000 C 
ATOM     20  O   UNL     1       1.317   3.719  20.674  0.00  0.00    +0.000 OA
ATOM     21  C   UNL     1       1.469   3.896  19.253  0.00  0.00    +0.000 C 
BRANCH  18  22
ATOM     22  C   UNL     1       4.038   3.836  18.827  0.00  0.00    +0.000 C 
BRANCH  22  28
ATOM     23  C   UNL     1       6.372   4.329  16.422  0.00  0.00    +0.000 C 
ATOM     24  N   UNL     1       6.342   4.641  17.831  0.00  0.00    +0.000 N 
ATOM     25  C   UNL     1       7.433   5.224  18.423  0.00  0.00    +0.000 A 
ATOM     26  N   UNL     1       7.223   5.372  19.704  0.00  0.00    +0.000 NA
ATOM     27  N   UNL     1       5.968   4.894  19.971  0.00  0.00    +0.000 NA
ATOM     28  C   UNL     1       5.407   4.476  18.847  0.00  0.00    +0.000 A 
ENDBRANCH  22  28
ENDBRANCH  18  22
ENDBRANCH   1  18
TORSDOF 4
ENDMDL
MODEL 9
REMARK VINA RESULT:      -8.4      2.694      4.241
REMARK  Name = 
REMARK  5 active torsions:
REMARK  status: ('A' for Active; 'I' for Inactive)
REMARK    1  A    between atoms: C_1  and  N_2
REMARK    2  A    between atoms: C_6  and  C_7
REMARK    3  A    between atoms: C_7  and  C_8
REMARK    4  A    between atoms: C_8  and  C_9
REMARK    5  A    between atoms: C_13  and  N_14
REMARK                            x       y       z     vdW  Elec       q    Type
REMARK                         _______ _______ _______ _____ _____    ______ ____
ROOT
ATOM      1  C   UNL     1       2.866   5.952  18.628  0.00  0.00    +0.000 A 
ATOM      2  C   UNL     1       3.510   6.411  17.464  0.00  0.00    +0.000 A 
ATOM      3  C   UNL     1       3.412   7.736  17.067  0.00  0.00    +0.000 A 
ATOM      4  C   UNL     1       2.633   8.627  17.809  0.00  0.00    +0.000 A 
ATOM      5  C   UNL     1       1.990   8.232  18.988  0.00  0.00    +0.000 A 
ATOM      6  C   UNL     1       2.163   6.908  19.394  0.00  0.00    +0.000 A 
ENDROOT
BRANCH   5   7
ATOM      7  N   UNL     1       1.198   9.130  19.761  0.00  0.00    +0.000 N 
ATOM      8  C   UNL     1       0.323  10.183  19.140  0.00  0.00    +0.000 C 
ATOM      9  C   UNL     1      -0.372  10.774  20.350  0.00  0.00    +0.000 A 
ATOM     10  C   UNL     1       0.087  10.050  21.472  0.00  0.00    +0.000 A 
ATOM     11  C   UNL     1      -0.485  10.573  22.582  0.00  0.00    +0.000 A 
ATOM     12  N   UNL     1      -1.234  11.523  22.031  0.00  0.00    +0.000 N 
ATOM     13  C   UNL     1      -1.303  11.747  20.644  0.00  0.00    +0.000 A 
ATOM     14  C   UNL     1      -2.298  12.789  21.043  0.00  0.00    +0.000 C 
ATOM     15  C   UNL     1      -2.066  12.530  22.494  0.00  0.00    +0.000 C 
ATOM     16  C   UNL     1       1.014   9.015  21.147  0.00  0.00    +0.000 C 
ATOM     17  O   UNL     1       1.476   8.225  21.956  0.00  0.00    +0.000 OA
ENDBRANCH   5   7
BRANCH   1  18
ATOM     18  C   UNL     1       2.866   4.412  19.027  0.00  0.00    +0.000 C 
ATOM     19  C   UNL     1       2.487   4.026  20.483  0.00  0.00    +0.000 C 
ATOM     20  O   UNL     1       1.247   3.406  20.072  0.00  0.00    +0.000 OA
ATOM     21  C   UNL     1       1.518   3.686  18.686  0.00  0.00    +0.000 C 
BRANCH  18  22
ATOM     22  C   UNL     1       4.116   3.667  18.481  0.00  0.00    +0.000 C 
BRANCH  22  28
ATOM     23  C   UNL     1       6.567   4.313  16.234  0.00  0.00    +0.000 C 
ATOM     24  N   UNL     1       6.449   4.568  17.650  0.00  0.00    +0.000 N 
ATOM     25  C   UNL     1       7.488   5.154  18.326  0.00  0.00    +0.000 A 
ATOM     26  N   UNL     1       7.203   5.246  19.597  0.00  0.00    +0.000 NA
ATOM     27  N   UNL     1       5.948   4.727  19.773  0.00  0.00    +0.000 NA
ATOM     28  C   UNL     1       5.464   4.339  18.604  0.00  0.00    +0.000 A 
ENDBRANCH  22  28
ENDBRANCH  18  22
ENDBRANCH   1  18
TORSDOF 4
ENDMDL
