MODEL 1
REMARK VINA RESULT:      -8.5      0.000      0.000
REMARK  Name = 
REMARK  4 active torsions:
REMARK  status: ('A' for Active; 'I' for Inactive)
REMARK    1  A    between atoms: C_7  and  C_8
REMARK    2  A    between atoms: C_8  and  N_9
REMARK    3  A    between atoms: N_9  and  C_10
REMARK    4  A    between atoms: C_12  and  C_13
REMARK                            x       y       z     vdW  Elec       q    Type
REMARK                         _______ _______ _______ _____ _____    ______ ____
ROOT
ATOM      1  C   UNL     1       4.602   3.815  19.469  0.00  0.00    +0.000 C 
ENDROOT
BRANCH   1   8
ATOM      2  O   UNL     1       8.029   5.551  12.744  0.00  0.00    +0.000 OA
ATOM      3  C   UNL     1       7.403   5.137  13.717  0.00  0.00    +0.000 C 
ATOM      4  C   UNL     1       6.346   4.037  13.627  0.00  0.00    +0.000 C 
ATOM      5  O   UNL     1       5.378   3.916  14.658  0.00  0.00    +0.000 OA
ATOM      6  C   UNL     1       5.817   4.321  15.889  0.00  0.00    +0.000 A 
ATOM      7  C   UNL     1       5.051   3.917  16.983  0.00  0.00    +0.000 A 
ATOM      8  C   UNL     1       5.409   4.300  18.285  0.00  0.00    +0.000 A 
ATOM      9  C   UNL     1       6.540   5.112  18.464  0.00  0.00    +0.000 A 
ATOM     10  C   UNL     1       7.296   5.538  17.366  0.00  0.00    +0.000 A 
ATOM     11  C   UNL     1       6.932   5.136  16.082  0.00  0.00    +0.000 A 
ATOM     12  N   UNL     1       7.673   5.577  14.983  0.00  0.00    +0.000 N 
ATOM     13  H   UNL     1       8.423   6.246  15.089  0.00  0.00    +0.000 HD
ENDBRANCH   1   8
BRANCH   1  14
ATOM     14  N   UNL     1       3.395   3.098  19.048  0.00  0.00    +0.000 NA
ATOM     15  H   UNL     1       3.480   2.122  19.330  0.00  0.00    +0.000 HD
BRANCH  14  16
ATOM     16  C   UNL     1       2.202   3.805  19.542  0.00  0.00    +0.000 C 
ATOM     17  C   UNL     1       2.652   5.037  20.357  0.00  0.00    +0.000 C 
ATOM     18  C   UNL     1       2.610   5.884  19.051  0.00  0.00    +0.000 C 
ATOM     19  C   UNL     1       1.666   4.788  18.477  0.00  0.00    +0.000 C 
BRANCH  18  20
ATOM     20  C   UNL     1       2.100   7.389  19.100  0.00  0.00    +0.000 A 
ATOM     21  C   UNL     1       2.069   8.208  17.951  0.00  0.00    +0.000 A 
ATOM     22  C   UNL     1       1.572   9.515  17.985  0.00  0.00    +0.000 A 
ATOM     23  C   UNL     1       1.088  10.030  19.178  0.00  0.00    +0.000 A 
ATOM     24  F   UNL     1       0.597  11.276  19.211  0.00  0.00    +0.000 F 
ATOM     25  C   UNL     1       1.101   9.266  20.334  0.00  0.00    +0.000 A 
ATOM     26  C   UNL     1       1.602   7.961  20.291  0.00  0.00    +0.000 A 
ENDBRANCH  18  20
ENDBRANCH  14  16
ENDBRANCH   1  14
TORSDOF 4
ENDMDL
MODEL 2
REMARK VINA RESULT:      -8.5      1.238      1.680
REMARK  Name = 
REMARK  4 active torsions:
REMARK  status: ('A' for Active; 'I' for Inactive)
REMARK    1  A    between atoms: C_7  and  C_8
REMARK    2  A    between atoms: C_8  and  N_9
REMARK    3  A    between atoms: N_9  and  C_10
REMARK    4  A    between atoms: C_12  and  C_13
REMARK                            x       y       z     vdW  Elec       q    Type
REMARK                         _______ _______ _______ _____ _____    ______ ____
ROOT
ATOM      1  C   UNL     1       4.149   3.851  19.337  0.00  0.00    +0.000 C 
ENDROOT
BRANCH   1   8
ATOM      2  O   UNL     1       8.129   5.520  12.906  0.00  0.00    +0.000 OA
ATOM      3  C   UNL     1       7.412   5.125  13.823  0.00  0.00    +0.000 C 
ATOM      4  C   UNL     1       6.291   4.105  13.631  0.00  0.00    +0.000 C 
ATOM      5  O   UNL     1       5.249   4.025  14.592  0.00  0.00    +0.000 OA
ATOM      6  C   UNL     1       5.632   4.365  15.861  0.00  0.00    +0.000 A 
ATOM      7  C   UNL     1       4.769   3.987  16.890  0.00  0.00    +0.000 A 
ATOM      8  C   UNL     1       5.065   4.309  18.224  0.00  0.00    +0.000 A 
ATOM      9  C   UNL     1       6.234   5.034  18.501  0.00  0.00    +0.000 A 
ATOM     10  C   UNL     1       7.090   5.435  17.468  0.00  0.00    +0.000 A 
ATOM     11  C   UNL     1       6.785   5.094  16.151  0.00  0.00    +0.000 A 
ATOM     12  N   UNL     1       7.627   5.511  15.117  0.00  0.00    +0.000 N 
ATOM     13  H   UNL     1       8.412   6.122  15.293  0.00  0.00    +0.000 HD
ENDBRANCH   1   8
BRANCH   1  14
ATOM     14  N   UNL     1       3.649   4.978  20.129  0.00  0.00    +0.000 NA
ATOM     15  H   UNL     1       4.397   5.662  20.231  0.00  0.00    +0.000 HD
BRANCH  14  16
ATOM     16  C   UNL     1       2.397   5.481  19.539  0.00  0.00    +0.000 C 
ATOM     17  C   UNL     1       1.453   5.927  20.676  0.00  0.00    +0.000 C 
ATOM     18  C   UNL     1       2.065   7.356  20.589  0.00  0.00    +0.000 C 
ATOM     19  C   UNL     1       2.533   6.971  19.155  0.00  0.00    +0.000 C 
BRANCH  18  20
ATOM     20  C   UNL     1       1.134   8.630  20.777  0.00  0.00    +0.000 A 
ATOM     21  C   UNL     1       0.706   9.416  19.686  0.00  0.00    +0.000 A 
ATOM     22  C   UNL     1      -0.156  10.505  19.848  0.00  0.00    +0.000 A 
ATOM     23  C   UNL     1      -0.614  10.830  21.115  0.00  0.00    +0.000 A 
ATOM     24  F   UNL     1      -1.452  11.863  21.273  0.00  0.00    +0.000 F 
ATOM     25  C   UNL     1      -0.219  10.091  22.220  0.00  0.00    +0.000 A 
ATOM     26  C   UNL     1       0.645   9.005  22.048  0.00  0.00    +0.000 A 
ENDBRANCH  18  20
ENDBRANCH  14  16
ENDBRANCH   1  14
TORSDOF 4
ENDMDL
MODEL 3
REMARK VINA RESULT:      -8.5      0.850      1.369
REMARK  Name = 
REMARK  4 active torsions:
REMARK  status: ('A' for Active; 'I' for Inactive)
REMARK    1  A    between atoms: C_7  and  C_8
REMARK    2  A    between atoms: C_8  and  N_9
REMARK    3  A    between atoms: N_9  and  C_10
REMARK    4  A    between atoms: C_12  and  C_13
REMARK                            x       y       z     vdW  Elec       q    Type
REMARK                         _______ _______ _______ _____ _____    ______ ____
ROOT
ATOM      1  C   UNL     1       3.192   2.672  18.954  0.00  0.00    +0.000 C 
ENDROOT
BRANCH   1   8
ATOM      2  O   UNL     1       8.245   5.702  13.927  0.00  0.00    +0.000 OA
ATOM      3  C   UNL     1       7.380   5.123  14.579  0.00  0.00    +0.000 C 
ATOM      4  C   UNL     1       6.324   4.213  13.951  0.00  0.00    +0.000 C 
ATOM      5  O   UNL     1       5.128   3.939  14.664  0.00  0.00    +0.000 OA
ATOM      6  C   UNL     1       5.272   3.954  16.024  0.00  0.00    +0.000 A 
ATOM      7  C   UNL     1       4.242   3.368  16.762  0.00  0.00    +0.000 A 
ATOM      8  C   UNL     1       4.289   3.354  18.165  0.00  0.00    +0.000 A 
ATOM      9  C   UNL     1       5.379   3.955  18.812  0.00  0.00    +0.000 A 
ATOM     10  C   UNL     1       6.402   4.563  18.075  0.00  0.00    +0.000 A 
ATOM     11  C   UNL     1       6.344   4.557  16.682  0.00  0.00    +0.000 A 
ATOM     12  N   UNL     1       7.353   5.182  15.945  0.00  0.00    +0.000 N 
ATOM     13  H   UNL     1       8.085   5.708  16.399  0.00  0.00    +0.000 HD
ENDBRANCH   1   8
BRANCH   1  14
ATOM     14  N   UNL     1       3.101   3.192  20.320  0.00  0.00    +0.000 NA
ATOM     15  H   UNL     1       3.970   3.674  20.545  0.00  0.00    +0.000 HD
BRANCH  14  16
ATOM     16  C   UNL     1       1.871   3.989  20.465  0.00  0.00    +0.000 C 
ATOM     17  C   UNL     1       2.228   5.344  21.113  0.00  0.00    +0.000 C 
ATOM     18  C   UNL     1       2.442   5.939  19.691  0.00  0.00    +0.000 C 
ATOM     19  C   UNL     1       1.565   4.766  19.166  0.00  0.00    +0.000 C 
BRANCH  18  20
ATOM     20  C   UNL     1       1.995   7.432  19.381  0.00  0.00    +0.000 A 
ATOM     21  C   UNL     1       1.368   8.245  20.351  0.00  0.00    +0.000 A 
ATOM     22  C   UNL     1       1.023   9.575  20.093  0.00  0.00    +0.000 A 
ATOM     23  C   UNL     1       1.303  10.125  18.852  0.00  0.00    +0.000 A 
ATOM     24  F   UNL     1       0.987  11.403  18.607  0.00  0.00    +0.000 F 
ATOM     25  C   UNL     1       1.913   9.366  17.865  0.00  0.00    +0.000 A 
ATOM     26  C   UNL     1       2.254   8.036  18.131  0.00  0.00    +0.000 A 
ENDBRANCH  18  20
ENDBRANCH  14  16
ENDBRANCH   1  14
TORSDOF 4
ENDMDL
MODEL 4
REMARK VINA RESULT:      -8.4      0.742      1.286
REMARK  Name = 
REMARK  4 active torsions:
REMARK  status: ('A' for Active; 'I' for Inactive)
REMARK    1  A    between atoms: C_7  and  C_8
REMARK    2  A    between atoms: C_8  and  N_9
REMARK    3  A    between atoms: N_9  and  C_10
REMARK    4  A    between atoms: C_12  and  C_13
REMARK                            x       y       z     vdW  Elec       q    Type
REMARK                         _______ _______ _______ _____ _____    ______ ____
ROOT
ATOM      1  C   UNL     1       3.754   2.976  17.866  0.00  0.00    +0.000 C 
ENDROOT
BRANCH   1   8
ATOM      2  O   UNL     1       8.677   5.916  12.661  0.00  0.00    +0.000 OA
ATOM      3  C   UNL     1       7.851   5.327  13.354  0.00  0.00    +0.000 C 
ATOM      4  C   UNL     1       6.937   4.227  12.815  0.00  0.00    +0.000 C 
ATOM      5  O   UNL     1       5.745   3.907  13.516  0.00  0.00    +0.000 OA
ATOM      6  C   UNL     1       5.818   4.112  14.867  0.00  0.00    +0.000 A 
ATOM      7  C   UNL     1       4.826   3.507  15.639  0.00  0.00    +0.000 A 
ATOM      8  C   UNL     1       4.804   3.676  17.032  0.00  0.00    +0.000 A 
ATOM      9  C   UNL     1       5.787   4.478  17.632  0.00  0.00    +0.000 A 
ATOM     10  C   UNL     1       6.771   5.104  16.857  0.00  0.00    +0.000 A 
ATOM     11  C   UNL     1       6.783   4.914  15.476  0.00  0.00    +0.000 A 
ATOM     12  N   UNL     1       7.750   5.555  14.698  0.00  0.00    +0.000 N 
ATOM     13  H   UNL     1       8.396   6.217  15.104  0.00  0.00    +0.000 HD
ENDBRANCH   1   8
BRANCH   1  14
ATOM     14  N   UNL     1       3.810   3.388  19.271  0.00  0.00    +0.000 NA
ATOM     15  H   UNL     1       4.634   3.971  19.408  0.00  0.00    +0.000 HD
BRANCH  14  16
ATOM     16  C   UNL     1       2.526   3.995  19.660  0.00  0.00    +0.000 C 
ATOM     17  C   UNL     1       2.805   5.280  20.468  0.00  0.00    +0.000 C 
ATOM     18  C   UNL     1       2.781   6.090  19.139  0.00  0.00    +0.000 C 
ATOM     19  C   UNL     1       1.983   4.900  18.532  0.00  0.00    +0.000 C 
BRANCH  18  20
ATOM     20  C   UNL     1       2.138   7.543  19.108  0.00  0.00    +0.000 A 
ATOM     21  C   UNL     1       1.461   8.088  20.220  0.00  0.00    +0.000 A 
ATOM     22  C   UNL     1       0.941   9.386  20.209  0.00  0.00    +0.000 A 
ATOM     23  C   UNL     1       1.093  10.173  19.078  0.00  0.00    +0.000 A 
ATOM     24  F   UNL     1       0.610  11.422  19.070  0.00  0.00    +0.000 F 
ATOM     25  C   UNL     1       1.747   9.682  17.959  0.00  0.00    +0.000 A 
ATOM     26  C   UNL     1       2.262   8.381  17.978  0.00  0.00    +0.000 A 
ENDBRANCH  18  20
ENDBRANCH  14  16
ENDBRANCH   1  14
TORSDOF 4
ENDMDL
MODEL 5
REMARK VINA RESULT:      -8.2      6.104      7.745
REMARK  Name = 
REMARK  4 active torsions:
REMARK  status: ('A' for Active; 'I' for Inactive)
REMARK    1  A    between atoms: C_7  and  C_8
REMARK    2  A    between atoms: C_8  and  N_9
REMARK    3  A    between atoms: N_9  and  C_10
REMARK    4  A    between atoms: C_12  and  C_13
REMARK                            x       y       z     vdW  Elec       q    Type
REMARK                         _______ _______ _______ _____ _____    ______ ____
ROOT
ATOM      1  C   UNL     1       8.399   8.306  18.363  0.00  0.00    +0.000 C 
ENDROOT
BRANCH   1   8
ATOM      2  O   UNL     1      10.312  15.573  20.236  0.00  0.00    +0.000 OA
ATOM      3  C   UNL     1      10.038  14.381  20.119  0.00  0.00    +0.000 C 
ATOM      4  C   UNL     1      10.217  13.365  21.246  0.00  0.00    +0.000 C 
ATOM      5  O   UNL     1      10.305  11.984  20.931  0.00  0.00    +0.000 OA
ATOM      6  C   UNL     1       9.611  11.621  19.809  0.00  0.00    +0.000 A 
ATOM      7  C   UNL     1       9.377  10.255  19.641  0.00  0.00    +0.000 A 
ATOM      8  C   UNL     1       8.692   9.783  18.511  0.00  0.00    +0.000 A 
ATOM      9  C   UNL     1       8.264  10.706  17.545  0.00  0.00    +0.000 A 
ATOM     10  C   UNL     1       8.517  12.074  17.700  0.00  0.00    +0.000 A 
ATOM     11  C   UNL     1       9.188  12.525  18.836  0.00  0.00    +0.000 A 
ATOM     12  N   UNL     1       9.461  13.887  18.982  0.00  0.00    +0.000 N 
ATOM     13  H   UNL     1       9.252  14.546  18.246  0.00  0.00    +0.000 HD
ENDBRANCH   1   8
BRANCH   1  14
ATOM     14  N   UNL     1       7.408   8.050  17.315  0.00  0.00    +0.000 NA
ATOM     15  H   UNL     1       7.651   8.601  16.493  0.00  0.00    +0.000 HD
BRANCH  14  16
ATOM     16  C   UNL     1       7.282   6.598  17.098  0.00  0.00    +0.000 C 
ATOM     17  C   UNL     1       6.564   5.972  18.312  0.00  0.00    +0.000 C 
ATOM     18  C   UNL     1       5.202   6.195  17.589  0.00  0.00    +0.000 C 
ATOM     19  C   UNL     1       6.020   6.276  16.268  0.00  0.00    +0.000 C 
BRANCH  18  20
ATOM     20  C   UNL     1       4.051   5.107  17.716  0.00  0.00    +0.000 A 
ATOM     21  C   UNL     1       4.309   3.724  17.602  0.00  0.00    +0.000 A 
ATOM     22  C   UNL     1       3.304   2.766  17.766  0.00  0.00    +0.000 A 
ATOM     23  C   UNL     1       2.010   3.175  18.053  0.00  0.00    +0.000 A 
ATOM     24  F   UNL     1       1.048   2.260  18.226  0.00  0.00    +0.000 F 
ATOM     25  C   UNL     1       1.706   4.523  18.171  0.00  0.00    +0.000 A 
ATOM     26  C   UNL     1       2.718   5.474  18.004  0.00  0.00    +0.000 A 
ENDBRANCH  18  20
ENDBRANCH  14  16
ENDBRANCH   1  14
TORSDOF 4
ENDMDL
MODEL 6
REMARK VINA RESULT:      -8.2      4.467      7.895
REMARK  Name = 
REMARK  4 active torsions:
REMARK  status: ('A' for Active; 'I' for Inactive)
REMARK    1  A    between atoms: C_7  and  C_8
REMARK    2  A    between atoms: C_8  and  N_9
REMARK    3  A    between atoms: N_9  and  C_10
REMARK    4  A    between atoms: C_12  and  C_13
REMARK                            x       y       z     vdW  Elec       q    Type
REMARK                         _______ _______ _______ _____ _____    ______ ____
ROOT
ATOM      1  C   UNL     1       2.992   5.759  19.767  0.00  0.00    +0.000 C 
ENDROOT
BRANCH   1   8
ATOM      2  O   UNL     1      -0.373  12.674  18.855  0.00  0.00    +0.000 OA
ATOM      3  C   UNL     1       0.047  11.556  19.146  0.00  0.00    +0.000 C 
ATOM      4  C   UNL     1      -0.373  10.805  20.409  0.00  0.00    +0.000 C 
ATOM      5  O   UNL     1       0.447   9.758  20.901  0.00  0.00    +0.000 OA
ATOM      6  C   UNL     1       1.148   9.093  19.932  0.00  0.00    +0.000 A 
ATOM      7  C   UNL     1       1.694   7.862  20.297  0.00  0.00    +0.000 A 
ATOM      8  C   UNL     1       2.447   7.115  19.378  0.00  0.00    +0.000 A 
ATOM      9  C   UNL     1       2.657   7.638  18.093  0.00  0.00    +0.000 A 
ATOM     10  C   UNL     1       2.130   8.883  17.731  0.00  0.00    +0.000 A 
ATOM     11  C   UNL     1       1.374   9.604  18.654  0.00  0.00    +0.000 A 
ATOM     12  N   UNL     1       0.865  10.856  18.303  0.00  0.00    +0.000 N 
ATOM     13  H   UNL     1       1.098  11.289  17.420  0.00  0.00    +0.000 HD
ENDBRANCH   1   8
BRANCH   1  14
ATOM     14  N   UNL     1       4.421   5.639  19.467  0.00  0.00    +0.000 NA
ATOM     15  H   UNL     1       4.947   5.733  20.335  0.00  0.00    +0.000 HD
BRANCH  14  16
ATOM     16  C   UNL     1       4.665   4.404  18.703  0.00  0.00    +0.000 C 
ATOM     17  C   UNL     1       4.065   4.564  17.290  0.00  0.00    +0.000 C 
ATOM     18  C   UNL     1       5.431   5.131  16.802  0.00  0.00    +0.000 C 
ATOM     19  C   UNL     1       6.061   4.434  18.043  0.00  0.00    +0.000 C 
BRANCH  18  20
ATOM     20  C   UNL     1       5.972   4.761  15.354  0.00  0.00    +0.000 A 
ATOM     21  C   UNL     1       5.249   3.926  14.475  0.00  0.00    +0.000 A 
ATOM     22  C   UNL     1       5.701   3.643  13.182  0.00  0.00    +0.000 A 
ATOM     23  C   UNL     1       6.892   4.197  12.738  0.00  0.00    +0.000 A 
ATOM     24  F   UNL     1       7.320   3.941  11.496  0.00  0.00    +0.000 F 
ATOM     25  C   UNL     1       7.639   5.020  13.566  0.00  0.00    +0.000 A 
ATOM     26  C   UNL     1       7.181   5.296  14.858  0.00  0.00    +0.000 A 
ENDBRANCH  18  20
ENDBRANCH  14  16
ENDBRANCH   1  14
TORSDOF 4
ENDMDL
MODEL 7
REMARK VINA RESULT:      -7.9      1.990      2.727
REMARK  Name = 
REMARK  4 active torsions:
REMARK  status: ('A' for Active; 'I' for Inactive)
REMARK    1  A    between atoms: C_7  and  C_8
REMARK    2  A    between atoms: C_8  and  N_9
REMARK    3  A    between atoms: N_9  and  C_10
REMARK    4  A    between atoms: C_12  and  C_13
REMARK                            x       y       z     vdW  Elec       q    Type
REMARK                         _______ _______ _______ _____ _____    ______ ____
ROOT
ATOM      1  C   UNL     1       3.006   2.176  18.948  0.00  0.00    +0.000 C 
ENDROOT
BRANCH   1   8
ATOM      2  O   UNL     1       8.176   7.465  16.651  0.00  0.00    +0.000 OA
ATOM      3  C   UNL     1       7.419   6.660  17.187  0.00  0.00    +0.000 C 
ATOM      4  C   UNL     1       7.500   6.293  18.669  0.00  0.00    +0.000 C 
ATOM      5  O   UNL     1       6.919   5.078  19.117  0.00  0.00    +0.000 OA
ATOM      6  C   UNL     1       5.835   4.673  18.387  0.00  0.00    +0.000 A 
ATOM      7  C   UNL     1       5.027   3.695  18.969  0.00  0.00    +0.000 A 
ATOM      8  C   UNL     1       3.904   3.200  18.288  0.00  0.00    +0.000 A 
ATOM      9  C   UNL     1       3.620   3.692  17.005  0.00  0.00    +0.000 A 
ATOM     10  C   UNL     1       4.441   4.656  16.410  0.00  0.00    +0.000 A 
ATOM     11  C   UNL     1       5.545   5.145  17.107  0.00  0.00    +0.000 A 
ATOM     12  N   UNL     1       6.378   6.091  16.507  0.00  0.00    +0.000 N 
ATOM     13  H   UNL     1       6.246   6.374  15.546  0.00  0.00    +0.000 HD
ENDBRANCH   1   8
BRANCH   1  14
ATOM     14  N   UNL     1       2.948   2.360  20.400  0.00  0.00    +0.000 NA
ATOM     15  H   UNL     1       3.838   2.740  20.718  0.00  0.00    +0.000 HD
BRANCH  14  16
ATOM     16  C   UNL     1       1.755   3.149  20.752  0.00  0.00    +0.000 C 
ATOM     17  C   UNL     1       2.200   4.418  21.508  0.00  0.00    +0.000 C 
ATOM     18  C   UNL     1       2.291   5.167  20.145  0.00  0.00    +0.000 C 
ATOM     19  C   UNL     1       1.342   4.069  19.582  0.00  0.00    +0.000 C 
BRANCH  18  20
ATOM     20  C   UNL     1       1.848   6.690  20.048  0.00  0.00    +0.000 A 
ATOM     21  C   UNL     1       1.190   7.350  21.108  0.00  0.00    +0.000 A 
ATOM     22  C   UNL     1       0.848   8.704  21.041  0.00  0.00    +0.000 A 
ATOM     23  C   UNL     1       1.162   9.432  19.903  0.00  0.00    +0.000 A 
ATOM     24  F   UNL     1       0.850  10.733  19.841  0.00  0.00    +0.000 F 
ATOM     25  C   UNL     1       1.804   8.828  18.833  0.00  0.00    +0.000 A 
ATOM     26  C   UNL     1       2.140   7.473  18.909  0.00  0.00    +0.000 A 
ENDBRANCH  18  20
ENDBRANCH  14  16
ENDBRANCH   1  14
TORSDOF 4
ENDMDL
MODEL 8
REMARK VINA RESULT:      -7.9      6.074      7.693
REMARK  Name = 
REMARK  4 active torsions:
REMARK  status: ('A' for Active; 'I' for Inactive)
REMARK    1  A    between atoms: C_7  and  C_8
REMARK    2  A    between atoms: C_8  and  N_9
REMARK    3  A    between atoms: N_9  and  C_10
REMARK    4  A    between atoms: C_12  and  C_13
REMARK                            x       y       z     vdW  Elec       q    Type
REMARK                         _______ _______ _______ _____ _____    ______ ____
ROOT
ATOM      1  C   UNL     1       8.558   8.449  18.642  0.00  0.00    +0.000 C 
ENDROOT
BRANCH   1   8
ATOM      2  O   UNL     1      11.093  15.759  18.984  0.00  0.00    +0.000 OA
ATOM      3  C   UNL     1      10.743  14.604  18.751  0.00  0.00    +0.000 C 
ATOM      4  C   UNL     1      10.755  13.991  17.351  0.00  0.00    +0.000 C 
ATOM      5  O   UNL     1       9.954  12.851  17.083  0.00  0.00    +0.000 OA
ATOM      6  C   UNL     1       9.758  12.038  18.166  0.00  0.00    +0.000 A 
ATOM      7  C   UNL     1       9.280  10.754  17.898  0.00  0.00    +0.000 A 
ATOM      8  C   UNL     1       9.028   9.855  18.945  0.00  0.00    +0.000 A 
ATOM      9  C   UNL     1       9.247  10.275  20.266  0.00  0.00    +0.000 A 
ATOM     10  C   UNL     1       9.704  11.569  20.539  0.00  0.00    +0.000 A 
ATOM     11  C   UNL     1       9.961  12.445  19.484  0.00  0.00    +0.000 A 
ATOM     12  N   UNL     1      10.397  13.743  19.755  0.00  0.00    +0.000 N 
ATOM     13  H   UNL     1      10.457  14.091  20.702  0.00  0.00    +0.000 HD
ENDBRANCH   1   8
BRANCH   1  14
ATOM     14  N   UNL     1       7.609   8.421  17.525  0.00  0.00    +0.000 NA
ATOM     15  H   UNL     1       7.892   9.119  16.839  0.00  0.00    +0.000 HD
BRANCH  14  16
ATOM     16  C   UNL     1       7.479   7.044  17.021  0.00  0.00    +0.000 C 
ATOM     17  C   UNL     1       6.945   6.144  18.155  0.00  0.00    +0.000 C 
ATOM     18  C   UNL     1       5.494   6.452  17.681  0.00  0.00    +0.000 C 
ATOM     19  C   UNL     1       6.121   6.845  16.312  0.00  0.00    +0.000 C 
BRANCH  18  20
ATOM     20  C   UNL     1       4.389   5.310  17.721  0.00  0.00    +0.000 A 
ATOM     21  C   UNL     1       4.716   3.944  17.585  0.00  0.00    +0.000 A 
ATOM     22  C   UNL     1       3.750   2.937  17.673  0.00  0.00    +0.000 A 
ATOM     23  C   UNL     1       2.426   3.280  17.904  0.00  0.00    +0.000 A 
ATOM     24  F   UNL     1       1.500   2.318  18.004  0.00  0.00    +0.000 F 
ATOM     25  C   UNL     1       2.054   4.608  18.040  0.00  0.00    +0.000 A 
ATOM     26  C   UNL     1       3.028   5.608  17.949  0.00  0.00    +0.000 A 
ENDBRANCH  18  20
ENDBRANCH  14  16
ENDBRANCH   1  14
TORSDOF 4
ENDMDL
MODEL 9
REMARK VINA RESULT:      -7.9      3.636      5.089
REMARK  Name = 
REMARK  4 active torsions:
REMARK  status: ('A' for Active; 'I' for Inactive)
REMARK    1  A    between atoms: C_7  and  C_8
REMARK    2  A    between atoms: C_8  and  N_9
REMARK    3  A    between atoms: N_9  and  C_10
REMARK    4  A    between atoms: C_12  and  C_13
REMARK                            x       y       z     vdW  Elec       q    Type
REMARK                         _______ _______ _______ _____ _____    ______ ____
ROOT
ATOM      1  C   UNL     1       1.804   8.054  18.213  0.00  0.00    +0.000 C 
ENDROOT
BRANCH   1   8
ATOM      2  O   UNL     1       8.406   4.034  17.730  0.00  0.00    +0.000 OA
ATOM      3  C   UNL     1       7.391   4.720  17.629  0.00  0.00    +0.000 C 
ATOM      4  C   UNL     1       7.079   5.580  16.405  0.00  0.00    +0.000 C 
ATOM      5  O   UNL     1       6.156   6.652  16.524  0.00  0.00    +0.000 OA
ATOM      6  C   UNL     1       5.182   6.449  17.464  0.00  0.00    +0.000 A 
ATOM      7  C   UNL     1       4.070   7.289  17.394  0.00  0.00    +0.000 A 
ATOM      8  C   UNL     1       3.028   7.173  18.327  0.00  0.00    +0.000 A 
ATOM      9  C   UNL     1       3.134   6.210  19.343  0.00  0.00    +0.000 A 
ATOM     10  C   UNL     1       4.259   5.382  19.429  0.00  0.00    +0.000 A 
ATOM     11  C   UNL     1       5.278   5.504  18.485  0.00  0.00    +0.000 A 
ATOM     12  N   UNL     1       6.411   4.693  18.582  0.00  0.00    +0.000 N 
ATOM     13  H   UNL     1       6.547   4.072  19.367  0.00  0.00    +0.000 HD
ENDBRANCH   1   8
BRANCH   1  14
ATOM     14  N   UNL     1       1.498   8.728  19.477  0.00  0.00    +0.000 NA
ATOM     15  H   UNL     1       2.299   8.635  20.100  0.00  0.00    +0.000 HD
BRANCH  14  16
ATOM     16  C   UNL     1       1.053  10.106  19.209  0.00  0.00    +0.000 C 
ATOM     17  C   UNL     1       0.360  10.148  17.830  0.00  0.00    +0.000 C 
ATOM     18  C   UNL     1      -0.998   9.849  18.532  0.00  0.00    +0.000 C 
ATOM     19  C   UNL     1      -0.333  10.367  19.840  0.00  0.00    +0.000 C 
BRANCH  18  20
ATOM     20  C   UNL     1      -2.327  10.550  18.015  0.00  0.00    +0.000 A 
ATOM     21  C   UNL     1      -2.875  10.275  16.744  0.00  0.00    +0.000 A 
ATOM     22  C   UNL     1      -4.073  10.853  16.312  0.00  0.00    +0.000 A 
ATOM     23  C   UNL     1      -4.754  11.721  17.151  0.00  0.00    +0.000 A 
ATOM     24  F   UNL     1      -5.910  12.264  16.747  0.00  0.00    +0.000 F 
ATOM     25  C   UNL     1      -4.255  12.025  18.408  0.00  0.00    +0.000 A 
ATOM     26  C   UNL     1      -3.055  11.444  18.831  0.00  0.00    +0.000 A 
ENDBRANCH  18  20
ENDBRANCH  14  16
ENDBRANCH   1  14
TORSDOF 4
ENDMDL
