MODEL 1
REMARK VINA RESULT:      -8.4      0.000      0.000
REMARK  Name = 
REMARK  4 active torsions:
REMARK  status: ('A' for Active; 'I' for Inactive)
REMARK    1  A    between atoms: C_7  and  C_8
REMARK    2  A    between atoms: C_8  and  C_9
REMARK    3  A    between atoms: N_16  and  C_17
REMARK    4  A    between atoms: C_17  and  C_18
REMARK                            x       y       z     vdW  Elec       q    Type
REMARK                         _______ _______ _______ _____ _____    ______ ____
ROOT
ATOM      1  C   UNL     1       2.573   6.942  19.343  0.00  0.00    +0.000 A 
ATOM      2  N   UNL     1       2.125   6.655  20.552  0.00  0.00    +0.000 NA
ATOM      3  N   UNL     1       1.273   7.661  20.953  0.00  0.00    +0.000 NA
ATOM      4  C   UNL     1       1.219   8.549  19.986  0.00  0.00    +0.000 A 
ATOM      5  N   UNL     1       2.085   8.170  18.994  0.00  0.00    +0.000 N 
ATOM      6  C   UNL     1       2.331   8.961  17.811  0.00  0.00    +0.000 C 
ATOM      7  C   UNL     1       1.747  10.371  17.974  0.00  0.00    +0.000 C 
ATOM      8  N   UNL     1       0.375  10.399  18.530  0.00  0.00    +0.000 NA
ATOM      9  C   UNL     1       0.405   9.801  19.898  0.00  0.00    +0.000 C 
ENDROOT
BRANCH   1  10
ATOM     10  C   UNL     1       3.453   6.090  18.494  0.00  0.00    +0.000 C 
BRANCH  10  17
ATOM     11  F   UNL     1       5.261   4.107  19.432  0.00  0.00    +0.000 F 
ATOM     12  C   UNL     1       4.046   3.691  19.042  0.00  0.00    +0.000 A 
ATOM     13  C   UNL     1       3.751   2.334  19.120  0.00  0.00    +0.000 A 
ATOM     14  C   UNL     1       2.490   1.880  18.740  0.00  0.00    +0.000 A 
ATOM     15  C   UNL     1       1.539   2.790  18.271  0.00  0.00    +0.000 A 
ATOM     16  C   UNL     1       1.853   4.154  18.188  0.00  0.00    +0.000 A 
ATOM     17  C   UNL     1       3.110   4.621  18.581  0.00  0.00    +0.000 A 
ENDBRANCH  10  17
ENDBRANCH   1  10
BRANCH   8  18
ATOM     18  C   UNL     1      -0.632   9.690  17.710  0.00  0.00    +0.000 C 
BRANCH  18  19
ATOM     19  C   UNL     1      -1.963  10.390  17.487  0.00  0.00    +0.000 A 
ATOM     20  C   UNL     1      -2.573  10.262  16.225  0.00  0.00    +0.000 A 
ATOM     21  C   UNL     1      -3.841  10.795  15.957  0.00  0.00    +0.000 A 
ATOM     22  C   UNL     1      -4.468  11.558  16.955  0.00  0.00    +0.000 A 
ATOM     23  C   UNL     1      -5.649  12.324  17.059  0.00  0.00    +0.000 A 
ATOM     24  N   UNL     1      -5.798  12.877  18.266  0.00  0.00    +0.000 NA
ATOM     25  N   UNL     1      -4.718  12.442  18.942  0.00  0.00    +0.000 N 
ATOM     26  C   UNL     1      -3.868  11.668  18.201  0.00  0.00    +0.000 A 
ATOM     27  C   UNL     1      -2.644  11.058  18.519  0.00  0.00    +0.000 A 
ATOM     28  H   UNL     1      -4.610  12.730  19.908  0.00  0.00    +0.000 HD
ENDBRANCH  18  19
ENDBRANCH   8  18
TORSDOF 4
ENDMDL
MODEL 2
REMARK VINA RESULT:      -8.4      1.844      2.650
REMARK  Name = 
REMARK  4 active torsions:
REMARK  status: ('A' for Active; 'I' for Inactive)
REMARK    1  A    between atoms: C_7  and  C_8
REMARK    2  A    between atoms: C_8  and  C_9
REMARK    3  A    between atoms: N_16  and  C_17
REMARK    4  A    between atoms: C_17  and  C_18
REMARK                            x       y       z     vdW  Elec       q    Type
REMARK                         _______ _______ _______ _____ _____    ______ ____
ROOT
ATOM      1  C   UNL     1       2.577   6.630  19.045  0.00  0.00    +0.000 A 
ATOM      2  N   UNL     1       2.223   6.280  20.268  0.00  0.00    +0.000 NA
ATOM      3  N   UNL     1       1.530   7.325  20.839  0.00  0.00    +0.000 NA
ATOM      4  C   UNL     1       1.479   8.299  19.957  0.00  0.00    +0.000 A 
ATOM      5  N   UNL     1       2.195   7.926  18.851  0.00  0.00    +0.000 N 
ATOM      6  C   UNL     1       2.408   8.794  17.716  0.00  0.00    +0.000 C 
ATOM      7  C   UNL     1       2.001  10.235  18.054  0.00  0.00    +0.000 C 
ATOM      8  N   UNL     1       0.703  10.350  18.755  0.00  0.00    +0.000 NA
ATOM      9  C   UNL     1       0.802   9.629  20.059  0.00  0.00    +0.000 C 
ENDROOT
BRANCH   1  10
ATOM     10  C   UNL     1       3.270   5.774  18.040  0.00  0.00    +0.000 C 
BRANCH  10  17
ATOM     11  F   UNL     1       4.839   7.067  16.053  0.00  0.00    +0.000 F 
ATOM     12  C   UNL     1       5.494   6.527  17.094  0.00  0.00    +0.000 A 
ATOM     13  C   UNL     1       6.879   6.633  17.134  0.00  0.00    +0.000 A 
ATOM     14  C   UNL     1       7.579   6.099  18.214  0.00  0.00    +0.000 A 
ATOM     15  C   UNL     1       6.884   5.451  19.237  0.00  0.00    +0.000 A 
ATOM     16  C   UNL     1       5.487   5.342  19.178  0.00  0.00    +0.000 A 
ATOM     17  C   UNL     1       4.775   5.888  18.108  0.00  0.00    +0.000 A 
ENDBRANCH  10  17
ENDBRANCH   1  10
BRANCH   8  18
ATOM     18  C   UNL     1      -0.452   9.823  17.994  0.00  0.00    +0.000 C 
BRANCH  18  19
ATOM     19  C   UNL     1      -1.792  10.511  18.203  0.00  0.00    +0.000 A 
ATOM     20  C   UNL     1      -2.911   9.997  17.522  0.00  0.00    +0.000 A 
ATOM     21  C   UNL     1      -4.200  10.508  17.723  0.00  0.00    +0.000 A 
ATOM     22  C   UNL     1      -4.352  11.626  18.559  0.00  0.00    +0.000 A 
ATOM     23  C   UNL     1      -5.412  12.477  18.937  0.00  0.00    +0.000 A 
ATOM     24  N   UNL     1      -5.026  13.433  19.787  0.00  0.00    +0.000 NA
ATOM     25  N   UNL     1      -3.717  13.175  19.969  0.00  0.00    +0.000 N 
ATOM     26  C   UNL     1      -3.247  12.118  19.238  0.00  0.00    +0.000 A 
ATOM     27  C   UNL     1      -1.965  11.557  19.125  0.00  0.00    +0.000 A 
ATOM     28  H   UNL     1      -3.193  13.777  20.595  0.00  0.00    +0.000 HD
ENDBRANCH  18  19
ENDBRANCH   8  18
TORSDOF 4
ENDMDL
MODEL 3
REMARK VINA RESULT:      -8.4      0.972      1.324
REMARK  Name = 
REMARK  4 active torsions:
REMARK  status: ('A' for Active; 'I' for Inactive)
REMARK    1  A    between atoms: C_7  and  C_8
REMARK    2  A    between atoms: C_8  and  C_9
REMARK    3  A    between atoms: N_16  and  C_17
REMARK    4  A    between atoms: C_17  and  C_18
REMARK                            x       y       z     vdW  Elec       q    Type
REMARK                         _______ _______ _______ _____ _____    ______ ____
ROOT
ATOM      1  C   UNL     1       2.366   7.119  19.521  0.00  0.00    +0.000 A 
ATOM      2  N   UNL     1       1.883   6.867  20.725  0.00  0.00    +0.000 NA
ATOM      3  N   UNL     1       1.036   7.895  21.079  0.00  0.00    +0.000 NA
ATOM      4  C   UNL     1       1.021   8.760  20.090  0.00  0.00    +0.000 A 
ATOM      5  N   UNL     1       1.907   8.344  19.131  0.00  0.00    +0.000 N 
ATOM      6  C   UNL     1       2.195   9.104  17.937  0.00  0.00    +0.000 C 
ATOM      7  C   UNL     1       1.629  10.525  18.051  0.00  0.00    +0.000 C 
ATOM      8  N   UNL     1       0.244  10.587  18.570  0.00  0.00    +0.000 NA
ATOM      9  C   UNL     1       0.229  10.021  19.951  0.00  0.00    +0.000 C 
ENDROOT
BRANCH   1  10
ATOM     10  C   UNL     1       3.255   6.233  18.716  0.00  0.00    +0.000 C 
BRANCH  10  17
ATOM     11  F   UNL     1       1.107   4.960  17.356  0.00  0.00    +0.000 F 
ATOM     12  C   UNL     1       1.844   4.200  18.182  0.00  0.00    +0.000 A 
ATOM     13  C   UNL     1       1.516   2.856  18.319  0.00  0.00    +0.000 A 
ATOM     14  C   UNL     1       2.278   2.043  19.155  0.00  0.00    +0.000 A 
ATOM     15  C   UNL     1       3.355   2.588  19.857  0.00  0.00    +0.000 A 
ATOM     16  C   UNL     1       3.669   3.948  19.718  0.00  0.00    +0.000 A 
ATOM     17  C   UNL     1       2.921   4.768  18.870  0.00  0.00    +0.000 A 
ENDBRANCH  10  17
ENDBRANCH   1  10
BRANCH   8  18
ATOM     18  C   UNL     1      -0.752   9.873  17.740  0.00  0.00    +0.000 C 
BRANCH  18  19
ATOM     19  C   UNL     1      -2.101  10.546  17.543  0.00  0.00    +0.000 A 
ATOM     20  C   UNL     1      -2.756  10.364  16.311  0.00  0.00    +0.000 A 
ATOM     21  C   UNL     1      -4.041  10.870  16.072  0.00  0.00    +0.000 A 
ATOM     22  C   UNL     1      -4.642  11.659  17.066  0.00  0.00    +0.000 A 
ATOM     23  C   UNL     1      -5.830  12.411  17.188  0.00  0.00    +0.000 A 
ATOM     24  N   UNL     1      -5.943  13.005  18.379  0.00  0.00    +0.000 NA
ATOM     25  N   UNL     1      -4.831  12.610  19.029  0.00  0.00    +0.000 N 
ATOM     26  C   UNL     1      -3.997  11.822  18.284  0.00  0.00    +0.000 A 
ATOM     27  C   UNL     1      -2.753  11.241  18.576  0.00  0.00    +0.000 A 
ATOM     28  H   UNL     1      -4.691  12.935  19.979  0.00  0.00    +0.000 HD
ENDBRANCH  18  19
ENDBRANCH   8  18
TORSDOF 4
ENDMDL
MODEL 4
REMARK VINA RESULT:      -8.3      1.245      1.855
REMARK  Name = 
REMARK  4 active torsions:
REMARK  status: ('A' for Active; 'I' for Inactive)
REMARK    1  A    between atoms: C_7  and  C_8
REMARK    2  A    between atoms: C_8  and  C_9
REMARK    3  A    between atoms: N_16  and  C_17
REMARK    4  A    between atoms: C_17  and  C_18
REMARK                            x       y       z     vdW  Elec       q    Type
REMARK                         _______ _______ _______ _____ _____    ______ ____
ROOT
ATOM      1  C   UNL     1       2.502   6.930  19.056  0.00  0.00    +0.000 A 
ATOM      2  N   UNL     1       2.188   6.527  20.274  0.00  0.00    +0.000 NA
ATOM      3  N   UNL     1       1.465   7.525  20.891  0.00  0.00    +0.000 NA
ATOM      4  C   UNL     1       1.355   8.522  20.043  0.00  0.00    +0.000 A 
ATOM      5  N   UNL     1       2.063   8.215  18.911  0.00  0.00    +0.000 N 
ATOM      6  C   UNL     1       2.216   9.126  17.800  0.00  0.00    +0.000 C 
ATOM      7  C   UNL     1       1.757  10.537  18.193  0.00  0.00    +0.000 C 
ATOM      8  N   UNL     1       0.470  10.576  18.923  0.00  0.00    +0.000 NA
ATOM      9  C   UNL     1       0.626   9.819  20.200  0.00  0.00    +0.000 C 
ENDROOT
BRANCH   1  10
ATOM     10  C   UNL     1       3.208   6.135  18.010  0.00  0.00    +0.000 C 
BRANCH  10  17
ATOM     11  F   UNL     1       0.971   4.550  17.259  0.00  0.00    +0.000 F 
ATOM     12  C   UNL     1       1.991   3.921  17.864  0.00  0.00    +0.000 A 
ATOM     13  C   UNL     1       1.891   2.551  18.081  0.00  0.00    +0.000 A 
ATOM     14  C   UNL     1       2.945   1.872  18.689  0.00  0.00    +0.000 A 
ATOM     15  C   UNL     1       4.085   2.575  19.085  0.00  0.00    +0.000 A 
ATOM     16  C   UNL     1       4.168   3.958  18.869  0.00  0.00    +0.000 A 
ATOM     17  C   UNL     1       3.123   4.646  18.246  0.00  0.00    +0.000 A 
ENDBRANCH  10  17
ENDBRANCH   1  10
BRANCH   8  18
ATOM     18  C   UNL     1      -0.678  10.025  18.168  0.00  0.00    +0.000 C 
BRANCH  18  19
ATOM     19  C   UNL     1      -2.022  10.714  18.349  0.00  0.00    +0.000 A 
ATOM     20  C   UNL     1      -2.160  11.621  19.416  0.00  0.00    +0.000 A 
ATOM     21  C   UNL     1      -3.329  12.370  19.606  0.00  0.00    +0.000 A 
ATOM     22  C   UNL     1      -4.421  12.129  18.756  0.00  0.00    +0.000 A 
ATOM     23  C   UNL     1      -5.758  12.571  18.668  0.00  0.00    +0.000 A 
ATOM     24  N   UNL     1      -6.414  12.022  17.642  0.00  0.00    +0.000 NA
ATOM     25  N   UNL     1      -5.483  11.243  17.060  0.00  0.00    +0.000 N 
ATOM     26  C   UNL     1      -4.273  11.244  17.698  0.00  0.00    +0.000 A 
ATOM     27  C   UNL     1      -3.076  10.559  17.433  0.00  0.00    +0.000 A 
ATOM     28  H   UNL     1      -5.747  10.716  16.235  0.00  0.00    +0.000 HD
ENDBRANCH  18  19
ENDBRANCH   8  18
TORSDOF 4
ENDMDL
MODEL 5
REMARK VINA RESULT:      -8.3      1.887      2.826
REMARK  Name = 
REMARK  4 active torsions:
REMARK  status: ('A' for Active; 'I' for Inactive)
REMARK    1  A    between atoms: C_7  and  C_8
REMARK    2  A    between atoms: C_8  and  C_9
REMARK    3  A    between atoms: N_16  and  C_17
REMARK    4  A    between atoms: C_17  and  C_18
REMARK                            x       y       z     vdW  Elec       q    Type
REMARK                         _______ _______ _______ _____ _____    ______ ____
ROOT
ATOM      1  C   UNL     1       2.595   6.568  18.975  0.00  0.00    +0.000 A 
ATOM      2  N   UNL     1       2.197   6.166  20.169  0.00  0.00    +0.000 NA
ATOM      3  N   UNL     1       1.500   7.195  20.766  0.00  0.00    +0.000 NA
ATOM      4  C   UNL     1       1.490   8.209  19.931  0.00  0.00    +0.000 A 
ATOM      5  N   UNL     1       2.236   7.878  18.830  0.00  0.00    +0.000 N 
ATOM      6  C   UNL     1       2.497   8.794  17.745  0.00  0.00    +0.000 C 
ATOM      7  C   UNL     1       2.099  10.223  18.138  0.00  0.00    +0.000 C 
ATOM      8  N   UNL     1       0.781  10.325  18.803  0.00  0.00    +0.000 NA
ATOM      9  C   UNL     1       0.829   9.543  20.074  0.00  0.00    +0.000 C 
ENDROOT
BRANCH   1  10
ATOM     10  C   UNL     1       3.307   5.749  17.953  0.00  0.00    +0.000 C 
BRANCH  10  17
ATOM     11  F   UNL     1       4.882   6.988  15.936  0.00  0.00    +0.000 F 
ATOM     12  C   UNL     1       5.531   6.497  17.004  0.00  0.00    +0.000 A 
ATOM     13  C   UNL     1       6.915   6.623  17.055  0.00  0.00    +0.000 A 
ATOM     14  C   UNL     1       7.609   6.139  18.162  0.00  0.00    +0.000 A 
ATOM     15  C   UNL     1       6.911   5.520  19.201  0.00  0.00    +0.000 A 
ATOM     16  C   UNL     1       5.516   5.390  19.131  0.00  0.00    +0.000 A 
ATOM     17  C   UNL     1       4.809   5.886  18.033  0.00  0.00    +0.000 A 
ENDBRANCH  10  17
ENDBRANCH   1  10
BRANCH   8  18
ATOM     18  C   UNL     1      -0.357   9.852  17.982  0.00  0.00    +0.000 C 
BRANCH  18  19
ATOM     19  C   UNL     1      -1.699  10.532  18.199  0.00  0.00    +0.000 A 
ATOM     20  C   UNL     1      -1.809  11.452  19.259  0.00  0.00    +0.000 A 
ATOM     21  C   UNL     1      -2.977  12.193  19.479  0.00  0.00    +0.000 A 
ATOM     22  C   UNL     1      -4.095  11.933  18.670  0.00  0.00    +0.000 A 
ATOM     23  C   UNL     1      -5.438  12.363  18.621  0.00  0.00    +0.000 A 
ATOM     24  N   UNL     1      -6.124  11.796  17.624  0.00  0.00    +0.000 NA
ATOM     25  N   UNL     1      -5.206  11.017  17.021  0.00  0.00    +0.000 N 
ATOM     26  C   UNL     1      -3.975  11.036  17.618  0.00  0.00    +0.000 A 
ATOM     27  C   UNL     1      -2.782  10.357  17.322  0.00  0.00    +0.000 A 
ATOM     28  H   UNL     1      -5.493  10.477  16.213  0.00  0.00    +0.000 HD
ENDBRANCH  18  19
ENDBRANCH   8  18
TORSDOF 4
ENDMDL
MODEL 6
REMARK VINA RESULT:      -8.3      1.660      2.500
REMARK  Name = 
REMARK  4 active torsions:
REMARK  status: ('A' for Active; 'I' for Inactive)
REMARK    1  A    between atoms: C_7  and  C_8
REMARK    2  A    between atoms: C_8  and  C_9
REMARK    3  A    between atoms: N_16  and  C_17
REMARK    4  A    between atoms: C_17  and  C_18
REMARK                            x       y       z     vdW  Elec       q    Type
REMARK                         _______ _______ _______ _____ _____    ______ ____
ROOT
ATOM      1  C   UNL     1       2.603   6.695  18.972  0.00  0.00    +0.000 A 
ATOM      2  N   UNL     1       2.242   6.290  20.176  0.00  0.00    +0.000 NA
ATOM      3  N   UNL     1       1.522   7.299  20.779  0.00  0.00    +0.000 NA
ATOM      4  C   UNL     1       1.463   8.306  19.937  0.00  0.00    +0.000 A 
ATOM      5  N   UNL     1       2.199   7.991  18.825  0.00  0.00    +0.000 N 
ATOM      6  C   UNL     1       2.408   8.907  17.728  0.00  0.00    +0.000 C 
ATOM      7  C   UNL     1       1.970  10.325  18.118  0.00  0.00    +0.000 C 
ATOM      8  N   UNL     1       0.662  10.389  18.807  0.00  0.00    +0.000 NA
ATOM      9  C   UNL     1       0.760   9.619  20.083  0.00  0.00    +0.000 C 
ENDROOT
BRANCH   1  10
ATOM     10  C   UNL     1       3.323   5.892  17.942  0.00  0.00    +0.000 C 
BRANCH  10  17
ATOM     11  F   UNL     1       4.949   4.431  19.760  0.00  0.00    +0.000 F 
ATOM     12  C   UNL     1       5.570   5.301  18.948  0.00  0.00    +0.000 A 
ATOM     13  C   UNL     1       6.951   5.431  19.046  0.00  0.00    +0.000 A 
ATOM     14  C   UNL     1       7.620   6.313  18.200  0.00  0.00    +0.000 A 
ATOM     15  C   UNL     1       6.897   7.067  17.272  0.00  0.00    +0.000 A 
ATOM     16  C   UNL     1       5.503   6.933  17.192  0.00  0.00    +0.000 A 
ATOM     17  C   UNL     1       4.824   6.041  18.025  0.00  0.00    +0.000 A 
ENDBRANCH  10  17
ENDBRANCH   1  10
BRANCH   8  18
ATOM     18  C   UNL     1      -0.474   9.872  18.012  0.00  0.00    +0.000 C 
BRANCH  18  19
ATOM     19  C   UNL     1      -1.824  10.540  18.217  0.00  0.00    +0.000 A 
ATOM     20  C   UNL     1      -2.932  10.017  17.522  0.00  0.00    +0.000 A 
ATOM     21  C   UNL     1      -4.229  10.509  17.718  0.00  0.00    +0.000 A 
ATOM     22  C   UNL     1      -4.402  11.617  18.562  0.00  0.00    +0.000 A 
ATOM     23  C   UNL     1      -5.476  12.451  18.940  0.00  0.00    +0.000 A 
ATOM     24  N   UNL     1      -5.109  13.404  19.801  0.00  0.00    +0.000 NA
ATOM     25  N   UNL     1      -3.798  13.161  19.992  0.00  0.00    +0.000 N 
ATOM     26  C   UNL     1      -3.309  12.118  19.255  0.00  0.00    +0.000 A 
ATOM     27  C   UNL     1      -2.018  11.575  19.147  0.00  0.00    +0.000 A 
ATOM     28  H   UNL     1      -3.287  13.764  20.627  0.00  0.00    +0.000 HD
ENDBRANCH  18  19
ENDBRANCH   8  18
TORSDOF 4
ENDMDL
MODEL 7
REMARK VINA RESULT:      -8.2      1.653      2.658
REMARK  Name = 
REMARK  4 active torsions:
REMARK  status: ('A' for Active; 'I' for Inactive)
REMARK    1  A    between atoms: C_7  and  C_8
REMARK    2  A    between atoms: C_8  and  C_9
REMARK    3  A    between atoms: N_16  and  C_17
REMARK    4  A    between atoms: C_17  and  C_18
REMARK                            x       y       z     vdW  Elec       q    Type
REMARK                         _______ _______ _______ _____ _____    ______ ____
ROOT
ATOM      1  C   UNL     1       2.584   6.687  18.995  0.00  0.00    +0.000 A 
ATOM      2  N   UNL     1       2.229   6.282  20.200  0.00  0.00    +0.000 NA
ATOM      3  N   UNL     1       1.518   7.293  20.810  0.00  0.00    +0.000 NA
ATOM      4  C   UNL     1       1.458   8.302  19.970  0.00  0.00    +0.000 A 
ATOM      5  N   UNL     1       2.185   7.986  18.852  0.00  0.00    +0.000 N 
ATOM      6  C   UNL     1       2.391   8.903  17.756  0.00  0.00    +0.000 C 
ATOM      7  C   UNL     1       1.962  10.322  18.152  0.00  0.00    +0.000 C 
ATOM      8  N   UNL     1       0.659  10.391  18.850  0.00  0.00    +0.000 NA
ATOM      9  C   UNL     1       0.762   9.617  20.123  0.00  0.00    +0.000 C 
ENDROOT
BRANCH   1  10
ATOM     10  C   UNL     1       3.293   5.884  17.958  0.00  0.00    +0.000 C 
BRANCH  10  17
ATOM     11  F   UNL     1       4.966   4.383  19.700  0.00  0.00    +0.000 F 
ATOM     12  C   UNL     1       5.564   5.283  18.903  0.00  0.00    +0.000 A 
ATOM     13  C   UNL     1       6.945   5.422  18.977  0.00  0.00    +0.000 A 
ATOM     14  C   UNL     1       7.591   6.335  18.146  0.00  0.00    +0.000 A 
ATOM     15  C   UNL     1       6.844   7.109  17.255  0.00  0.00    +0.000 A 
ATOM     16  C   UNL     1       5.449   6.966  17.198  0.00  0.00    +0.000 A 
ATOM     17  C   UNL     1       4.794   6.043  18.017  0.00  0.00    +0.000 A 
ENDBRANCH  10  17
ENDBRANCH   1  10
BRANCH   8  18
ATOM     18  C   UNL     1      -0.485   9.880  18.061  0.00  0.00    +0.000 C 
BRANCH  18  19
ATOM     19  C   UNL     1      -1.823  10.577  18.250  0.00  0.00    +0.000 A 
ATOM     20  C   UNL     1      -1.947  11.493  19.312  0.00  0.00    +0.000 A 
ATOM     21  C   UNL     1      -3.110  12.248  19.507  0.00  0.00    +0.000 A 
ATOM     22  C   UNL     1      -4.211  12.006  18.670  0.00  0.00    +0.000 A 
ATOM     23  C   UNL     1      -5.547  12.454  18.592  0.00  0.00    +0.000 A 
ATOM     24  N   UNL     1      -6.216  11.900  17.576  0.00  0.00    +0.000 NA
ATOM     25  N   UNL     1      -5.294  11.113  16.991  0.00  0.00    +0.000 N 
ATOM     26  C   UNL     1      -4.078  11.113  17.617  0.00  0.00    +0.000 A 
ATOM     27  C   UNL     1      -2.888  10.420  17.346  0.00  0.00    +0.000 A 
ATOM     28  H   UNL     1      -5.569  10.580  16.173  0.00  0.00    +0.000 HD
ENDBRANCH  18  19
ENDBRANCH   8  18
TORSDOF 4
ENDMDL
MODEL 8
REMARK VINA RESULT:      -8.2      6.547      8.856
REMARK  Name = 
REMARK  4 active torsions:
REMARK  status: ('A' for Active; 'I' for Inactive)
REMARK    1  A    between atoms: C_7  and  C_8
REMARK    2  A    between atoms: C_8  and  C_9
REMARK    3  A    between atoms: N_16  and  C_17
REMARK    4  A    between atoms: C_17  and  C_18
REMARK                            x       y       z     vdW  Elec       q    Type
REMARK                         _______ _______ _______ _____ _____    ______ ____
ROOT
ATOM      1  C   UNL     1       4.742   5.131  18.273  0.00  0.00    +0.000 A 
ATOM      2  N   UNL     1       5.108   4.649  19.446  0.00  0.00    +0.000 NA
ATOM      3  N   UNL     1       6.382   5.095  19.725  0.00  0.00    +0.000 NA
ATOM      4  C   UNL     1       6.775   5.836  18.714  0.00  0.00    +0.000 A 
ATOM      5  N   UNL     1       5.802   5.814  17.749  0.00  0.00    +0.000 N 
ATOM      6  C   UNL     1       5.942   6.467  16.468  0.00  0.00    +0.000 C 
ATOM      7  C   UNL     1       7.397   6.898  16.238  0.00  0.00    +0.000 C 
ATOM      8  N   UNL     1       8.026   7.560  17.403  0.00  0.00    +0.000 NA
ATOM      9  C   UNL     1       8.054   6.594  18.540  0.00  0.00    +0.000 C 
ENDROOT
BRANCH   1  10
ATOM     10  C   UNL     1       3.411   4.971  17.620  0.00  0.00    +0.000 C 
BRANCH  10  17
ATOM     11  F   UNL     1       2.427   2.361  17.072  0.00  0.00    +0.000 F 
ATOM     12  C   UNL     1       1.954   2.975  18.169  0.00  0.00    +0.000 A 
ATOM     13  C   UNL     1       1.025   2.305  18.957  0.00  0.00    +0.000 A 
ATOM     14  C   UNL     1       0.535   2.914  20.110  0.00  0.00    +0.000 A 
ATOM     15  C   UNL     1       0.971   4.195  20.456  0.00  0.00    +0.000 A 
ATOM     16  C   UNL     1       1.900   4.863  19.646  0.00  0.00    +0.000 A 
ATOM     17  C   UNL     1       2.409   4.256  18.496  0.00  0.00    +0.000 A 
ENDBRANCH  10  17
ENDBRANCH   1  10
BRANCH   8  18
ATOM     18  C   UNL     1       7.351   8.804  17.837  0.00  0.00    +0.000 C 
BRANCH  18  19
ATOM     19  C   UNL     1       8.236   9.997  18.160  0.00  0.00    +0.000 A 
ATOM     20  C   UNL     1       9.225   9.836  19.149  0.00  0.00    +0.000 A 
ATOM     21  C   UNL     1      10.145  10.849  19.449  0.00  0.00    +0.000 A 
ATOM     22  C   UNL     1      10.006  12.089  18.805  0.00  0.00    +0.000 A 
ATOM     23  C   UNL     1      10.628  13.353  18.885  0.00  0.00    +0.000 A 
ATOM     24  N   UNL     1      10.110  14.236  18.027  0.00  0.00    +0.000 NA
ATOM     25  N   UNL     1       9.168  13.524  17.380  0.00  0.00    +0.000 N 
ATOM     26  C   UNL     1       9.039  12.236  17.821  0.00  0.00    +0.000 A 
ATOM     27  C   UNL     1       8.172  11.200  17.437  0.00  0.00    +0.000 A 
ATOM     28  H   UNL     1       8.629  13.989  16.658  0.00  0.00    +0.000 HD
ENDBRANCH  18  19
ENDBRANCH   8  18
TORSDOF 4
ENDMDL
MODEL 9
REMARK VINA RESULT:      -8.2      6.442      9.440
REMARK  Name = 
REMARK  4 active torsions:
REMARK  status: ('A' for Active; 'I' for Inactive)
REMARK    1  A    between atoms: C_7  and  C_8
REMARK    2  A    between atoms: C_8  and  C_9
REMARK    3  A    between atoms: N_16  and  C_17
REMARK    4  A    between atoms: C_17  and  C_18
REMARK                            x       y       z     vdW  Elec       q    Type
REMARK                         _______ _______ _______ _____ _____    ______ ____
ROOT
ATOM      1  C   UNL     1       4.720   5.587  18.589  0.00  0.00    +0.000 A 
ATOM      2  N   UNL     1       5.104   4.928  19.668  0.00  0.00    +0.000 NA
ATOM      3  N   UNL     1       6.446   5.169  19.873  0.00  0.00    +0.000 NA
ATOM      4  C   UNL     1       6.860   5.964  18.912  0.00  0.00    +0.000 A 
ATOM      5  N   UNL     1       5.823   6.182  18.044  0.00  0.00    +0.000 N 
ATOM      6  C   UNL     1       5.953   6.954  16.831  0.00  0.00    +0.000 C 
ATOM      7  C   UNL     1       7.432   7.215  16.514  0.00  0.00    +0.000 C 
ATOM      8  N   UNL     1       8.235   7.650  17.678  0.00  0.00    +0.000 NA
ATOM      9  C   UNL     1       8.215   6.563  18.701  0.00  0.00    +0.000 C 
ENDROOT
BRANCH   1  10
ATOM     10  C   UNL     1       3.334   5.679  18.049  0.00  0.00    +0.000 C 
BRANCH  10  17
ATOM     11  F   UNL     1       2.062   5.992  20.573  0.00  0.00    +0.000 F 
ATOM     12  C   UNL     1       1.812   4.858  19.898  0.00  0.00    +0.000 A 
ATOM     13  C   UNL     1       0.959   3.920  20.468  0.00  0.00    +0.000 A 
ATOM     14  C   UNL     1       0.669   2.744  19.779  0.00  0.00    +0.000 A 
ATOM     15  C   UNL     1       1.248   2.513  18.529  0.00  0.00    +0.000 A 
ATOM     16  C   UNL     1       2.116   3.464  17.971  0.00  0.00    +0.000 A 
ATOM     17  C   UNL     1       2.401   4.652  18.647  0.00  0.00    +0.000 A 
ENDBRANCH  10  17
ENDBRANCH   1  10
BRANCH   8  18
ATOM     18  C   UNL     1       7.777   8.913  18.300  0.00  0.00    +0.000 C 
BRANCH  18  19
ATOM     19  C   UNL     1       8.834   9.965  18.593  0.00  0.00    +0.000 A 
ATOM     20  C   UNL     1       9.121  10.255  19.940  0.00  0.00    +0.000 A 
ATOM     21  C   UNL     1      10.142  11.142  20.306  0.00  0.00    +0.000 A 
ATOM     22  C   UNL     1      10.828  11.826  19.289  0.00  0.00    +0.000 A 
ATOM     23  C   UNL     1      11.812  12.835  19.227  0.00  0.00    +0.000 A 
ATOM     24  N   UNL     1      12.142  13.155  17.973  0.00  0.00    +0.000 NA
ATOM     25  N   UNL     1      11.380  12.329  17.232  0.00  0.00    +0.000 N 
ATOM     26  C   UNL     1      10.550  11.525  17.964  0.00  0.00    +0.000 A 
ATOM     27  C   UNL     1       9.599  10.566  17.579  0.00  0.00    +0.000 A 
ATOM     28  H   UNL     1      11.460  12.380  16.223  0.00  0.00    +0.000 HD
ENDBRANCH  18  19
ENDBRANCH   8  18
TORSDOF 4
ENDMDL
