MODEL 1
REMARK VINA RESULT:      -8.5      0.000      0.000
REMARK  Name = 
REMARK  5 active torsions:
REMARK  status: ('A' for Active; 'I' for Inactive)
REMARK    1  A    between atoms: C_1  and  C_2
REMARK    2  A    between atoms: C_3  and  C_4
REMARK    3  A    between atoms: N_6  and  C_7
REMARK    4  A    between atoms: C_12  and  S_13
REMARK    5  A    between atoms: S_13  and  N_16
REMARK                            x       y       z     vdW  Elec       q    Type
REMARK                         _______ _______ _______ _____ _____    ______ ____
ROOT
ATOM      1  C   UNL     1       2.043   6.955  19.835  0.00  0.00    +0.000 A 
ATOM      2  C   UNL     1       1.218   6.144  20.626  0.00  0.00    +0.000 A 
ATOM      3  C   UNL     1       1.437   4.768  20.748  0.00  0.00    +0.000 A 
ATOM      4  C   UNL     1       2.490   4.155  20.072  0.00  0.00    +0.000 A 
ATOM      5 CL   UNL     1       2.704   2.464  20.346  0.00  0.00    +0.000 Cl
ATOM      6  C   UNL     1       3.297   4.934  19.243  0.00  0.00    +0.000 A 
ATOM      7  C   UNL     1       3.053   6.325  19.100  0.00  0.00    +0.000 A 
ENDROOT
BRANCH   1  10
ATOM      8  C   UNL     1       1.511   9.083  18.655  0.00  0.00    +0.000 C 
ATOM      9  O   UNL     1       1.270   8.521  17.584  0.00  0.00    +0.000 OA
ATOM     10  N   UNL     1       1.919   8.378  19.783  0.00  0.00    +0.000 N 
ATOM     11  H   UNL     1       1.969   8.905  20.647  0.00  0.00    +0.000 HD
BRANCH   8  14
ATOM     12  C   UNL     1      -1.259  10.675  19.097  0.00  0.00    +0.000 C 
ATOM     13  C   UNL     1       0.112  11.220  18.905  0.00  0.00    +0.000 A 
ATOM     14  C   UNL     1       1.309  10.521  18.756  0.00  0.00    +0.000 A 
ATOM     15  O   UNL     1       2.355  11.413  18.659  0.00  0.00    +0.000 OA
ATOM     16  C   UNL     1       1.809  12.675  18.653  0.00  0.00    +0.000 A 
ATOM     17  C   UNL     1       2.493  13.886  18.518  0.00  0.00    +0.000 A 
ATOM     18  C   UNL     1       1.712  15.055  18.484  0.00  0.00    +0.000 A 
ATOM     19  C   UNL     1       0.327  14.994  18.596  0.00  0.00    +0.000 A 
ATOM     20  F   UNL     1      -0.391  16.124  18.538  0.00  0.00    +0.000 F 
ATOM     21  C   UNL     1      -0.337  13.782  18.758  0.00  0.00    +0.000 A 
ATOM     22  C   UNL     1       0.426  12.599  18.782  0.00  0.00    +0.000 A 
ENDBRANCH   8  14
ENDBRANCH   1  10
BRANCH   6  23
ATOM     23  S   UNL     1       4.625   4.204  18.323  0.00  0.00    +0.000 S 
ATOM     24  O   UNL     1       5.542   3.605  19.258  0.00  0.00    +0.000 OA
ATOM     25  O   UNL     1       4.017   3.390  17.291  0.00  0.00    +0.000 OA
BRANCH  23  26
ATOM     26  N   UNL     1       5.410   5.505  17.537  0.00  0.00    +0.000 NA
ATOM     27  C   UNL     1       5.290   5.619  16.051  0.00  0.00    +0.000 C 
ATOM     28  C   UNL     1       6.211   4.628  15.330  0.00  0.00    +0.000 C 
ATOM     29  O   UNL     1       7.578   4.779  15.737  0.00  0.00    +0.000 OA
ATOM     30  C   UNL     1       7.733   4.651  17.160  0.00  0.00    +0.000 C 
ATOM     31  C   UNL     1       6.858   5.665  17.910  0.00  0.00    +0.000 C 
ENDBRANCH  23  26
ENDBRANCH   6  23
TORSDOF 4
ENDMDL
MODEL 2
REMARK VINA RESULT:      -8.4      1.416      1.458
REMARK  Name = 
REMARK  5 active torsions:
REMARK  status: ('A' for Active; 'I' for Inactive)
REMARK    1  A    between atoms: C_1  and  C_2
REMARK    2  A    between atoms: C_3  and  C_4
REMARK    3  A    between atoms: N_6  and  C_7
REMARK    4  A    between atoms: C_12  and  S_13
REMARK    5  A    between atoms: S_13  and  N_16
REMARK                            x       y       z     vdW  Elec       q    Type
REMARK                         _______ _______ _______ _____ _____    ______ ____
ROOT
ATOM      1  C   UNL     1       1.994   6.798  19.788  0.00  0.00    +0.000 A 
ATOM      2  C   UNL     1       1.480   5.927  20.758  0.00  0.00    +0.000 A 
ATOM      3  C   UNL     1       2.005   4.646  20.951  0.00  0.00    +0.000 A 
ATOM      4  C   UNL     1       3.063   4.187  20.168  0.00  0.00    +0.000 A 
ATOM      5 CL   UNL     1       3.672   2.615  20.535  0.00  0.00    +0.000 Cl
ATOM      6  C   UNL     1       3.562   5.018  19.166  0.00  0.00    +0.000 A 
ATOM      7  C   UNL     1       3.006   6.308  18.955  0.00  0.00    +0.000 A 
ENDROOT
BRANCH   1  10
ATOM      8  C   UNL     1       1.085   8.932  20.695  0.00  0.00    +0.000 C 
ATOM      9  O   UNL     1       0.956   8.483  21.837  0.00  0.00    +0.000 OA
ATOM     10  N   UNL     1       1.561   8.151  19.646  0.00  0.00    +0.000 N 
ATOM     11  H   UNL     1       1.754   8.637  18.778  0.00  0.00    +0.000 HD
BRANCH   8  14
ATOM     12  C   UNL     1      -0.868  10.184  18.456  0.00  0.00    +0.000 C 
ATOM     13  C   UNL     1      -0.026  10.887  19.460  0.00  0.00    +0.000 A 
ATOM     14  C   UNL     1       0.783  10.335  20.452  0.00  0.00    +0.000 A 
ATOM     15  O   UNL     1       1.347  11.343  21.202  0.00  0.00    +0.000 OA
ATOM     16  C   UNL     1       0.968  12.533  20.628  0.00  0.00    +0.000 A 
ATOM     17  C   UNL     1       1.349  13.817  21.026  0.00  0.00    +0.000 A 
ATOM     18  C   UNL     1       0.877  14.889  20.247  0.00  0.00    +0.000 A 
ATOM     19  C   UNL     1       0.059  14.666  19.144  0.00  0.00    +0.000 A 
ATOM     20  F   UNL     1      -0.357  15.706  18.408  0.00  0.00    +0.000 F 
ATOM     21  C   UNL     1      -0.334  13.383  18.778  0.00  0.00    +0.000 A 
ATOM     22  C   UNL     1       0.137  12.296  19.538  0.00  0.00    +0.000 A 
ENDBRANCH   8  14
ENDBRANCH   1  10
BRANCH   6  23
ATOM     23  S   UNL     1       4.878   4.477  18.108  0.00  0.00    +0.000 S 
ATOM     24  O   UNL     1       6.085   4.412  18.892  0.00  0.00    +0.000 OA
ATOM     25  O   UNL     1       4.400   3.293  17.425  0.00  0.00    +0.000 OA
BRANCH  23  26
ATOM     26  N   UNL     1       5.053   5.700  16.926  0.00  0.00    +0.000 NA
ATOM     27  C   UNL     1       5.339   5.296  15.516  0.00  0.00    +0.000 C 
ATOM     28  C   UNL     1       6.809   4.902  15.326  0.00  0.00    +0.000 C 
ATOM     29  O   UNL     1       7.698   5.950  15.738  0.00  0.00    +0.000 OA
ATOM     30  C   UNL     1       7.465   6.348  17.100  0.00  0.00    +0.000 C 
ATOM     31  C   UNL     1       6.012   6.793  17.310  0.00  0.00    +0.000 C 
ENDBRANCH  23  26
ENDBRANCH   6  23
TORSDOF 4
ENDMDL
MODEL 3
REMARK VINA RESULT:      -8.2      2.140      2.325
REMARK  Name = 
REMARK  5 active torsions:
REMARK  status: ('A' for Active; 'I' for Inactive)
REMARK    1  A    between atoms: C_1  and  C_2
REMARK    2  A    between atoms: C_3  and  C_4
REMARK    3  A    between atoms: N_6  and  C_7
REMARK    4  A    between atoms: C_12  and  S_13
REMARK    5  A    between atoms: S_13  and  N_16
REMARK                            x       y       z     vdW  Elec       q    Type
REMARK                         _______ _______ _______ _____ _____    ______ ____
ROOT
ATOM      1  C   UNL     1       1.788   6.113  20.404  0.00  0.00    +0.000 A 
ATOM      2  C   UNL     1       0.950   5.013  20.629  0.00  0.00    +0.000 A 
ATOM      3  C   UNL     1       1.302   3.723  20.222  0.00  0.00    +0.000 A 
ATOM      4  C   UNL     1       2.508   3.491  19.564  0.00  0.00    +0.000 A 
ATOM      5 CL   UNL     1       2.868   1.851  19.164  0.00  0.00    +0.000 Cl
ATOM      6  C   UNL     1       3.339   4.576  19.288  0.00  0.00    +0.000 A 
ATOM      7  C   UNL     1       2.963   5.889  19.679  0.00  0.00    +0.000 A 
ENDROOT
BRANCH   1  10
ATOM      8  C   UNL     1       1.308   8.539  20.110  0.00  0.00    +0.000 C 
ATOM      9  O   UNL     1       1.400   8.488  18.880  0.00  0.00    +0.000 OA
ATOM     10  N   UNL     1       1.514   7.420  20.911  0.00  0.00    +0.000 N 
ATOM     11  H   UNL     1       1.292   7.527  21.894  0.00  0.00    +0.000 HD
BRANCH   8  14
ATOM     12  C   UNL     1      -0.565   8.972  22.698  0.00  0.00    +0.000 C 
ATOM     13  C   UNL     1       0.078   9.994  21.829  0.00  0.00    +0.000 A 
ATOM     14  C   UNL     1       0.920   9.795  20.736  0.00  0.00    +0.000 A 
ATOM     15  O   UNL     1       1.337  11.013  20.247  0.00  0.00    +0.000 OA
ATOM     16  C   UNL     1       0.685  11.982  20.972  0.00  0.00    +0.000 A 
ATOM     17  C   UNL     1       0.764  13.366  20.787  0.00  0.00    +0.000 A 
ATOM     18  C   UNL     1      -0.042  14.164  21.619  0.00  0.00    +0.000 A 
ATOM     19  C   UNL     1      -0.862  13.590  22.585  0.00  0.00    +0.000 A 
ATOM     20  F   UNL     1      -1.635  14.376  23.347  0.00  0.00    +0.000 F 
ATOM     21  C   UNL     1      -0.907  12.212  22.775  0.00  0.00    +0.000 A 
ATOM     22  C   UNL     1      -0.117  11.395  21.944  0.00  0.00    +0.000 A 
ENDBRANCH   8  14
ENDBRANCH   1  10
BRANCH   6  23
ATOM     23  S   UNL     1       4.866   4.353  18.416  0.00  0.00    +0.000 S 
ATOM     24  O   UNL     1       5.858   3.900  19.357  0.00  0.00    +0.000 OA
ATOM     25  O   UNL     1       4.564   3.551  17.249  0.00  0.00    +0.000 OA
BRANCH  23  26
ATOM     26  N   UNL     1       5.308   5.907  17.855  0.00  0.00    +0.000 NA
ATOM     27  C   UNL     1       4.757   6.379  16.549  0.00  0.00    +0.000 C 
ATOM     28  C   UNL     1       5.488   5.742  15.361  0.00  0.00    +0.000 C 
ATOM     29  O   UNL     1       6.903   5.973  15.422  0.00  0.00    +0.000 OA
ATOM     30  C   UNL     1       7.471   5.509  16.658  0.00  0.00    +0.000 C 
ATOM     31  C   UNL     1       6.790   6.166  17.866  0.00  0.00    +0.000 C 
ENDBRANCH  23  26
ENDBRANCH   6  23
TORSDOF 4
ENDMDL
MODEL 4
REMARK VINA RESULT:      -8.1      1.027      1.104
REMARK  Name = 
REMARK  5 active torsions:
REMARK  status: ('A' for Active; 'I' for Inactive)
REMARK    1  A    between atoms: C_1  and  C_2
REMARK    2  A    between atoms: C_3  and  C_4
REMARK    3  A    between atoms: N_6  and  C_7
REMARK    4  A    between atoms: C_12  and  S_13
REMARK    5  A    between atoms: S_13  and  N_16
REMARK                            x       y       z     vdW  Elec       q    Type
REMARK                         _______ _______ _______ _____ _____    ______ ____
ROOT
ATOM      1  C   UNL     1       2.170   6.626  19.946  0.00  0.00    +0.000 A 
ATOM      2  C   UNL     1       1.521   5.654  20.719  0.00  0.00    +0.000 A 
ATOM      3  C   UNL     1       1.898   4.308  20.677  0.00  0.00    +0.000 A 
ATOM      4  C   UNL     1       2.936   3.886  19.849  0.00  0.00    +0.000 A 
ATOM      5 CL   UNL     1       3.355   2.214  19.925  0.00  0.00    +0.000 Cl
ATOM      6  C   UNL     1       3.566   4.828  19.036  0.00  0.00    +0.000 A 
ATOM      7  C   UNL     1       3.162   6.188  19.061  0.00  0.00    +0.000 A 
ENDROOT
BRANCH   1  10
ATOM      8  C   UNL     1       1.582   8.841  18.970  0.00  0.00    +0.000 C 
ATOM      9  O   UNL     1       1.577   8.417  17.811  0.00  0.00    +0.000 OA
ATOM     10  N   UNL     1       1.891   8.023  20.053  0.00  0.00    +0.000 N 
ATOM     11  H   UNL     1       1.745   8.423  20.972  0.00  0.00    +0.000 HD
BRANCH   8  14
ATOM     12  C   UNL     1      -0.544   9.963  21.119  0.00  0.00    +0.000 C 
ATOM     13  C   UNL     1       0.253  10.715  20.112  0.00  0.00    +0.000 A 
ATOM     14  C   UNL     1       1.201  10.224  19.215  0.00  0.00    +0.000 A 
ATOM     15  O   UNL     1       1.742  11.269  18.499  0.00  0.00    +0.000 OA
ATOM     16  C   UNL     1       1.071  12.407  18.877  0.00  0.00    +0.000 A 
ATOM     17  C   UNL     1       1.253  13.697  18.371  0.00  0.00    +0.000 A 
ATOM     18  C   UNL     1       0.406  14.701  18.874  0.00  0.00    +0.000 A 
ATOM     19  C   UNL     1      -0.551  14.412  19.841  0.00  0.00    +0.000 A 
ATOM     20  F   UNL     1      -1.357  15.386  20.285  0.00  0.00    +0.000 F 
ATOM     21  C   UNL     1      -0.699  13.128  20.355  0.00  0.00    +0.000 A 
ATOM     22  C   UNL     1       0.130  12.106  19.855  0.00  0.00    +0.000 A 
ENDBRANCH   8  14
ENDBRANCH   1  10
BRANCH   6  23
ATOM     23  S   UNL     1       4.865   4.347  17.928  0.00  0.00    +0.000 S 
ATOM     24  O   UNL     1       6.083   4.232  18.689  0.00  0.00    +0.000 OA
ATOM     25  O   UNL     1       4.373   3.207  17.183  0.00  0.00    +0.000 OA
BRANCH  23  26
ATOM     26  N   UNL     1       5.026   5.638  16.819  0.00  0.00    +0.000 NA
ATOM     27  C   UNL     1       5.379   5.323  15.401  0.00  0.00    +0.000 C 
ATOM     28  C   UNL     1       6.870   5.002  15.245  0.00  0.00    +0.000 C 
ATOM     29  O   UNL     1       7.697   6.063  15.744  0.00  0.00    +0.000 OA
ATOM     30  C   UNL     1       7.400   6.377  17.115  0.00  0.00    +0.000 C 
ATOM     31  C   UNL     1       5.922   6.749  17.294  0.00  0.00    +0.000 C 
ENDBRANCH  23  26
ENDBRANCH   6  23
TORSDOF 4
ENDMDL
MODEL 5
REMARK VINA RESULT:      -8.1      1.622      1.739
REMARK  Name = 
REMARK  5 active torsions:
REMARK  status: ('A' for Active; 'I' for Inactive)
REMARK    1  A    between atoms: C_1  and  C_2
REMARK    2  A    between atoms: C_3  and  C_4
REMARK    3  A    between atoms: N_6  and  C_7
REMARK    4  A    between atoms: C_12  and  S_13
REMARK    5  A    between atoms: S_13  and  N_16
REMARK                            x       y       z     vdW  Elec       q    Type
REMARK                         _______ _______ _______ _____ _____    ______ ____
ROOT
ATOM      1  C   UNL     1       1.943   6.653  19.881  0.00  0.00    +0.000 A 
ATOM      2  C   UNL     1       1.461   5.736  20.824  0.00  0.00    +0.000 A 
ATOM      3  C   UNL     1       2.032   4.469  20.978  0.00  0.00    +0.000 A 
ATOM      4  C   UNL     1       3.105   4.072  20.181  0.00  0.00    +0.000 A 
ATOM      5 CL   UNL     1       3.769   2.512  20.500  0.00  0.00    +0.000 Cl
ATOM      6  C   UNL     1       3.572   4.951  19.204  0.00  0.00    +0.000 A 
ATOM      7  C   UNL     1       2.971   6.225  19.033  0.00  0.00    +0.000 A 
ENDROOT
BRANCH   1  10
ATOM      8  C   UNL     1       1.248   8.830  20.873  0.00  0.00    +0.000 C 
ATOM      9  O   UNL     1       1.417   8.445  22.033  0.00  0.00    +0.000 OA
ATOM     10  N   UNL     1       1.461   7.995  19.780  0.00  0.00    +0.000 N 
ATOM     11  H   UNL     1       1.423   8.432  18.867  0.00  0.00    +0.000 HD
BRANCH   8  14
ATOM     12  C   UNL     1      -0.639  10.706  22.693  0.00  0.00    +0.000 C 
ATOM     13  C   UNL     1       0.020  11.021  21.397  0.00  0.00    +0.000 A 
ATOM     14  C   UNL     1       0.868  10.215  20.639  0.00  0.00    +0.000 A 
ATOM     15  O   UNL     1       1.300  10.914  19.533  0.00  0.00    +0.000 OA
ATOM     16  C   UNL     1       0.653  12.126  19.544  0.00  0.00    +0.000 A 
ATOM     17  C   UNL     1       0.747  13.138  18.584  0.00  0.00    +0.000 A 
ATOM     18  C   UNL     1      -0.057  14.275  18.779  0.00  0.00    +0.000 A 
ATOM     19  C   UNL     1      -0.890  14.380  19.889  0.00  0.00    +0.000 A 
ATOM     20  F   UNL     1      -1.660  15.467  20.036  0.00  0.00    +0.000 F 
ATOM     21  C   UNL     1      -0.950  13.376  20.850  0.00  0.00    +0.000 A 
ATOM     22  C   UNL     1      -0.162  12.224  20.666  0.00  0.00    +0.000 A 
ENDBRANCH   8  14
ENDBRANCH   1  10
BRANCH   6  23
ATOM     23  S   UNL     1       4.905   4.489  18.130  0.00  0.00    +0.000 S 
ATOM     24  O   UNL     1       6.116   4.450  18.909  0.00  0.00    +0.000 OA
ATOM     25  O   UNL     1       4.471   3.305  17.417  0.00  0.00    +0.000 OA
BRANCH  23  26
ATOM     26  N   UNL     1       5.029   5.749  16.980  0.00  0.00    +0.000 NA
ATOM     27  C   UNL     1       5.328   5.394  15.560  0.00  0.00    +0.000 C 
ATOM     28  C   UNL     1       6.812   5.064  15.358  0.00  0.00    +0.000 C 
ATOM     29  O   UNL     1       7.659   6.135  15.797  0.00  0.00    +0.000 OA
ATOM     30  C   UNL     1       7.413   6.487  17.169  0.00  0.00    +0.000 C 
ATOM     31  C   UNL     1       5.944   6.869  17.392  0.00  0.00    +0.000 C 
ENDBRANCH  23  26
ENDBRANCH   6  23
TORSDOF 4
ENDMDL
MODEL 6
REMARK VINA RESULT:      -7.9      1.481      1.911
REMARK  Name = 
REMARK  5 active torsions:
REMARK  status: ('A' for Active; 'I' for Inactive)
REMARK    1  A    between atoms: C_1  and  C_2
REMARK    2  A    between atoms: C_3  and  C_4
REMARK    3  A    between atoms: N_6  and  C_7
REMARK    4  A    between atoms: C_12  and  S_13
REMARK    5  A    between atoms: S_13  and  N_16
REMARK                            x       y       z     vdW  Elec       q    Type
REMARK                         _______ _______ _______ _____ _____    ______ ____
ROOT
ATOM      1  C   UNL     1       1.898   6.306  19.724  0.00  0.00    +0.000 A 
ATOM      2  C   UNL     1       1.534   5.446  20.768  0.00  0.00    +0.000 A 
ATOM      3  C   UNL     1       2.214   4.247  21.005  0.00  0.00    +0.000 A 
ATOM      4  C   UNL     1       3.280   3.863  20.195  0.00  0.00    +0.000 A 
ATOM      5 CL   UNL     1       4.085   2.396  20.618  0.00  0.00    +0.000 Cl
ATOM      6  C   UNL     1       3.632   4.681  19.122  0.00  0.00    +0.000 A 
ATOM      7  C   UNL     1       2.920   5.884  18.868  0.00  0.00    +0.000 A 
ENDROOT
BRANCH   1  10
ATOM      8  C   UNL     1       1.277   8.592  20.494  0.00  0.00    +0.000 C 
ATOM      9  O   UNL     1       1.731   8.419  21.628  0.00  0.00    +0.000 OA
ATOM     10  N   UNL     1       1.303   7.591  19.529  0.00  0.00    +0.000 N 
ATOM     11  H   UNL     1       1.026   7.863  18.593  0.00  0.00    +0.000 HD
BRANCH   8  14
ATOM     12  C   UNL     1       2.028  10.416  17.943  0.00  0.00    +0.000 C 
ATOM     13  C   UNL     1       1.096  10.714  19.063  0.00  0.00    +0.000 A 
ATOM     14  C   UNL     1       0.747   9.901  20.140  0.00  0.00    +0.000 A 
ATOM     15  O   UNL     1      -0.191  10.543  20.918  0.00  0.00    +0.000 OA
ATOM     16  C   UNL     1      -0.366  11.798  20.385  0.00  0.00    +0.000 A 
ATOM     17  C   UNL     1      -1.187  12.815  20.880  0.00  0.00    +0.000 A 
ATOM     18  C   UNL     1      -1.162  14.042  20.194  0.00  0.00    +0.000 A 
ATOM     19  C   UNL     1      -0.363  14.216  19.068  0.00  0.00    +0.000 A 
ATOM     20  F   UNL     1      -0.343  15.404  18.449  0.00  0.00    +0.000 F 
ATOM     21  C   UNL     1       0.427  13.184  18.571  0.00  0.00    +0.000 A 
ATOM     22  C   UNL     1       0.425  11.952  19.251  0.00  0.00    +0.000 A 
ENDBRANCH   8  14
ENDBRANCH   1  10
BRANCH   6  23
ATOM     23  S   UNL     1       4.951   4.228  18.028  0.00  0.00    +0.000 S 
ATOM     24  O   UNL     1       6.177   4.222  18.783  0.00  0.00    +0.000 OA
ATOM     25  O   UNL     1       4.525   3.027  17.340  0.00  0.00    +0.000 OA
BRANCH  23  26
ATOM     26  N   UNL     1       5.030   5.473  16.858  0.00  0.00    +0.000 NA
ATOM     27  C   UNL     1       5.386   5.112  15.452  0.00  0.00    +0.000 C 
ATOM     28  C   UNL     1       6.892   4.868  15.293  0.00  0.00    +0.000 C 
ATOM     29  O   UNL     1       7.662   5.996  15.733  0.00  0.00    +0.000 OA
ATOM     30  C   UNL     1       7.361   6.356  17.092  0.00  0.00    +0.000 C 
ATOM     31  C   UNL     1       5.866   6.653  17.272  0.00  0.00    +0.000 C 
ENDBRANCH  23  26
ENDBRANCH   6  23
TORSDOF 4
ENDMDL
MODEL 7
REMARK VINA RESULT:      -7.9      1.158      1.728
REMARK  Name = 
REMARK  5 active torsions:
REMARK  status: ('A' for Active; 'I' for Inactive)
REMARK    1  A    between atoms: C_1  and  C_2
REMARK    2  A    between atoms: C_3  and  C_4
REMARK    3  A    between atoms: N_6  and  C_7
REMARK    4  A    between atoms: C_12  and  S_13
REMARK    5  A    between atoms: S_13  and  N_16
REMARK                            x       y       z     vdW  Elec       q    Type
REMARK                         _______ _______ _______ _____ _____    ______ ____
ROOT
ATOM      1  C   UNL     1       2.000   6.885  20.067  0.00  0.00    +0.000 A 
ATOM      2  C   UNL     1       1.390   5.913  20.870  0.00  0.00    +0.000 A 
ATOM      3  C   UNL     1       1.870   4.601  20.931  0.00  0.00    +0.000 A 
ATOM      4  C   UNL     1       2.979   4.215  20.180  0.00  0.00    +0.000 A 
ATOM      5 CL   UNL     1       3.522   2.590  20.382  0.00  0.00    +0.000 Cl
ATOM      6  C   UNL     1       3.576   5.154  19.339  0.00  0.00    +0.000 A 
ATOM      7  C   UNL     1       3.067   6.477  19.259  0.00  0.00    +0.000 A 
ENDROOT
BRANCH   1  10
ATOM      8  C   UNL     1       1.319   8.991  18.924  0.00  0.00    +0.000 C 
ATOM      9  O   UNL     1       1.431   8.507  17.795  0.00  0.00    +0.000 OA
ATOM     10  N   UNL     1       1.609   8.259  20.072  0.00  0.00    +0.000 N 
ATOM     11  H   UNL     1       1.366   8.695  20.954  0.00  0.00    +0.000 HD
BRANCH   8  14
ATOM     12  C   UNL     1       2.676  11.725  17.885  0.00  0.00    +0.000 C 
ATOM     13  C   UNL     1       1.416  11.541  18.652  0.00  0.00    +0.000 A 
ATOM     14  C   UNL     1       0.816  10.350  19.061  0.00  0.00    +0.000 A 
ATOM     15  O   UNL     1      -0.371  10.628  19.701  0.00  0.00    +0.000 OA
ATOM     16  C   UNL     1      -0.477  11.996  19.778  0.00  0.00    +0.000 A 
ATOM     17  C   UNL     1      -1.498  12.727  20.393  0.00  0.00    +0.000 A 
ATOM     18  C   UNL     1      -1.363  14.127  20.395  0.00  0.00    +0.000 A 
ATOM     19  C   UNL     1      -0.268  14.741  19.796  0.00  0.00    +0.000 A 
ATOM     20  F   UNL     1      -0.157  16.076  19.834  0.00  0.00    +0.000 F 
ATOM     21  C   UNL     1       0.725  14.000  19.164  0.00  0.00    +0.000 A 
ATOM     22  C   UNL     1       0.615  12.597  19.162  0.00  0.00    +0.000 A 
ENDBRANCH   8  14
ENDBRANCH   1  10
BRANCH   6  23
ATOM     23  S   UNL     1       4.962   4.713  18.326  0.00  0.00    +0.000 S 
ATOM     24  O   UNL     1       6.142   4.722  19.152  0.00  0.00    +0.000 OA
ATOM     25  O   UNL     1       4.591   3.506  17.616  0.00  0.00    +0.000 OA
BRANCH  23  26
ATOM     26  N   UNL     1       5.095   5.958  17.161  0.00  0.00    +0.000 NA
ATOM     27  C   UNL     1       5.263   5.578  15.725  0.00  0.00    +0.000 C 
ATOM     28  C   UNL     1       6.699   5.137  15.418  0.00  0.00    +0.000 C 
ATOM     29  O   UNL     1       7.654   6.143  15.786  0.00  0.00    +0.000 OA
ATOM     30  C   UNL     1       7.536   6.515  17.169  0.00  0.00    +0.000 C 
ATOM     31  C   UNL     1       6.120   7.007  17.496  0.00  0.00    +0.000 C 
ENDBRANCH  23  26
ENDBRANCH   6  23
TORSDOF 4
ENDMDL
MODEL 8
REMARK VINA RESULT:      -7.8      3.523      4.825
REMARK  Name = 
REMARK  5 active torsions:
REMARK  status: ('A' for Active; 'I' for Inactive)
REMARK    1  A    between atoms: C_1  and  C_2
REMARK    2  A    between atoms: C_3  and  C_4
REMARK    3  A    between atoms: N_6  and  C_7
REMARK    4  A    between atoms: C_12  and  S_13
REMARK    5  A    between atoms: S_13  and  N_16
REMARK                            x       y       z     vdW  Elec       q    Type
REMARK                         _______ _______ _______ _____ _____    ______ ____
ROOT
ATOM      1  C   UNL     1       1.388   9.069  19.440  0.00  0.00    +0.000 A 
ATOM      2  C   UNL     1       1.915   9.573  18.243  0.00  0.00    +0.000 A 
ATOM      3  C   UNL     1       2.777   8.818  17.442  0.00  0.00    +0.000 A 
ATOM      4  C   UNL     1       3.149   7.529  17.819  0.00  0.00    +0.000 A 
ATOM      5 CL   UNL     1       4.166   6.666  16.724  0.00  0.00    +0.000 Cl
ATOM      6  C   UNL     1       2.673   7.022  19.028  0.00  0.00    +0.000 A 
ATOM      7  C   UNL     1       1.821   7.804  19.852  0.00  0.00    +0.000 A 
ENDROOT
BRANCH   1  10
ATOM      8  C   UNL     1       0.520  11.107  20.578  0.00  0.00    +0.000 C 
ATOM      9  O   UNL     1       1.506  11.787  20.285  0.00  0.00    +0.000 OA
ATOM     10  N   UNL     1       0.414   9.767  20.219  0.00  0.00    +0.000 N 
ATOM     11  H   UNL     1      -0.482   9.326  20.389  0.00  0.00    +0.000 HD
BRANCH   8  14
ATOM     12  C   UNL     1      -0.851  10.217  23.358  0.00  0.00    +0.000 C 
ATOM     13  C   UNL     1      -1.217  11.340  22.453  0.00  0.00    +0.000 A 
ATOM     14  C   UNL     1      -0.591  11.741  21.274  0.00  0.00    +0.000 A 
ATOM     15  O   UNL     1      -1.219  12.861  20.776  0.00  0.00    +0.000 OA
ATOM     16  C   UNL     1      -2.298  13.113  21.590  0.00  0.00    +0.000 A 
ATOM     17  C   UNL     1      -3.251  14.124  21.434  0.00  0.00    +0.000 A 
ATOM     18  C   UNL     1      -4.304  14.152  22.366  0.00  0.00    +0.000 A 
ATOM     19  C   UNL     1      -4.373  13.220  23.397  0.00  0.00    +0.000 A 
ATOM     20  F   UNL     1      -5.401  13.260  24.255  0.00  0.00    +0.000 F 
ATOM     21  C   UNL     1      -3.401  12.238  23.554  0.00  0.00    +0.000 A 
ATOM     22  C   UNL     1      -2.345  12.185  22.625  0.00  0.00    +0.000 A 
ENDBRANCH   8  14
ENDBRANCH   1  10
BRANCH   6  23
ATOM     23  S   UNL     1       3.144   5.406  19.584  0.00  0.00    +0.000 S 
ATOM     24  O   UNL     1       4.578   5.376  19.711  0.00  0.00    +0.000 OA
ATOM     25  O   UNL     1       2.314   5.104  20.732  0.00  0.00    +0.000 OA
BRANCH  23  26
ATOM     26  N   UNL     1       2.679   4.335  18.335  0.00  0.00    +0.000 NA
ATOM     27  C   UNL     1       1.310   3.737  18.378  0.00  0.00    +0.000 C 
ATOM     28  C   UNL     1       1.223   2.591  19.393  0.00  0.00    +0.000 C 
ATOM     29  O   UNL     1       2.205   1.577  19.136  0.00  0.00    +0.000 OA
ATOM     30  C   UNL     1       3.538   2.115  19.110  0.00  0.00    +0.000 C 
ATOM     31  C   UNL     1       3.668   3.234  18.069  0.00  0.00    +0.000 C 
ENDBRANCH  23  26
ENDBRANCH   6  23
TORSDOF 4
ENDMDL
MODEL 9
REMARK VINA RESULT:      -7.8      3.585      4.913
REMARK  Name = 
REMARK  5 active torsions:
REMARK  status: ('A' for Active; 'I' for Inactive)
REMARK    1  A    between atoms: C_1  and  C_2
REMARK    2  A    between atoms: C_3  and  C_4
REMARK    3  A    between atoms: N_6  and  C_7
REMARK    4  A    between atoms: C_12  and  S_13
REMARK    5  A    between atoms: S_13  and  N_16
REMARK                            x       y       z     vdW  Elec       q    Type
REMARK                         _______ _______ _______ _____ _____    ______ ____
ROOT
ATOM      1  C   UNL     1       1.103   9.121  19.335  0.00  0.00    +0.000 A 
ATOM      2  C   UNL     1       1.768   9.686  18.238  0.00  0.00    +0.000 A 
ATOM      3  C   UNL     1       2.765   8.992  17.544  0.00  0.00    +0.000 A 
ATOM      4  C   UNL     1       3.137   7.707  17.934  0.00  0.00    +0.000 A 
ATOM      5 CL   UNL     1       4.333   6.923  16.968  0.00  0.00    +0.000 Cl
ATOM      6  C   UNL     1       2.522   7.142  19.050  0.00  0.00    +0.000 A 
ATOM      7  C   UNL     1       1.530   7.861  19.768  0.00  0.00    +0.000 A 
ENDROOT
BRANCH   1  10
ATOM      8  C   UNL     1       0.136  10.728  20.973  0.00  0.00    +0.000 C 
ATOM      9  O   UNL     1       1.239  11.086  21.393  0.00  0.00    +0.000 OA
ATOM     10  N   UNL     1       0.002   9.753  19.989  0.00  0.00    +0.000 N 
ATOM     11  H   UNL     1      -0.931   9.617  19.618  0.00  0.00    +0.000 HD
BRANCH   8  14
ATOM     12  C   UNL     1      -1.814  12.784  19.434  0.00  0.00    +0.000 C 
ATOM     13  C   UNL     1      -1.884  12.306  20.841  0.00  0.00    +0.000 A 
ATOM     14  C   UNL     1      -1.059  11.384  21.484  0.00  0.00    +0.000 A 
ATOM     15  O   UNL     1      -1.506  11.185  22.772  0.00  0.00    +0.000 OA
ATOM     16  C   UNL     1      -2.557  12.049  22.971  0.00  0.00    +0.000 A 
ATOM     17  C   UNL     1      -3.284  12.230  24.151  0.00  0.00    +0.000 A 
ATOM     18  C   UNL     1      -4.285  13.217  24.135  0.00  0.00    +0.000 A 
ATOM     19  C   UNL     1      -4.538  13.961  22.986  0.00  0.00    +0.000 A 
ATOM     20  F   UNL     1      -5.483  14.911  23.009  0.00  0.00    +0.000 F 
ATOM     21  C   UNL     1      -3.823  13.750  21.812  0.00  0.00    +0.000 A 
ATOM     22  C   UNL     1      -2.808  12.774  21.811  0.00  0.00    +0.000 A 
ENDBRANCH   8  14
ENDBRANCH   1  10
BRANCH   6  23
ATOM     23  S   UNL     1       2.982   5.528  19.621  0.00  0.00    +0.000 S 
ATOM     24  O   UNL     1       4.413   5.501  19.783  0.00  0.00    +0.000 OA
ATOM     25  O   UNL     1       2.125   5.228  20.750  0.00  0.00    +0.000 OA
BRANCH  23  26
ATOM     26  N   UNL     1       2.549   4.453  18.364  0.00  0.00    +0.000 NA
ATOM     27  C   UNL     1       1.233   3.749  18.446  0.00  0.00    +0.000 C 
ATOM     28  C   UNL     1       1.277   2.577  19.434  0.00  0.00    +0.000 C 
ATOM     29  O   UNL     1       2.323   1.649  19.111  0.00  0.00    +0.000 OA
ATOM     30  C   UNL     1       3.608   2.289  19.047  0.00  0.00    +0.000 C 
ATOM     31  C   UNL     1       3.609   3.438  18.030  0.00  0.00    +0.000 C 
ENDBRANCH  23  26
ENDBRANCH   6  23
TORSDOF 4
ENDMDL
