MODEL 1
REMARK VINA RESULT:      -8.7      0.000      0.000
REMARK  Name = 
REMARK  5 active torsions:
REMARK  status: ('A' for Active; 'I' for Inactive)
REMARK    1  A    between atoms: C_1  and  C_2
REMARK    2  A    between atoms: C_5  and  N_6
REMARK    3  A    between atoms: C_7  and  C_9
REMARK    4  A    between atoms: C_9  and  C_10
REMARK    5  A    between atoms: C_22  and  C_23
REMARK                            x       y       z     vdW  Elec       q    Type
REMARK                         _______ _______ _______ _____ _____    ______ ____
ROOT
ATOM      1  N   UNL     1       2.808   5.552  18.401  0.00  0.00    +0.000 N 
ATOM      2  C   UNL     1       2.125   4.528  17.760  0.00  0.00    +0.000 C 
ATOM      3  O   UNL     1       0.904   4.426  17.648  0.00  0.00    +0.000 OA
ATOM      4  H   UNL     1       3.808   5.612  18.227  0.00  0.00    +0.000 HD
ENDROOT
BRANCH   1   9
ATOM      5  C   UNL     1       0.338   9.831  21.362  0.00  0.00    +0.000 C 
ATOM      6  C   UNL     1       1.022   8.754  20.562  0.00  0.00    +0.000 A 
ATOM      7  C   UNL     1       1.190   7.496  21.155  0.00  0.00    +0.000 A 
ATOM      8  C   UNL     1       1.780   6.438  20.460  0.00  0.00    +0.000 A 
ATOM      9  C   UNL     1       2.224   6.601  19.150  0.00  0.00    +0.000 A 
ATOM     10  C   UNL     1       2.099   7.868  18.562  0.00  0.00    +0.000 A 
ATOM     11  C   UNL     1       1.486   8.952  19.244  0.00  0.00    +0.000 A 
BRANCH  11  12
ATOM     12  C   UNL     1       1.352  10.268  18.501  0.00  0.00    +0.000 C 
ATOM     13  F   UNL     1       1.735  11.373  19.190  0.00  0.00    +0.000 F 
ATOM     14  F   UNL     1       2.086  10.282  17.351  0.00  0.00    +0.000 F 
ATOM     15  F   UNL     1       0.065  10.507  18.114  0.00  0.00    +0.000 F 
ENDBRANCH  11  12
ENDBRANCH   1   9
BRANCH   2  16
ATOM     16  C   UNL     1       3.014   3.459  17.168  0.00  0.00    +0.000 C 
BRANCH  16  17
ATOM     17  C   UNL     1       4.481   3.724  17.401  0.00  0.00    +0.000 A 
ATOM     18  N   UNL     1       4.869   3.711  18.643  0.00  0.00    +0.000 NA
ATOM     19  N   UNL     1       6.163   4.017  18.913  0.00  0.00    +0.000 N 
ATOM     20  C   UNL     1       7.091   4.471  18.007  0.00  0.00    +0.000 A 
ATOM     21  O   UNL     1       8.217   4.810  18.342  0.00  0.00    +0.000 OA
ATOM     22  C   UNL     1       6.664   4.500  16.600  0.00  0.00    +0.000 A 
ATOM     23  C   UNL     1       7.550   4.936  15.607  0.00  0.00    +0.000 A 
ATOM     24  C   UNL     1       7.166   4.888  14.269  0.00  0.00    +0.000 A 
ATOM     25  C   UNL     1       5.910   4.389  13.927  0.00  0.00    +0.000 A 
ATOM     26  C   UNL     1       5.014   3.978  14.922  0.00  0.00    +0.000 A 
ATOM     27  C   UNL     1       5.382   4.058  16.271  0.00  0.00    +0.000 A 
ATOM     28  H   UNL     1       6.456   3.964  19.883  0.00  0.00    +0.000 HD
ENDBRANCH  16  17
ENDBRANCH   2  16
TORSDOF 4
ENDMDL
MODEL 2
REMARK VINA RESULT:      -8.7      4.810      8.911
REMARK  Name = 
REMARK  5 active torsions:
REMARK  status: ('A' for Active; 'I' for Inactive)
REMARK    1  A    between atoms: C_1  and  C_2
REMARK    2  A    between atoms: C_5  and  N_6
REMARK    3  A    between atoms: C_7  and  C_9
REMARK    4  A    between atoms: C_9  and  C_10
REMARK    5  A    between atoms: C_22  and  C_23
REMARK                            x       y       z     vdW  Elec       q    Type
REMARK                         _______ _______ _______ _____ _____    ______ ____
ROOT
ATOM      1  N   UNL     1       1.855   7.846  21.247  0.00  0.00    +0.000 N 
ATOM      2  C   UNL     1       0.664   8.423  21.665  0.00  0.00    +0.000 C 
ATOM      3  O   UNL     1      -0.469   8.059  21.357  0.00  0.00    +0.000 OA
ATOM      4  H   UNL     1       2.696   8.116  21.752  0.00  0.00    +0.000 HD
ENDROOT
BRANCH   1   9
ATOM      5  C   UNL     1       2.269   3.611  17.364  0.00  0.00    +0.000 C 
ATOM      6  C   UNL     1       2.178   4.678  18.423  0.00  0.00    +0.000 A 
ATOM      7  C   UNL     1       2.549   5.984  18.079  0.00  0.00    +0.000 A 
ATOM      8  C   UNL     1       2.454   7.032  18.998  0.00  0.00    +0.000 A 
ATOM      9  C   UNL     1       1.987   6.810  20.291  0.00  0.00    +0.000 A 
ATOM     10  C   UNL     1       1.654   5.499  20.658  0.00  0.00    +0.000 A 
ATOM     11  C   UNL     1       1.725   4.422  19.735  0.00  0.00    +0.000 A 
BRANCH  11  12
ATOM     12  C   UNL     1       1.292   3.051  20.217  0.00  0.00    +0.000 C 
ATOM     13  F   UNL     1       0.922   2.977  21.522  0.00  0.00    +0.000 F 
ATOM     14  F   UNL     1       0.228   2.572  19.509  0.00  0.00    +0.000 F 
ATOM     15  F   UNL     1       2.279   2.121  20.065  0.00  0.00    +0.000 F 
ENDBRANCH  11  12
ENDBRANCH   1   9
BRANCH   2  16
ATOM     16  C   UNL     1       0.836   9.613  22.581  0.00  0.00    +0.000 C 
BRANCH  16  17
ATOM     17  C   UNL     1      -0.221  10.669  22.371  0.00  0.00    +0.000 A 
ATOM     18  N   UNL     1      -1.109  10.779  23.316  0.00  0.00    +0.000 NA
ATOM     19  N   UNL     1      -2.124  11.663  23.142  0.00  0.00    +0.000 N 
ATOM     20  C   UNL     1      -2.387  12.374  21.995  0.00  0.00    +0.000 A 
ATOM     21  O   UNL     1      -3.373  13.088  21.884  0.00  0.00    +0.000 OA
ATOM     22  C   UNL     1      -1.396  12.252  20.915  0.00  0.00    +0.000 A 
ATOM     23  C   UNL     1      -1.578  12.952  19.715  0.00  0.00    +0.000 A 
ATOM     24  C   UNL     1      -0.599  12.894  18.726  0.00  0.00    +0.000 A 
ATOM     25  C   UNL     1       0.562  12.155  18.945  0.00  0.00    +0.000 A 
ATOM     26  C   UNL     1       0.731  11.432  20.133  0.00  0.00    +0.000 A 
ATOM     27  C   UNL     1      -0.266  11.459  21.116  0.00  0.00    +0.000 A 
ATOM     28  H   UNL     1      -2.784  11.763  23.906  0.00  0.00    +0.000 HD
ENDBRANCH  16  17
ENDBRANCH   2  16
TORSDOF 4
ENDMDL
MODEL 3
REMARK VINA RESULT:      -8.6      4.826      9.372
REMARK  Name = 
REMARK  5 active torsions:
REMARK  status: ('A' for Active; 'I' for Inactive)
REMARK    1  A    between atoms: C_1  and  C_2
REMARK    2  A    between atoms: C_5  and  N_6
REMARK    3  A    between atoms: C_7  and  C_9
REMARK    4  A    between atoms: C_9  and  C_10
REMARK    5  A    between atoms: C_22  and  C_23
REMARK                            x       y       z     vdW  Elec       q    Type
REMARK                         _______ _______ _______ _____ _____    ______ ____
ROOT
ATOM      1  N   UNL     1       1.572   7.961  21.402  0.00  0.00    +0.000 N 
ATOM      2  C   UNL     1       0.324   8.402  21.820  0.00  0.00    +0.000 C 
ATOM      3  O   UNL     1      -0.763   7.931  21.490  0.00  0.00    +0.000 OA
ATOM      4  H   UNL     1       2.375   8.305  21.923  0.00  0.00    +0.000 HD
ENDROOT
BRANCH   1   9
ATOM      5  C   UNL     1       2.457   3.889  17.425  0.00  0.00    +0.000 C 
ATOM      6  C   UNL     1       2.242   4.914  18.508  0.00  0.00    +0.000 A 
ATOM      7  C   UNL     1       2.548   6.251  18.224  0.00  0.00    +0.000 A 
ATOM      8  C   UNL     1       2.339   7.260  19.166  0.00  0.00    +0.000 A 
ATOM      9  C   UNL     1       1.819   6.968  20.425  0.00  0.00    +0.000 A 
ATOM     10  C   UNL     1       1.550   5.627  20.734  0.00  0.00    +0.000 A 
ATOM     11  C   UNL     1       1.738   4.588  19.785  0.00  0.00    +0.000 A 
BRANCH  11  12
ATOM     12  C   UNL     1       1.366   3.177  20.201  0.00  0.00    +0.000 C 
ATOM     13  F   UNL     1       2.349   2.249  20.074  0.00  0.00    +0.000 F 
ATOM     14  F   UNL     1       0.973   3.116  21.506  0.00  0.00    +0.000 F 
ATOM     15  F   UNL     1       0.313   2.693  19.481  0.00  0.00    +0.000 F 
ENDBRANCH  11  12
ENDBRANCH   1   9
BRANCH   2  16
ATOM     16  C   UNL     1       0.363   9.582  22.764  0.00  0.00    +0.000 C 
BRANCH  16  17
ATOM     17  C   UNL     1       0.221  10.905  22.053  0.00  0.00    +0.000 A 
ATOM     18  N   UNL     1       1.171  11.204  21.216  0.00  0.00    +0.000 NA
ATOM     19  N   UNL     1       1.129  12.416  20.606  0.00  0.00    +0.000 N 
ATOM     20  C   UNL     1       0.241  13.428  20.882  0.00  0.00    +0.000 A 
ATOM     21  O   UNL     1       0.320  14.526  20.350  0.00  0.00    +0.000 OA
ATOM     22  C   UNL     1      -0.834  13.107  21.833  0.00  0.00    +0.000 A 
ATOM     23  C   UNL     1      -1.791  14.075  22.162  0.00  0.00    +0.000 A 
ATOM     24  C   UNL     1      -2.850  13.742  23.003  0.00  0.00    +0.000 A 
ATOM     25  C   UNL     1      -2.959  12.443  23.496  0.00  0.00    +0.000 A 
ATOM     26  C   UNL     1      -1.986  11.482  23.190  0.00  0.00    +0.000 A 
ATOM     27  C   UNL     1      -0.901  11.822  22.373  0.00  0.00    +0.000 A 
ATOM     28  H   UNL     1       1.858  12.616  19.928  0.00  0.00    +0.000 HD
ENDBRANCH  16  17
ENDBRANCH   2  16
TORSDOF 4
ENDMDL
MODEL 4
REMARK VINA RESULT:      -8.6      1.693      2.294
REMARK  Name = 
REMARK  5 active torsions:
REMARK  status: ('A' for Active; 'I' for Inactive)
REMARK    1  A    between atoms: C_1  and  C_2
REMARK    2  A    between atoms: C_5  and  N_6
REMARK    3  A    between atoms: C_7  and  C_9
REMARK    4  A    between atoms: C_9  and  C_10
REMARK    5  A    between atoms: C_22  and  C_23
REMARK                            x       y       z     vdW  Elec       q    Type
REMARK                         _______ _______ _______ _____ _____    ______ ____
ROOT
ATOM      1  N   UNL     1       2.968   6.268  18.882  0.00  0.00    +0.000 N 
ATOM      2  C   UNL     1       2.480   5.020  18.521  0.00  0.00    +0.000 C 
ATOM      3  O   UNL     1       1.346   4.770  18.117  0.00  0.00    +0.000 OA
ATOM      4  H   UNL     1       3.976   6.352  18.987  0.00  0.00    +0.000 HD
ENDROOT
BRANCH   1   9
ATOM      5  C   UNL     1      -0.021  11.173  19.322  0.00  0.00    +0.000 C 
ATOM      6  C   UNL     1       0.724   9.866  19.250  0.00  0.00    +0.000 A 
ATOM      7  C   UNL     1       1.206   9.447  18.003  0.00  0.00    +0.000 A 
ATOM      8  C   UNL     1       1.939   8.266  17.867  0.00  0.00    +0.000 A 
ATOM      9  C   UNL     1       2.212   7.462  18.971  0.00  0.00    +0.000 A 
ATOM     10  C   UNL     1       1.698   7.850  20.216  0.00  0.00    +0.000 A 
ATOM     11  C   UNL     1       0.967   9.057  20.380  0.00  0.00    +0.000 A 
BRANCH  11  12
ATOM     12  C   UNL     1       0.500   9.413  21.779  0.00  0.00    +0.000 C 
ATOM     13  F   UNL     1       0.433  10.741  22.056  0.00  0.00    +0.000 F 
ATOM     14  F   UNL     1      -0.746   8.923  22.042  0.00  0.00    +0.000 F 
ATOM     15  F   UNL     1       1.311   8.881  22.739  0.00  0.00    +0.000 F 
ENDBRANCH  11  12
ENDBRANCH   1   9
BRANCH   2  16
ATOM     16  C   UNL     1       3.480   3.895  18.662  0.00  0.00    +0.000 C 
BRANCH  16  17
ATOM     17  C   UNL     1       4.908   4.362  18.524  0.00  0.00    +0.000 A 
ATOM     18  N   UNL     1       5.490   4.738  19.626  0.00  0.00    +0.000 NA
ATOM     19  N   UNL     1       6.750   5.237  19.546  0.00  0.00    +0.000 N 
ATOM     20  C   UNL     1       7.438   5.509  18.389  0.00  0.00    +0.000 A 
ATOM     21  O   UNL     1       8.540   6.040  18.396  0.00  0.00    +0.000 OA
ATOM     22  C   UNL     1       6.789   5.098  17.135  0.00  0.00    +0.000 A 
ATOM     23  C   UNL     1       7.425   5.325  15.908  0.00  0.00    +0.000 A 
ATOM     24  C   UNL     1       6.841   4.864  14.731  0.00  0.00    +0.000 A 
ATOM     25  C   UNL     1       5.637   4.164  14.784  0.00  0.00    +0.000 A 
ATOM     26  C   UNL     1       4.986   3.962  16.008  0.00  0.00    +0.000 A 
ATOM     27  C   UNL     1       5.552   4.454  17.191  0.00  0.00    +0.000 A 
ATOM     28  H   UNL     1       7.202   5.489  20.420  0.00  0.00    +0.000 HD
ENDBRANCH  16  17
ENDBRANCH   2  16
TORSDOF 4
ENDMDL
MODEL 5
REMARK VINA RESULT:      -8.5      5.755      7.130
REMARK  Name = 
REMARK  5 active torsions:
REMARK  status: ('A' for Active; 'I' for Inactive)
REMARK    1  A    between atoms: C_1  and  C_2
REMARK    2  A    between atoms: C_5  and  N_6
REMARK    3  A    between atoms: C_7  and  C_9
REMARK    4  A    between atoms: C_9  and  C_10
REMARK    5  A    between atoms: C_22  and  C_23
REMARK                            x       y       z     vdW  Elec       q    Type
REMARK                         _______ _______ _______ _____ _____    ______ ____
ROOT
ATOM      1  N   UNL     1       8.987   8.803  18.993  0.00  0.00    +0.000 N 
ATOM      2  C   UNL     1       8.045   8.140  18.218  0.00  0.00    +0.000 C 
ATOM      3  O   UNL     1       7.351   8.637  17.333  0.00  0.00    +0.000 OA
ATOM      4  H   UNL     1       9.629   8.223  19.527  0.00  0.00    +0.000 HD
ENDROOT
BRANCH   1   9
ATOM      5  C   UNL     1      10.074  14.459  19.075  0.00  0.00    +0.000 C 
ATOM      6  C   UNL     1       9.745  12.990  19.095  0.00  0.00    +0.000 A 
ATOM      7  C   UNL     1       9.866  12.269  17.900  0.00  0.00    +0.000 A 
ATOM      8  C   UNL     1       9.615  10.896  17.851  0.00  0.00    +0.000 A 
ATOM      9  C   UNL     1       9.232  10.197  18.993  0.00  0.00    +0.000 A 
ATOM     10  C   UNL     1       9.066  10.917  20.184  0.00  0.00    +0.000 A 
ATOM     11  C   UNL     1       9.334  12.309  20.261  0.00  0.00    +0.000 A 
BRANCH  11  12
ATOM     12  C   UNL     1       9.175  12.985  21.610  0.00  0.00    +0.000 C 
ATOM     13  F   UNL     1       8.124  13.837  21.720  0.00  0.00    +0.000 F 
ATOM     14  F   UNL     1       9.019  12.080  22.619  0.00  0.00    +0.000 F 
ATOM     15  F   UNL     1      10.276  13.719  21.946  0.00  0.00    +0.000 F 
ENDBRANCH  11  12
ENDBRANCH   1   9
BRANCH   2  16
ATOM     16  C   UNL     1       7.896   6.670  18.538  0.00  0.00    +0.000 C 
BRANCH  16  17
ATOM     17  C   UNL     1       7.207   5.900  17.440  0.00  0.00    +0.000 A 
ATOM     18  N   UNL     1       7.679   6.077  16.240  0.00  0.00    +0.000 NA
ATOM     19  N   UNL     1       7.048   5.465  15.206  0.00  0.00    +0.000 N 
ATOM     20  C   UNL     1       5.866   4.768  15.281  0.00  0.00    +0.000 A 
ATOM     21  O   UNL     1       5.312   4.317  14.289  0.00  0.00    +0.000 OA
ATOM     22  C   UNL     1       5.316   4.567  16.630  0.00  0.00    +0.000 A 
ATOM     23  C   UNL     1       4.121   3.856  16.801  0.00  0.00    +0.000 A 
ATOM     24  C   UNL     1       3.646   3.602  18.085  0.00  0.00    +0.000 A 
ATOM     25  C   UNL     1       4.372   4.042  19.191  0.00  0.00    +0.000 A 
ATOM     26  C   UNL     1       5.552   4.777  19.020  0.00  0.00    +0.000 A 
ATOM     27  C   UNL     1       6.016   5.064  17.730  0.00  0.00    +0.000 A 
ATOM     28  H   UNL     1       7.454   5.585  14.283  0.00  0.00    +0.000 HD
ENDBRANCH  16  17
ENDBRANCH   2  16
TORSDOF 4
ENDMDL
MODEL 6
REMARK VINA RESULT:      -8.5      4.422      7.616
REMARK  Name = 
REMARK  5 active torsions:
REMARK  status: ('A' for Active; 'I' for Inactive)
REMARK    1  A    between atoms: C_1  and  C_2
REMARK    2  A    between atoms: C_5  and  N_6
REMARK    3  A    between atoms: C_7  and  C_9
REMARK    4  A    between atoms: C_9  and  C_10
REMARK    5  A    between atoms: C_22  and  C_23
REMARK                            x       y       z     vdW  Elec       q    Type
REMARK                         _______ _______ _______ _____ _____    ______ ____
ROOT
ATOM      1  N   UNL     1       4.836   5.050  16.106  0.00  0.00    +0.000 N 
ATOM      2  C   UNL     1       4.986   6.250  16.788  0.00  0.00    +0.000 C 
ATOM      3  O   UNL     1       5.634   7.225  16.412  0.00  0.00    +0.000 OA
ATOM      4  H   UNL     1       4.103   4.426  16.434  0.00  0.00    +0.000 HD
ENDROOT
BRANCH   1   9
ATOM      5  C   UNL     1       7.475   3.638  11.184  0.00  0.00    +0.000 C 
ATOM      6  C   UNL     1       6.748   3.958  12.463  0.00  0.00    +0.000 A 
ATOM      7  C   UNL     1       7.485   4.500  13.524  0.00  0.00    +0.000 A 
ATOM      8  C   UNL     1       6.871   4.858  14.727  0.00  0.00    +0.000 A 
ATOM      9  C   UNL     1       5.502   4.683  14.911  0.00  0.00    +0.000 A 
ATOM     10  C   UNL     1       4.763   4.101  13.872  0.00  0.00    +0.000 A 
ATOM     11  C   UNL     1       5.363   3.748  12.634  0.00  0.00    +0.000 A 
BRANCH  11  12
ATOM     12  C   UNL     1       4.466   3.174  11.554  0.00  0.00    +0.000 C 
ATOM     13  F   UNL     1       4.283   3.962  10.463  0.00  0.00    +0.000 F 
ATOM     14  F   UNL     1       4.938   1.988  11.074  0.00  0.00    +0.000 F 
ATOM     15  F   UNL     1       3.213   2.905  12.022  0.00  0.00    +0.000 F 
ENDBRANCH  11  12
ENDBRANCH   1   9
BRANCH   2  16
ATOM     16  C   UNL     1       4.267   6.305  18.117  0.00  0.00    +0.000 C 
BRANCH  16  17
ATOM     17  C   UNL     1       4.403   5.028  18.908  0.00  0.00    +0.000 A 
ATOM     18  N   UNL     1       5.562   4.440  18.842  0.00  0.00    +0.000 NA
ATOM     19  N   UNL     1       5.713   3.250  19.476  0.00  0.00    +0.000 N 
ATOM     20  C   UNL     1       4.715   2.526  20.083  0.00  0.00    +0.000 A 
ATOM     21  O   UNL     1       4.912   1.417  20.559  0.00  0.00    +0.000 OA
ATOM     22  C   UNL     1       3.397   3.174  20.157  0.00  0.00    +0.000 A 
ATOM     23  C   UNL     1       2.325   2.514  20.771  0.00  0.00    +0.000 A 
ATOM     24  C   UNL     1       1.100   3.163  20.906  0.00  0.00    +0.000 A 
ATOM     25  C   UNL     1       0.956   4.472  20.447  0.00  0.00    +0.000 A 
ATOM     26  C   UNL     1       2.020   5.122  19.808  0.00  0.00    +0.000 A 
ATOM     27  C   UNL     1       3.243   4.460  19.638  0.00  0.00    +0.000 A 
ATOM     28  H   UNL     1       6.635   2.825  19.445  0.00  0.00    +0.000 HD
ENDBRANCH  16  17
ENDBRANCH   2  16
TORSDOF 4
ENDMDL
MODEL 7
REMARK VINA RESULT:      -8.3      4.587      7.499
REMARK  Name = 
REMARK  5 active torsions:
REMARK  status: ('A' for Active; 'I' for Inactive)
REMARK    1  A    between atoms: C_1  and  C_2
REMARK    2  A    between atoms: C_5  and  N_6
REMARK    3  A    between atoms: C_7  and  C_9
REMARK    4  A    between atoms: C_9  and  C_10
REMARK    5  A    between atoms: C_22  and  C_23
REMARK                            x       y       z     vdW  Elec       q    Type
REMARK                         _______ _______ _______ _____ _____    ______ ____
ROOT
ATOM      1  N   UNL     1       5.164   5.050  16.018  0.00  0.00    +0.000 N 
ATOM      2  C   UNL     1       4.811   6.339  16.392  0.00  0.00    +0.000 C 
ATOM      3  O   UNL     1       4.844   7.340  15.677  0.00  0.00    +0.000 OA
ATOM      4  H   UNL     1       4.881   4.300  16.643  0.00  0.00    +0.000 HD
ENDROOT
BRANCH   1   9
ATOM      5  C   UNL     1       7.451   3.587  10.938  0.00  0.00    +0.000 C 
ATOM      6  C   UNL     1       6.817   3.920  12.262  0.00  0.00    +0.000 A 
ATOM      7  C   UNL     1       7.624   4.481  13.260  0.00  0.00    +0.000 A 
ATOM      8  C   UNL     1       7.096   4.851  14.499  0.00  0.00    +0.000 A 
ATOM      9  C   UNL     1       5.745   4.671  14.784  0.00  0.00    +0.000 A 
ATOM     10  C   UNL     1       4.937   4.072  13.808  0.00  0.00    +0.000 A 
ATOM     11  C   UNL     1       5.449   3.705  12.535  0.00  0.00    +0.000 A 
BRANCH  11  12
ATOM     12  C   UNL     1       4.480   3.112  11.530  0.00  0.00    +0.000 C 
ATOM     13  F   UNL     1       3.237   2.838  12.004  0.00  0.00    +0.000 F 
ATOM     14  F   UNL     1       4.288   3.934  10.458  0.00  0.00    +0.000 F 
ATOM     15  F   UNL     1       4.939   1.937  11.010  0.00  0.00    +0.000 F 
ENDBRANCH  11  12
ENDBRANCH   1   9
BRANCH   2  16
ATOM     16  C   UNL     1       4.355   6.470  17.827  0.00  0.00    +0.000 C 
BRANCH  16  17
ATOM     17  C   UNL     1       4.392   5.160  18.574  0.00  0.00    +0.000 A 
ATOM     18  N   UNL     1       5.547   4.822  19.069  0.00  0.00    +0.000 NA
ATOM     19  N   UNL     1       5.651   3.618  19.686  0.00  0.00    +0.000 N 
ATOM     20  C   UNL     1       4.681   2.646  19.730  0.00  0.00    +0.000 A 
ATOM     21  O   UNL     1       4.879   1.549  20.231  0.00  0.00    +0.000 OA
ATOM     22  C   UNL     1       3.372   3.011  19.165  0.00  0.00    +0.000 A 
ATOM     23  C   UNL     1       2.320   2.086  19.180  0.00  0.00    +0.000 A 
ATOM     24  C   UNL     1       1.063   2.462  18.714  0.00  0.00    +0.000 A 
ATOM     25  C   UNL     1       0.856   3.762  18.255  0.00  0.00    +0.000 A 
ATOM     26  C   UNL     1       1.915   4.678  18.214  0.00  0.00    +0.000 A 
ATOM     27  C   UNL     1       3.190   4.293  18.648  0.00  0.00    +0.000 A 
ATOM     28  H   UNL     1       6.550   3.389  20.100  0.00  0.00    +0.000 HD
ENDBRANCH  16  17
ENDBRANCH   2  16
TORSDOF 4
ENDMDL
MODEL 8
REMARK VINA RESULT:      -8.2      1.039      1.318
REMARK  Name = 
REMARK  5 active torsions:
REMARK  status: ('A' for Active; 'I' for Inactive)
REMARK    1  A    between atoms: C_1  and  C_2
REMARK    2  A    between atoms: C_5  and  N_6
REMARK    3  A    between atoms: C_7  and  C_9
REMARK    4  A    between atoms: C_9  and  C_10
REMARK    5  A    between atoms: C_22  and  C_23
REMARK                            x       y       z     vdW  Elec       q    Type
REMARK                         _______ _______ _______ _____ _____    ______ ____
ROOT
ATOM      1  N   UNL     1       2.915   5.865  19.321  0.00  0.00    +0.000 N 
ATOM      2  C   UNL     1       2.506   4.539  19.295  0.00  0.00    +0.000 C 
ATOM      3  O   UNL     1       1.388   4.116  19.586  0.00  0.00    +0.000 OA
ATOM      4  H   UNL     1       3.790   6.082  18.851  0.00  0.00    +0.000 HD
ENDROOT
BRANCH   1   9
ATOM      5  C   UNL     1      -0.234  10.310  21.194  0.00  0.00    +0.000 C 
ATOM      6  C   UNL     1       0.629   9.188  20.680  0.00  0.00    +0.000 A 
ATOM      7  C   UNL     1       0.743   8.030  21.460  0.00  0.00    +0.000 A 
ATOM      8  C   UNL     1       1.495   6.935  21.029  0.00  0.00    +0.000 A 
ATOM      9  C   UNL     1       2.159   6.960  19.806  0.00  0.00    +0.000 A 
ATOM     10  C   UNL     1       2.087   8.130  19.037  0.00  0.00    +0.000 A 
ATOM     11  C   UNL     1       1.313   9.248  19.447  0.00  0.00    +0.000 A 
BRANCH  11  12
ATOM     12  C   UNL     1       1.257  10.445  18.518  0.00  0.00    +0.000 C 
ATOM     13  F   UNL     1       2.082  10.391  17.440  0.00  0.00    +0.000 F 
ATOM     14  F   UNL     1       0.006  10.641  18.010  0.00  0.00    +0.000 F 
ATOM     15  F   UNL     1       1.576  11.606  19.161  0.00  0.00    +0.000 F 
ENDBRANCH  11  12
ENDBRANCH   1   9
BRANCH   2  16
ATOM     16  C   UNL     1       3.578   3.563  18.866  0.00  0.00    +0.000 C 
BRANCH  16  17
ATOM     17  C   UNL     1       4.924   4.218  18.684  0.00  0.00    +0.000 A 
ATOM     18  N   UNL     1       5.502   4.639  19.771  0.00  0.00    +0.000 NA
ATOM     19  N   UNL     1       6.681   5.302  19.655  0.00  0.00    +0.000 N 
ATOM     20  C   UNL     1       7.274   5.693  18.479  0.00  0.00    +0.000 A 
ATOM     21  O   UNL     1       8.295   6.365  18.456  0.00  0.00    +0.000 OA
ATOM     22  C   UNL     1       6.627   5.232  17.241  0.00  0.00    +0.000 A 
ATOM     23  C   UNL     1       7.171   5.574  15.996  0.00  0.00    +0.000 A 
ATOM     24  C   UNL     1       6.599   5.071  14.830  0.00  0.00    +0.000 A 
ATOM     25  C   UNL     1       5.500   4.216  14.912  0.00  0.00    +0.000 A 
ATOM     26  C   UNL     1       4.939   3.898  16.156  0.00  0.00    +0.000 A 
ATOM     27  C   UNL     1       5.489   4.429  17.328  0.00  0.00    +0.000 A 
ATOM     28  H   UNL     1       7.135   5.589  20.516  0.00  0.00    +0.000 HD
ENDBRANCH  16  17
ENDBRANCH   2  16
TORSDOF 4
ENDMDL
MODEL 9
REMARK VINA RESULT:      -8.1      4.521      8.253
REMARK  Name = 
REMARK  5 active torsions:
REMARK  status: ('A' for Active; 'I' for Inactive)
REMARK    1  A    between atoms: C_1  and  C_2
REMARK    2  A    between atoms: C_5  and  N_6
REMARK    3  A    between atoms: C_7  and  C_9
REMARK    4  A    between atoms: C_9  and  C_10
REMARK    5  A    between atoms: C_22  and  C_23
REMARK                            x       y       z     vdW  Elec       q    Type
REMARK                         _______ _______ _______ _____ _____    ______ ____
ROOT
ATOM      1  N   UNL     1       2.759   7.370  18.066  0.00  0.00    +0.000 N 
ATOM      2  C   UNL     1       1.991   8.323  18.721  0.00  0.00    +0.000 C 
ATOM      3  O   UNL     1       1.638   8.290  19.899  0.00  0.00    +0.000 OA
ATOM      4  H   UNL     1       3.147   7.637  17.165  0.00  0.00    +0.000 HD
ENDROOT
BRANCH   1   9
ATOM      5  C   UNL     1       4.373   2.251  20.157  0.00  0.00    +0.000 C 
ATOM      6  C   UNL     1       3.910   3.593  19.656  0.00  0.00    +0.000 A 
ATOM      7  C   UNL     1       4.862   4.454  19.095  0.00  0.00    +0.000 A 
ATOM      8  C   UNL     1       4.499   5.699  18.575  0.00  0.00    +0.000 A 
ATOM      9  C   UNL     1       3.174   6.126  18.600  0.00  0.00    +0.000 A 
ATOM     10  C   UNL     1       2.221   5.291  19.197  0.00  0.00    +0.000 A 
ATOM     11  C   UNL     1       2.564   4.014  19.715  0.00  0.00    +0.000 A 
BRANCH  11  12
ATOM     12  C   UNL     1       1.449   3.164  20.294  0.00  0.00    +0.000 C 
ATOM     13  F   UNL     1       1.593   2.814  21.598  0.00  0.00    +0.000 F 
ATOM     14  F   UNL     1       0.238   3.788  20.216  0.00  0.00    +0.000 F 
ATOM     15  F   UNL     1       1.298   1.990  19.616  0.00  0.00    +0.000 F 
ENDBRANCH  11  12
ENDBRANCH   1   9
BRANCH   2  16
ATOM     16  C   UNL     1       1.569   9.487  17.854  0.00  0.00    +0.000 C 
BRANCH  16  17
ATOM     17  C   UNL     1       0.659  10.451  18.573  0.00  0.00    +0.000 A 
ATOM     18  N   UNL     1       1.208  11.145  19.528  0.00  0.00    +0.000 NA
ATOM     19  N   UNL     1       0.416  11.973  20.255  0.00  0.00    +0.000 N 
ATOM     20  C   UNL     1      -0.952  12.061  20.171  0.00  0.00    +0.000 A 
ATOM     21  O   UNL     1      -1.607  12.769  20.922  0.00  0.00    +0.000 OA
ATOM     22  C   UNL     1      -1.588  11.275  19.102  0.00  0.00    +0.000 A 
ATOM     23  C   UNL     1      -2.979  11.316  18.935  0.00  0.00    +0.000 A 
ATOM     24  C   UNL     1      -3.567  10.632  17.875  0.00  0.00    +0.000 A 
ATOM     25  C   UNL     1      -2.767   9.927  16.977  0.00  0.00    +0.000 A 
ATOM     26  C   UNL     1      -1.379   9.863  17.160  0.00  0.00    +0.000 A 
ATOM     27  C   UNL     1      -0.787  10.521  18.246  0.00  0.00    +0.000 A 
ATOM     28  H   UNL     1       0.870  12.534  20.970  0.00  0.00    +0.000 HD
ENDBRANCH  16  17
ENDBRANCH   2  16
TORSDOF 4
ENDMDL
