MODEL 1
REMARK VINA RESULT:      -8.0      0.000      0.000
REMARK  Name = 
REMARK  4 active torsions:
REMARK  status: ('A' for Active; 'I' for Inactive)
REMARK    1  A    between atoms: C_1  and  C_2
REMARK    2  A    between atoms: C_5  and  C_6
REMARK    3  A    between atoms: C_9  and  N_10
REMARK    4  A    between atoms: C_11  and  C_13
REMARK                            x       y       z     vdW  Elec       q    Type
REMARK                         _______ _______ _______ _____ _____    ______ ____
ROOT
ATOM      1  N   UNL     1       2.049   8.030  20.102  0.00  0.00    +0.000 N 
ATOM      2  C   UNL     1       2.056   6.647  20.233  0.00  0.00    +0.000 C 
ATOM      3  O   UNL     1       1.241   5.973  20.861  0.00  0.00    +0.000 OA
ATOM      4  H   UNL     1       2.791   8.417  19.525  0.00  0.00    +0.000 HD
ENDROOT
BRANCH   2   5
ATOM      5  C   UNL     1       3.175   5.944  19.447  0.00  0.00    +0.000 C 
ATOM      6  C   UNL     1       2.924   4.429  19.467  0.00  0.00    +0.000 C 
ATOM      7  O   UNL     1       3.230   3.700  18.274  0.00  0.00    +0.000 OA
ATOM      8  C   UNL     1       4.061   4.367  17.425  0.00  0.00    +0.000 A 
ATOM      9  C   UNL     1       4.844   3.608  16.560  0.00  0.00    +0.000 A 
ATOM     10  C   UNL     1       5.694   4.245  15.655  0.00  0.00    +0.000 A 
ATOM     11  C   UNL     1       5.735   5.640  15.597  0.00  0.00    +0.000 A 
ATOM     12  C   UNL     1       4.924   6.399  16.444  0.00  0.00    +0.000 A 
ATOM     13  C   UNL     1       4.097   5.756  17.362  0.00  0.00    +0.000 A 
ATOM     14  O   UNL     1       3.283   6.522  18.146  0.00  0.00    +0.000 OA
ENDBRANCH   2   5
BRANCH   1  18
ATOM     15  C   UNL     1      -0.585  10.719  22.118  0.00  0.00    +0.000 A 
ATOM     16  C   UNL     1      -0.424  10.779  20.728  0.00  0.00    +0.000 A 
ATOM     17  C   UNL     1       0.448   9.910  20.053  0.00  0.00    +0.000 A 
ATOM     18  C   UNL     1       1.180   8.946  20.741  0.00  0.00    +0.000 A 
ATOM     19  C   UNL     1       1.027   8.876  22.132  0.00  0.00    +0.000 A 
ATOM     20  C   UNL     1       0.158   9.754  22.811  0.00  0.00    +0.000 A 
BRANCH  15  25
ATOM     21  C   UNL     1      -4.349  12.731  24.640  0.00  0.00    +0.000 C 
ATOM     22  C   UNL     1      -3.082  12.560  23.901  0.00  0.00    +0.000 A 
ATOM     23  N   UNL     1      -2.234  13.575  23.702  0.00  0.00    +0.000 NA
ATOM     24  N   UNL     1      -1.252  12.967  23.021  0.00  0.00    +0.000 N 
ATOM     25  C   UNL     1      -1.498  11.630  22.826  0.00  0.00    +0.000 A 
ATOM     26  N   UNL     1      -2.669  11.356  23.377  0.00  0.00    +0.000 NA
ATOM     27  H   UNL     1      -0.454  13.511  22.729  0.00  0.00    +0.000 HD
ENDBRANCH  15  25
ENDBRANCH   1  18
TORSDOF 3
ENDMDL
MODEL 2
REMARK VINA RESULT:      -8.0      0.658      1.341
REMARK  Name = 
REMARK  4 active torsions:
REMARK  status: ('A' for Active; 'I' for Inactive)
REMARK    1  A    between atoms: C_1  and  C_2
REMARK    2  A    between atoms: C_5  and  C_6
REMARK    3  A    between atoms: C_9  and  N_10
REMARK    4  A    between atoms: C_11  and  C_13
REMARK                            x       y       z     vdW  Elec       q    Type
REMARK                         _______ _______ _______ _____ _____    ______ ____
ROOT
ATOM      1  N   UNL     1       1.934   8.099  20.346  0.00  0.00    +0.000 N 
ATOM      2  C   UNL     1       1.879   6.710  20.347  0.00  0.00    +0.000 C 
ATOM      3  O   UNL     1       0.998   6.020  20.858  0.00  0.00    +0.000 OA
ATOM      4  H   UNL     1       2.727   8.503  19.854  0.00  0.00    +0.000 HD
ENDROOT
BRANCH   2   5
ATOM      5  C   UNL     1       3.017   6.032  19.568  0.00  0.00    +0.000 C 
ATOM      6  C   UNL     1       2.793   4.513  19.576  0.00  0.00    +0.000 C 
ATOM      7  O   UNL     1       3.123   3.797  18.382  0.00  0.00    +0.000 OA
ATOM      8  C   UNL     1       3.951   4.484  17.546  0.00  0.00    +0.000 A 
ATOM      9  C   UNL     1       4.757   3.744  16.684  0.00  0.00    +0.000 A 
ATOM     10  C   UNL     1       5.605   4.402  15.792  0.00  0.00    +0.000 A 
ATOM     11  C   UNL     1       5.622   5.798  15.744  0.00  0.00    +0.000 A 
ATOM     12  C   UNL     1       4.789   6.537  16.587  0.00  0.00    +0.000 A 
ATOM     13  C   UNL     1       3.964   5.874  17.491  0.00  0.00    +0.000 A 
ATOM     14  O   UNL     1       3.129   6.620  18.272  0.00  0.00    +0.000 OA
ENDBRANCH   2   5
BRANCH   1  18
ATOM     15  C   UNL     1      -0.684  10.869  22.271  0.00  0.00    +0.000 A 
ATOM     16  C   UNL     1       0.013   9.906  23.012  0.00  0.00    +0.000 A 
ATOM     17  C   UNL     1       0.868   8.981  22.392  0.00  0.00    +0.000 A 
ATOM     18  C   UNL     1       1.063   8.991  21.013  0.00  0.00    +0.000 A 
ATOM     19  C   UNL     1       0.370   9.950  20.261  0.00  0.00    +0.000 A 
ATOM     20  C   UNL     1      -0.494  10.874  20.882  0.00  0.00    +0.000 A 
BRANCH  15  25
ATOM     21  C   UNL     1      -2.751  14.934  24.213  0.00  0.00    +0.000 C 
ATOM     22  C   UNL     1      -2.525  13.542  23.775  0.00  0.00    +0.000 A 
ATOM     23  N   UNL     1      -3.449  12.589  23.939  0.00  0.00    +0.000 NA
ATOM     24  N   UNL     1      -2.830  11.528  23.399  0.00  0.00    +0.000 N 
ATOM     25  C   UNL     1      -1.581  11.837  22.921  0.00  0.00    +0.000 A 
ATOM     26  N   UNL     1      -1.368  13.120  23.161  0.00  0.00    +0.000 NA
ATOM     27  H   UNL     1      -3.310  10.640  23.384  0.00  0.00    +0.000 HD
ENDBRANCH  15  25
ENDBRANCH   1  18
TORSDOF 3
ENDMDL
MODEL 3
REMARK VINA RESULT:      -7.9      0.853      1.282
REMARK  Name = 
REMARK  4 active torsions:
REMARK  status: ('A' for Active; 'I' for Inactive)
REMARK    1  A    between atoms: C_1  and  C_2
REMARK    2  A    between atoms: C_5  and  C_6
REMARK    3  A    between atoms: C_9  and  N_10
REMARK    4  A    between atoms: C_11  and  C_13
REMARK                            x       y       z     vdW  Elec       q    Type
REMARK                         _______ _______ _______ _____ _____    ______ ____
ROOT
ATOM      1  N   UNL     1       2.210   7.501  20.103  0.00  0.00    +0.000 N 
ATOM      2  C   UNL     1       2.103   6.120  20.223  0.00  0.00    +0.000 C 
ATOM      3  O   UNL     1       1.226   5.511  20.834  0.00  0.00    +0.000 OA
ATOM      4  H   UNL     1       2.990   7.830  19.539  0.00  0.00    +0.000 HD
ENDROOT
BRANCH   2   5
ATOM      5  C   UNL     1       3.172   5.334  19.448  0.00  0.00    +0.000 C 
ATOM      6  C   UNL     1       2.479   4.331  18.516  0.00  0.00    +0.000 C 
ATOM      7  O   UNL     1       3.066   4.120  17.229  0.00  0.00    +0.000 OA
ATOM      8  C   UNL     1       4.363   4.530  17.147  0.00  0.00    +0.000 A 
ATOM      9  C   UNL     1       5.178   3.911  16.203  0.00  0.00    +0.000 A 
ATOM     10  C   UNL     1       6.508   4.312  16.065  0.00  0.00    +0.000 A 
ATOM     11  C   UNL     1       7.009   5.351  16.851  0.00  0.00    +0.000 A 
ATOM     12  C   UNL     1       6.181   5.992  17.775  0.00  0.00    +0.000 A 
ATOM     13  C   UNL     1       4.862   5.570  17.924  0.00  0.00    +0.000 A 
ATOM     14  O   UNL     1       4.063   6.244  18.803  0.00  0.00    +0.000 OA
ENDBRANCH   2   5
BRANCH   1  18
ATOM     15  C   UNL     1      -0.198  10.525  21.916  0.00  0.00    +0.000 A 
ATOM     16  C   UNL     1       0.509   9.604  22.700  0.00  0.00    +0.000 A 
ATOM     17  C   UNL     1       1.295   8.597  22.118  0.00  0.00    +0.000 A 
ATOM     18  C   UNL     1       1.409   8.480  20.735  0.00  0.00    +0.000 A 
ATOM     19  C   UNL     1       0.706   9.396  19.940  0.00  0.00    +0.000 A 
ATOM     20  C   UNL     1      -0.089  10.402  20.524  0.00  0.00    +0.000 A 
BRANCH  15  25
ATOM     21  C   UNL     1      -3.740  13.098  24.242  0.00  0.00    +0.000 C 
ATOM     22  C   UNL     1      -2.507  12.746  23.510  0.00  0.00    +0.000 A 
ATOM     23  N   UNL     1      -1.589  13.663  23.182  0.00  0.00    +0.000 NA
ATOM     24  N   UNL     1      -0.672  12.906  22.563  0.00  0.00    +0.000 N 
ATOM     25  C   UNL     1      -1.023  11.579  22.526  0.00  0.00    +0.000 A 
ATOM     26  N   UNL     1      -2.198  11.462  23.122  0.00  0.00    +0.000 NA
ATOM     27  H   UNL     1       0.159  13.350  22.198  0.00  0.00    +0.000 HD
ENDBRANCH  15  25
ENDBRANCH   1  18
TORSDOF 3
ENDMDL
MODEL 4
REMARK VINA RESULT:      -7.9      1.414      1.887
REMARK  Name = 
REMARK  4 active torsions:
REMARK  status: ('A' for Active; 'I' for Inactive)
REMARK    1  A    between atoms: C_1  and  C_2
REMARK    2  A    between atoms: C_5  and  C_6
REMARK    3  A    between atoms: C_9  and  N_10
REMARK    4  A    between atoms: C_11  and  C_13
REMARK                            x       y       z     vdW  Elec       q    Type
REMARK                         _______ _______ _______ _____ _____    ______ ____
ROOT
ATOM      1  N   UNL     1       2.270   7.435  20.170  0.00  0.00    +0.000 N 
ATOM      2  C   UNL     1       2.112   6.057  20.242  0.00  0.00    +0.000 C 
ATOM      3  O   UNL     1       1.193   5.460  20.803  0.00  0.00    +0.000 OA
ATOM      4  H   UNL     1       3.080   7.754  19.644  0.00  0.00    +0.000 HD
ENDROOT
BRANCH   2   5
ATOM      5  C   UNL     1       3.180   5.257  19.479  0.00  0.00    +0.000 C 
ATOM      6  C   UNL     1       2.620   4.858  18.106  0.00  0.00    +0.000 C 
ATOM      7  O   UNL     1       3.526   4.884  16.998  0.00  0.00    +0.000 OA
ATOM      8  C   UNL     1       4.838   4.876  17.366  0.00  0.00    +0.000 A 
ATOM      9  C   UNL     1       5.759   4.358  16.459  0.00  0.00    +0.000 A 
ATOM     10  C   UNL     1       7.117   4.349  16.780  0.00  0.00    +0.000 A 
ATOM     11  C   UNL     1       7.552   4.885  17.993  0.00  0.00    +0.000 A 
ATOM     12  C   UNL     1       6.630   5.433  18.887  0.00  0.00    +0.000 A 
ATOM     13  C   UNL     1       5.274   5.416  18.571  0.00  0.00    +0.000 A 
ATOM     14  O   UNL     1       4.399   5.999  19.443  0.00  0.00    +0.000 OA
ENDBRANCH   2   5
BRANCH   1  18
ATOM     15  C   UNL     1      -0.089  10.488  22.001  0.00  0.00    +0.000 A 
ATOM     16  C   UNL     1       0.502   9.477  22.771  0.00  0.00    +0.000 A 
ATOM     17  C   UNL     1       1.270   8.460  22.182  0.00  0.00    +0.000 A 
ATOM     18  C   UNL     1       1.482   8.422  20.807  0.00  0.00    +0.000 A 
ATOM     19  C   UNL     1       0.896   9.428  20.025  0.00  0.00    +0.000 A 
ATOM     20  C   UNL     1       0.118  10.445  20.615  0.00  0.00    +0.000 A 
BRANCH  15  25
ATOM     21  C   UNL     1      -1.756  14.765  23.870  0.00  0.00    +0.000 C 
ATOM     22  C   UNL     1      -1.672  13.355  23.439  0.00  0.00    +0.000 A 
ATOM     23  N   UNL     1      -2.703  12.512  23.566  0.00  0.00    +0.000 NA
ATOM     24  N   UNL     1      -2.188  11.388  23.048  0.00  0.00    +0.000 N 
ATOM     25  C   UNL     1      -0.894  11.552  22.618  0.00  0.00    +0.000 A 
ATOM     26  N   UNL     1      -0.548  12.804  22.868  0.00  0.00    +0.000 NA
ATOM     27  H   UNL     1      -2.763  10.559  23.015  0.00  0.00    +0.000 HD
ENDBRANCH  15  25
ENDBRANCH   1  18
TORSDOF 3
ENDMDL
MODEL 5
REMARK VINA RESULT:      -7.7      3.293     10.073
REMARK  Name = 
REMARK  4 active torsions:
REMARK  status: ('A' for Active; 'I' for Inactive)
REMARK    1  A    between atoms: C_1  and  C_2
REMARK    2  A    between atoms: C_5  and  C_6
REMARK    3  A    between atoms: C_9  and  N_10
REMARK    4  A    between atoms: C_11  and  C_13
REMARK                            x       y       z     vdW  Elec       q    Type
REMARK                         _______ _______ _______ _____ _____    ______ ____
ROOT
ATOM      1  N   UNL     1      -0.322  10.570  20.194  0.00  0.00    +0.000 N 
ATOM      2  C   UNL     1      -0.062  11.583  21.109  0.00  0.00    +0.000 C 
ATOM      3  O   UNL     1       1.042  11.890  21.557  0.00  0.00    +0.000 OA
ATOM      4  H   UNL     1      -1.296  10.473  19.917  0.00  0.00    +0.000 HD
ENDROOT
BRANCH   2   5
ATOM      5  C   UNL     1      -1.298  12.402  21.514  0.00  0.00    +0.000 C 
ATOM      6  C   UNL     1      -2.149  12.675  20.265  0.00  0.00    +0.000 C 
ATOM      7  O   UNL     1      -3.570  12.639  20.422  0.00  0.00    +0.000 OA
ATOM      8  C   UNL     1      -3.980  12.758  21.716  0.00  0.00    +0.000 A 
ATOM      9  C   UNL     1      -5.251  13.277  21.946  0.00  0.00    +0.000 A 
ATOM     10  C   UNL     1      -5.725  13.397  23.253  0.00  0.00    +0.000 A 
ATOM     11  C   UNL     1      -4.939  12.968  24.324  0.00  0.00    +0.000 A 
ATOM     12  C   UNL     1      -3.677  12.417  24.088  0.00  0.00    +0.000 A 
ATOM     13  C   UNL     1      -3.200  12.324  22.783  0.00  0.00    +0.000 A 
ATOM     14  O   UNL     1      -1.982  11.742  22.579  0.00  0.00    +0.000 OA
ENDBRANCH   2   5
BRANCH   1  18
ATOM     15  C   UNL     1       2.404   7.737  18.528  0.00  0.00    +0.000 A 
ATOM     16  C   UNL     1       2.048   7.681  19.882  0.00  0.00    +0.000 A 
ATOM     17  C   UNL     1       1.163   8.613  20.447  0.00  0.00    +0.000 A 
ATOM     18  C   UNL     1       0.596   9.625  19.678  0.00  0.00    +0.000 A 
ATOM     19  C   UNL     1       0.943   9.692  18.321  0.00  0.00    +0.000 A 
ATOM     20  C   UNL     1       1.838   8.762  17.756  0.00  0.00    +0.000 A 
BRANCH  15  25
ATOM     21  C   UNL     1       4.617   3.628  16.857  0.00  0.00    +0.000 C 
ATOM     22  C   UNL     1       4.341   5.038  17.201  0.00  0.00    +0.000 A 
ATOM     23  N   UNL     1       5.195   6.022  16.899  0.00  0.00    +0.000 NA
ATOM     24  N   UNL     1       4.541   7.092  17.375  0.00  0.00    +0.000 N 
ATOM     25  C   UNL     1       3.332   6.762  17.937  0.00  0.00    +0.000 A 
ATOM     26  N   UNL     1       3.193   5.450  17.839  0.00  0.00    +0.000 NA
ATOM     27  H   UNL     1       4.966   8.003  17.282  0.00  0.00    +0.000 HD
ENDBRANCH  15  25
ENDBRANCH   1  18
TORSDOF 3
ENDMDL
MODEL 6
REMARK VINA RESULT:      -7.7      1.083      1.091
REMARK  Name = 
REMARK  4 active torsions:
REMARK  status: ('A' for Active; 'I' for Inactive)
REMARK    1  A    between atoms: C_1  and  C_2
REMARK    2  A    between atoms: C_5  and  C_6
REMARK    3  A    between atoms: C_9  and  N_10
REMARK    4  A    between atoms: C_11  and  C_13
REMARK                            x       y       z     vdW  Elec       q    Type
REMARK                         _______ _______ _______ _____ _____    ______ ____
ROOT
ATOM      1  N   UNL     1       1.973   8.176  20.397  0.00  0.00    +0.000 N 
ATOM      2  C   UNL     1       2.134   7.936  19.037  0.00  0.00    +0.000 C 
ATOM      3  O   UNL     1       1.600   8.562  18.122  0.00  0.00    +0.000 OA
ATOM      4  H   UNL     1       2.512   7.571  21.012  0.00  0.00    +0.000 HD
ENDROOT
BRANCH   2   5
ATOM      5  C   UNL     1       3.129   6.813  18.707  0.00  0.00    +0.000 C 
ATOM      6  C   UNL     1       2.359   5.496  18.535  0.00  0.00    +0.000 C 
ATOM      7  O   UNL     1       2.811   4.602  17.513  0.00  0.00    +0.000 OA
ATOM      8  C   UNL     1       4.084   4.850  17.096  0.00  0.00    +0.000 A 
ATOM      9  C   UNL     1       4.805   3.787  16.558  0.00  0.00    +0.000 A 
ATOM     10  C   UNL     1       6.105   3.995  16.095  0.00  0.00    +0.000 A 
ATOM     11  C   UNL     1       6.668   5.272  16.143  0.00  0.00    +0.000 A 
ATOM     12  C   UNL     1       5.931   6.342  16.653  0.00  0.00    +0.000 A 
ATOM     13  C   UNL     1       4.644   6.123  17.136  0.00  0.00    +0.000 A 
ATOM     14  O   UNL     1       3.930   7.195  17.588  0.00  0.00    +0.000 OA
ENDBRANCH   2   5
BRANCH   1  18
ATOM     15  C   UNL     1      -0.725  10.888  22.292  0.00  0.00    +0.000 A 
ATOM     16  C   UNL     1      -0.130  11.208  21.065  0.00  0.00    +0.000 A 
ATOM     17  C   UNL     1       0.769  10.332  20.436  0.00  0.00    +0.000 A 
ATOM     18  C   UNL     1       1.096   9.104  21.005  0.00  0.00    +0.000 A 
ATOM     19  C   UNL     1       0.506   8.772  22.233  0.00  0.00    +0.000 A 
ATOM     20  C   UNL     1      -0.390   9.655  22.868  0.00  0.00    +0.000 A 
BRANCH  15  25
ATOM     21  C   UNL     1      -4.631  12.947  24.546  0.00  0.00    +0.000 C 
ATOM     22  C   UNL     1      -3.308  12.755  23.917  0.00  0.00    +0.000 A 
ATOM     23  N   UNL     1      -2.410  13.744  23.838  0.00  0.00    +0.000 NA
ATOM     24  N   UNL     1      -1.392  13.124  23.224  0.00  0.00    +0.000 N 
ATOM     25  C   UNL     1      -1.666  11.807  22.951  0.00  0.00    +0.000 A 
ATOM     26  N   UNL     1      -2.891  11.557  23.383  0.00  0.00    +0.000 NA
ATOM     27  H   UNL     1      -0.551  13.648  23.027  0.00  0.00    +0.000 HD
ENDBRANCH  15  25
ENDBRANCH   1  18
TORSDOF 3
ENDMDL
MODEL 7
REMARK VINA RESULT:      -7.7      1.279      1.548
REMARK  Name = 
REMARK  4 active torsions:
REMARK  status: ('A' for Active; 'I' for Inactive)
REMARK    1  A    between atoms: C_1  and  C_2
REMARK    2  A    between atoms: C_5  and  C_6
REMARK    3  A    between atoms: C_9  and  N_10
REMARK    4  A    between atoms: C_11  and  C_13
REMARK                            x       y       z     vdW  Elec       q    Type
REMARK                         _______ _______ _______ _____ _____    ______ ____
ROOT
ATOM      1  N   UNL     1       1.684   8.582  20.659  0.00  0.00    +0.000 N 
ATOM      2  C   UNL     1       1.842   8.347  19.298  0.00  0.00    +0.000 C 
ATOM      3  O   UNL     1       1.310   8.979  18.386  0.00  0.00    +0.000 OA
ATOM      4  H   UNL     1       2.220   7.973  21.271  0.00  0.00    +0.000 HD
ENDROOT
BRANCH   2   5
ATOM      5  C   UNL     1       2.833   7.222  18.962  0.00  0.00    +0.000 C 
ATOM      6  C   UNL     1       2.153   5.867  19.206  0.00  0.00    +0.000 C 
ATOM      7  O   UNL     1       2.450   4.811  18.287  0.00  0.00    +0.000 OA
ATOM      8  C   UNL     1       3.582   5.024  17.559  0.00  0.00    +0.000 A 
ATOM      9  C   UNL     1       4.257   3.906  17.075  0.00  0.00    +0.000 A 
ATOM     10  C   UNL     1       5.409   4.072  16.305  0.00  0.00    +0.000 A 
ATOM     11  C   UNL     1       5.864   5.355  15.996  0.00  0.00    +0.000 A 
ATOM     12  C   UNL     1       5.167   6.475  16.456  0.00  0.00    +0.000 A 
ATOM     13  C   UNL     1       4.033   6.301  17.244  0.00  0.00    +0.000 A 
ATOM     14  O   UNL     1       3.346   7.412  17.643  0.00  0.00    +0.000 OA
ENDBRANCH   2   5
BRANCH   1  18
ATOM     15  C   UNL     1      -1.010  11.295  22.559  0.00  0.00    +0.000 A 
ATOM     16  C   UNL     1      -0.323  11.663  21.394  0.00  0.00    +0.000 A 
ATOM     17  C   UNL     1       0.575  10.786  20.765  0.00  0.00    +0.000 A 
ATOM     18  C   UNL     1       0.811   9.511  21.272  0.00  0.00    +0.000 A 
ATOM     19  C   UNL     1       0.129   9.131  22.436  0.00  0.00    +0.000 A 
ATOM     20  C   UNL     1      -0.767  10.014  23.073  0.00  0.00    +0.000 A 
BRANCH  15  25
ATOM     21  C   UNL     1      -3.223  15.219  24.629  0.00  0.00    +0.000 C 
ATOM     22  C   UNL     1      -2.958  13.857  24.122  0.00  0.00    +0.000 A 
ATOM     23  N   UNL     1      -3.877  12.887  24.181  0.00  0.00    +0.000 NA
ATOM     24  N   UNL     1      -3.219  11.867  23.612  0.00  0.00    +0.000 N 
ATOM     25  C   UNL     1      -1.950  12.215  23.218  0.00  0.00    +0.000 A 
ATOM     26  N   UNL     1      -1.766  13.483  23.544  0.00  0.00    +0.000 NA
ATOM     27  H   UNL     1      -3.686  10.976  23.521  0.00  0.00    +0.000 HD
ENDBRANCH  15  25
ENDBRANCH   1  18
TORSDOF 3
ENDMDL
MODEL 8
REMARK VINA RESULT:      -7.7      3.217      9.935
REMARK  Name = 
REMARK  4 active torsions:
REMARK  status: ('A' for Active; 'I' for Inactive)
REMARK    1  A    between atoms: C_1  and  C_2
REMARK    2  A    between atoms: C_5  and  C_6
REMARK    3  A    between atoms: C_9  and  N_10
REMARK    4  A    between atoms: C_11  and  C_13
REMARK                            x       y       z     vdW  Elec       q    Type
REMARK                         _______ _______ _______ _____ _____    ______ ____
ROOT
ATOM      1  N   UNL     1       0.037  10.265  20.026  0.00  0.00    +0.000 N 
ATOM      2  C   UNL     1       0.331  11.352  20.841  0.00  0.00    +0.000 C 
ATOM      3  O   UNL     1       1.448  11.678  21.240  0.00  0.00    +0.000 OA
ATOM      4  H   UNL     1      -0.943  10.160  19.776  0.00  0.00    +0.000 HD
ENDROOT
BRANCH   2   5
ATOM      5  C   UNL     1      -0.884  12.224  21.194  0.00  0.00    +0.000 C 
ATOM      6  C   UNL     1      -1.719  12.456  19.926  0.00  0.00    +0.000 C 
ATOM      7  O   UNL     1      -3.142  12.467  20.073  0.00  0.00    +0.000 OA
ATOM      8  C   UNL     1      -3.556  12.664  21.357  0.00  0.00    +0.000 A 
ATOM      9  C   UNL     1      -4.814  13.230  21.549  0.00  0.00    +0.000 A 
ATOM     10  C   UNL     1      -5.293  13.430  22.844  0.00  0.00    +0.000 A 
ATOM     11  C   UNL     1      -4.525  13.036  23.942  0.00  0.00    +0.000 A 
ATOM     12  C   UNL     1      -3.278  12.439  23.745  0.00  0.00    +0.000 A 
ATOM     13  C   UNL     1      -2.796  12.265  22.451  0.00  0.00    +0.000 A 
ATOM     14  O   UNL     1      -1.594  11.640  22.287  0.00  0.00    +0.000 OA
ENDBRANCH   2   5
BRANCH   1  18
ATOM     15  C   UNL     1       2.763   7.220  18.790  0.00  0.00    +0.000 A 
ATOM     16  C   UNL     1       2.395   8.251  17.917  0.00  0.00    +0.000 A 
ATOM     17  C   UNL     1       1.490   9.253  18.305  0.00  0.00    +0.000 A 
ATOM     18  C   UNL     1       0.930   9.263  19.580  0.00  0.00    +0.000 A 
ATOM     19  C   UNL     1       1.290   8.236  20.463  0.00  0.00    +0.000 A 
ATOM     20  C   UNL     1       2.192   7.226  20.071  0.00  0.00    +0.000 A 
BRANCH  15  25
ATOM     21  C   UNL     1       5.636   4.077  16.252  0.00  0.00    +0.000 C 
ATOM     22  C   UNL     1       4.963   4.790  17.357  0.00  0.00    +0.000 A 
ATOM     23  N   UNL     1       5.216   4.510  18.640  0.00  0.00    +0.000 NA
ATOM     24  N   UNL     1       4.414   5.386  19.263  0.00  0.00    +0.000 N 
ATOM     25  C   UNL     1       3.709   6.170  18.383  0.00  0.00    +0.000 A 
ATOM     26  N   UNL     1       4.045   5.796  17.160  0.00  0.00    +0.000 NA
ATOM     27  H   UNL     1       4.398   5.399  20.272  0.00  0.00    +0.000 HD
ENDBRANCH  15  25
ENDBRANCH   1  18
TORSDOF 3
ENDMDL
MODEL 9
REMARK VINA RESULT:      -7.7      1.198      1.660
REMARK  Name = 
REMARK  4 active torsions:
REMARK  status: ('A' for Active; 'I' for Inactive)
REMARK    1  A    between atoms: C_1  and  C_2
REMARK    2  A    between atoms: C_5  and  C_6
REMARK    3  A    between atoms: C_9  and  N_10
REMARK    4  A    between atoms: C_11  and  C_13
REMARK                            x       y       z     vdW  Elec       q    Type
REMARK                         _______ _______ _______ _____ _____    ______ ____
ROOT
ATOM      1  N   UNL     1       2.358   7.437  19.541  0.00  0.00    +0.000 N 
ATOM      2  C   UNL     1       2.435   6.072  19.788  0.00  0.00    +0.000 C 
ATOM      3  O   UNL     1       1.674   5.419  20.501  0.00  0.00    +0.000 OA
ATOM      4  H   UNL     1       3.061   7.806  18.906  0.00  0.00    +0.000 HD
ENDROOT
BRANCH   2   5
ATOM      5  C   UNL     1       3.559   5.354  19.022  0.00  0.00    +0.000 C 
ATOM      6  C   UNL     1       2.969   4.139  18.291  0.00  0.00    +0.000 C 
ATOM      7  O   UNL     1       3.489   3.843  16.992  0.00  0.00    +0.000 OA
ATOM      8  C   UNL     1       4.695   4.427  16.740  0.00  0.00    +0.000 A 
ATOM      9  C   UNL     1       5.528   3.811  15.810  0.00  0.00    +0.000 A 
ATOM     10  C   UNL     1       6.763   4.382  15.501  0.00  0.00    +0.000 A 
ATOM     11  C   UNL     1       7.147   5.584  16.101  0.00  0.00    +0.000 A 
ATOM     12  C   UNL     1       6.295   6.215  17.009  0.00  0.00    +0.000 A 
ATOM     13  C   UNL     1       5.075   5.627  17.331  0.00  0.00    +0.000 A 
ATOM     14  O   UNL     1       4.244   6.288  18.188  0.00  0.00    +0.000 OA
ENDBRANCH   2   5
BRANCH   1  18
ATOM     15  C   UNL     1      -0.295  10.317  21.243  0.00  0.00    +0.000 A 
ATOM     16  C   UNL     1       0.222   9.271  22.018  0.00  0.00    +0.000 A 
ATOM     17  C   UNL     1       1.085   8.310  21.470  0.00  0.00    +0.000 A 
ATOM     18  C   UNL     1       1.469   8.365  20.132  0.00  0.00    +0.000 A 
ATOM     19  C   UNL     1       0.959   9.408  19.346  0.00  0.00    +0.000 A 
ATOM     20  C   UNL     1       0.085  10.368  19.895  0.00  0.00    +0.000 A 
BRANCH  15  25
ATOM     21  C   UNL     1      -3.363  14.140  21.984  0.00  0.00    +0.000 C 
ATOM     22  C   UNL     1      -2.519  12.948  22.208  0.00  0.00    +0.000 A 
ATOM     23  N   UNL     1      -2.425  12.360  23.405  0.00  0.00    +0.000 NA
ATOM     24  N   UNL     1      -1.589  11.347  23.135  0.00  0.00    +0.000 N 
ATOM     25  C   UNL     1      -1.201  11.324  21.818  0.00  0.00    +0.000 A 
ATOM     26  N   UNL     1      -1.782  12.347  21.213  0.00  0.00    +0.000 NA
ATOM     27  H   UNL     1      -1.332  10.716  23.880  0.00  0.00    +0.000 HD
ENDBRANCH  15  25
ENDBRANCH   1  18
TORSDOF 3
ENDMDL
