MODEL 1
REMARK VINA RESULT:      -8.7      0.000      0.000
REMARK  Name = 
REMARK  6 active torsions:
REMARK  status: ('A' for Active; 'I' for Inactive)
REMARK    1  A    between atoms: C_1  and  C_2
REMARK    2  A    between atoms: C_4  and  C_5
REMARK    3  A    between atoms: C_9  and  N_10
REMARK    4  A    between atoms: C_11  and  C_13
REMARK    5  A    between atoms: C_16  and  C_17
REMARK    6  A    between atoms: C_17  and  N_18
REMARK                            x       y       z     vdW  Elec       q    Type
REMARK                         _______ _______ _______ _____ _____    ______ ____
ROOT
ATOM      1  N   UNL     1       4.380   7.132  17.716  0.00  0.00    +0.000 N 
ATOM      2  C   UNL     1       3.194   6.780  18.342  0.00  0.00    +0.000 C 
ATOM      3  O   UNL     1       2.857   5.642  18.655  0.00  0.00    +0.000 OA
ATOM      4  H   UNL     1       4.643   8.109  17.713  0.00  0.00    +0.000 HD
ENDROOT
BRANCH   1   9
ATOM      5  C   UNL     1       6.383   4.889  15.527  0.00  0.00    +0.000 A 
ATOM      6  C   UNL     1       7.424   4.526  16.393  0.00  0.00    +0.000 A 
ATOM      7  C   UNL     1       7.433   4.970  17.710  0.00  0.00    +0.000 A 
ATOM      8  C   UNL     1       6.413   5.803  18.166  0.00  0.00    +0.000 A 
ATOM      9  C   UNL     1       5.380   6.210  17.317  0.00  0.00    +0.000 A 
ATOM     10  C   UNL     1       5.348   5.711  16.006  0.00  0.00    +0.000 A 
BRANCH   5  14
ATOM     11  C   UNL     1       5.315   2.473  11.370  0.00  0.00    +0.000 C 
ATOM     12  C   UNL     1       5.915   3.359  12.388  0.00  0.00    +0.000 A 
ATOM     13  N   UNL     1       5.513   3.557  13.621  0.00  0.00    +0.000 NA
ATOM     14  C   UNL     1       6.430   4.453  14.135  0.00  0.00    +0.000 A 
ATOM     15  N   UNL     1       7.368   4.828  13.249  0.00  0.00    +0.000 NA
ATOM     16  N   UNL     1       7.028   4.114  12.165  0.00  0.00    +0.000 N 
ATOM     17  H   UNL     1       7.595   4.180  11.328  0.00  0.00    +0.000 HD
ENDBRANCH   5  14
ENDBRANCH   1   9
BRANCH   2  18
ATOM     18  C   UNL     1       2.272   7.884  18.729  0.00  0.00    +0.000 A 
ATOM     19  C   UNL     1       1.745   8.802  17.814  0.00  0.00    +0.000 A 
ATOM     20  C   UNL     1       0.802   9.748  18.242  0.00  0.00    +0.000 A 
ATOM     21  C   UNL     1       0.383   9.791  19.582  0.00  0.00    +0.000 A 
ATOM     22  C   UNL     1       0.920   8.871  20.491  0.00  0.00    +0.000 A 
ATOM     23  C   UNL     1       1.856   7.931  20.067  0.00  0.00    +0.000 A 
BRANCH  21  24
ATOM     24  C   UNL     1      -0.679  10.767  20.043  0.00  0.00    +0.000 C 
BRANCH  24  25
ATOM     25  N   UNL     1      -0.318  12.136  19.739  0.00  0.00    +0.000 N 
ATOM     26  C   UNL     1       0.531  12.884  20.500  0.00  0.00    +0.000 C 
ATOM     27  O   UNL     1       1.138  12.519  21.495  0.00  0.00    +0.000 OA
ATOM     28  C   UNL     1       0.604  14.269  19.929  0.00  0.00    +0.000 C 
ATOM     29  C   UNL     1      -0.149  14.172  18.614  0.00  0.00    +0.000 C 
ATOM     30  C   UNL     1      -0.769  12.806  18.643  0.00  0.00    +0.000 C 
ATOM     31  O   UNL     1      -1.526  12.374  17.782  0.00  0.00    +0.000 OA
ENDBRANCH  24  25
ENDBRANCH  21  24
ENDBRANCH   2  18
TORSDOF 5
ENDMDL
MODEL 2
REMARK VINA RESULT:      -8.7      3.088      4.434
REMARK  Name = 
REMARK  6 active torsions:
REMARK  status: ('A' for Active; 'I' for Inactive)
REMARK    1  A    between atoms: C_1  and  C_2
REMARK    2  A    between atoms: C_4  and  C_5
REMARK    3  A    between atoms: C_9  and  N_10
REMARK    4  A    between atoms: C_11  and  C_13
REMARK    5  A    between atoms: C_16  and  C_17
REMARK    6  A    between atoms: C_17  and  N_18
REMARK                            x       y       z     vdW  Elec       q    Type
REMARK                         _______ _______ _______ _____ _____    ______ ____
ROOT
ATOM      1  N   UNL     1       1.391   6.647  20.980  0.00  0.00    +0.000 N 
ATOM      2  C   UNL     1       1.497   7.874  20.341  0.00  0.00    +0.000 C 
ATOM      3  O   UNL     1       2.086   8.086  19.286  0.00  0.00    +0.000 OA
ATOM      4  H   UNL     1       0.701   6.552  21.714  0.00  0.00    +0.000 HD
ENDROOT
BRANCH   1   9
ATOM      5  C   UNL     1       3.812   4.369  19.312  0.00  0.00    +0.000 A 
ATOM      6  C   UNL     1       3.311   3.117  19.694  0.00  0.00    +0.000 A 
ATOM      7  C   UNL     1       2.147   3.023  20.448  0.00  0.00    +0.000 A 
ATOM      8  C   UNL     1       1.487   4.182  20.848  0.00  0.00    +0.000 A 
ATOM      9  C   UNL     1       1.980   5.447  20.511  0.00  0.00    +0.000 A 
ATOM     10  C   UNL     1       3.123   5.531  19.702  0.00  0.00    +0.000 A 
BRANCH   5  14
ATOM     11  C   UNL     1       6.985   4.555  15.550  0.00  0.00    +0.000 C 
ATOM     12  C   UNL     1       6.368   4.502  16.890  0.00  0.00    +0.000 A 
ATOM     13  N   UNL     1       5.091   4.538  17.191  0.00  0.00    +0.000 NA
ATOM     14  C   UNL     1       5.066   4.438  18.568  0.00  0.00    +0.000 A 
ATOM     15  N   UNL     1       6.287   4.364  19.123  0.00  0.00    +0.000 NA
ATOM     16  N   UNL     1       7.085   4.392  18.044  0.00  0.00    +0.000 N 
ATOM     17  H   UNL     1       8.088   4.323  18.166  0.00  0.00    +0.000 HD
ENDBRANCH   5  14
ENDBRANCH   1   9
BRANCH   2  18
ATOM     18  C   UNL     1       0.780   9.027  20.954  0.00  0.00    +0.000 A 
ATOM     19  C   UNL     1       0.188   8.979  22.220  0.00  0.00    +0.000 A 
ATOM     20  C   UNL     1      -0.378  10.139  22.769  0.00  0.00    +0.000 A 
ATOM     21  C   UNL     1      -0.363  11.352  22.059  0.00  0.00    +0.000 A 
ATOM     22  C   UNL     1       0.228  11.388  20.791  0.00  0.00    +0.000 A 
ATOM     23  C   UNL     1       0.791  10.236  20.245  0.00  0.00    +0.000 A 
BRANCH  21  24
ATOM     24  C   UNL     1      -0.915  12.625  22.665  0.00  0.00    +0.000 C 
BRANCH  24  25
ATOM     25  N   UNL     1      -2.258  12.902  22.202  0.00  0.00    +0.000 N 
ATOM     26  C   UNL     1      -3.385  12.451  22.824  0.00  0.00    +0.000 C 
ATOM     27  O   UNL     1      -3.441  11.805  23.860  0.00  0.00    +0.000 OA
ATOM     28  C   UNL     1      -4.583  12.862  22.021  0.00  0.00    +0.000 C 
ATOM     29  C   UNL     1      -4.021  13.792  20.961  0.00  0.00    +0.000 C 
ATOM     30  C   UNL     1      -2.533  13.668  21.110  0.00  0.00    +0.000 C 
ATOM     31  O   UNL     1      -1.719  14.214  20.376  0.00  0.00    +0.000 OA
ENDBRANCH  24  25
ENDBRANCH  21  24
ENDBRANCH   2  18
TORSDOF 5
ENDMDL
MODEL 3
REMARK VINA RESULT:      -8.6      0.593      1.428
REMARK  Name = 
REMARK  6 active torsions:
REMARK  status: ('A' for Active; 'I' for Inactive)
REMARK    1  A    between atoms: C_1  and  C_2
REMARK    2  A    between atoms: C_4  and  C_5
REMARK    3  A    between atoms: C_9  and  N_10
REMARK    4  A    between atoms: C_11  and  C_13
REMARK    5  A    between atoms: C_16  and  C_17
REMARK    6  A    between atoms: C_17  and  N_18
REMARK                            x       y       z     vdW  Elec       q    Type
REMARK                         _______ _______ _______ _____ _____    ______ ____
ROOT
ATOM      1  N   UNL     1       4.183   7.202  17.680  0.00  0.00    +0.000 N 
ATOM      2  C   UNL     1       3.151   6.933  18.567  0.00  0.00    +0.000 C 
ATOM      3  O   UNL     1       2.998   5.890  19.196  0.00  0.00    +0.000 OA
ATOM      4  H   UNL     1       4.329   8.163  17.399  0.00  0.00    +0.000 HD
ENDROOT
BRANCH   1   9
ATOM      5  C   UNL     1       6.351   4.986  15.624  0.00  0.00    +0.000 A 
ATOM      6  C   UNL     1       7.325   4.616  16.562  0.00  0.00    +0.000 A 
ATOM      7  C   UNL     1       7.234   5.046  17.881  0.00  0.00    +0.000 A 
ATOM      8  C   UNL     1       6.181   5.872  18.268  0.00  0.00    +0.000 A 
ATOM      9  C   UNL     1       5.213   6.286  17.347  0.00  0.00    +0.000 A 
ATOM     10  C   UNL     1       5.280   5.801  16.034  0.00  0.00    +0.000 A 
BRANCH   5  14
ATOM     11  C   UNL     1       5.819   2.416  11.457  0.00  0.00    +0.000 C 
ATOM     12  C   UNL     1       6.230   3.395  12.483  0.00  0.00    +0.000 A 
ATOM     13  N   UNL     1       5.774   3.519  13.707  0.00  0.00    +0.000 NA
ATOM     14  C   UNL     1       6.504   4.566  14.235  0.00  0.00    +0.000 A 
ATOM     15  N   UNL     1       7.376   5.103  13.367  0.00  0.00    +0.000 NA
ATOM     16  N   UNL     1       7.192   4.339  12.278  0.00  0.00    +0.000 N 
ATOM     17  H   UNL     1       7.755   4.506  11.453  0.00  0.00    +0.000 HD
ENDBRANCH   5  14
ENDBRANCH   1   9
BRANCH   2  18
ATOM     18  C   UNL     1       2.175   8.026  18.830  0.00  0.00    +0.000 A 
ATOM     19  C   UNL     1       1.693   8.883  17.836  0.00  0.00    +0.000 A 
ATOM     20  C   UNL     1       0.697   9.821  18.147  0.00  0.00    +0.000 A 
ATOM     21  C   UNL     1       0.179   9.915  19.450  0.00  0.00    +0.000 A 
ATOM     22  C   UNL     1       0.672   9.056  20.439  0.00  0.00    +0.000 A 
ATOM     23  C   UNL     1       1.661   8.124  20.131  0.00  0.00    +0.000 A 
BRANCH  21  24
ATOM     24  C   UNL     1      -0.938  10.880  19.783  0.00  0.00    +0.000 C 
BRANCH  24  25
ATOM     25  N   UNL     1      -0.432  12.200  20.100  0.00  0.00    +0.000 N 
ATOM     26  C   UNL     1      -0.297  13.201  19.184  0.00  0.00    +0.000 C 
ATOM     27  O   UNL     1      -0.613  13.163  18.005  0.00  0.00    +0.000 OA
ATOM     28  C   UNL     1       0.330  14.389  19.851  0.00  0.00    +0.000 C 
ATOM     29  C   UNL     1       0.349  14.024  21.325  0.00  0.00    +0.000 C 
ATOM     30  C   UNL     1      -0.067  12.583  21.354  0.00  0.00    +0.000 C 
ATOM     31  O   UNL     1      -0.102  11.897  22.368  0.00  0.00    +0.000 OA
ENDBRANCH  24  25
ENDBRANCH  21  24
ENDBRANCH   2  18
TORSDOF 5
ENDMDL
MODEL 4
REMARK VINA RESULT:      -8.6      3.051      4.510
REMARK  Name = 
REMARK  6 active torsions:
REMARK  status: ('A' for Active; 'I' for Inactive)
REMARK    1  A    between atoms: C_1  and  C_2
REMARK    2  A    between atoms: C_4  and  C_5
REMARK    3  A    between atoms: C_9  and  N_10
REMARK    4  A    between atoms: C_11  and  C_13
REMARK    5  A    between atoms: C_16  and  C_17
REMARK    6  A    between atoms: C_17  and  N_18
REMARK                            x       y       z     vdW  Elec       q    Type
REMARK                         _______ _______ _______ _____ _____    ______ ____
ROOT
ATOM      1  N   UNL     1       1.565   7.149  20.925  0.00  0.00    +0.000 N 
ATOM      2  C   UNL     1       1.386   8.293  20.161  0.00  0.00    +0.000 C 
ATOM      3  O   UNL     1       1.575   8.386  18.951  0.00  0.00    +0.000 OA
ATOM      4  H   UNL     1       1.167   7.133  21.855  0.00  0.00    +0.000 HD
ENDROOT
BRANCH   1   9
ATOM      5  C   UNL     1       3.763   4.667  19.239  0.00  0.00    +0.000 A 
ATOM      6  C   UNL     1       3.090   3.471  19.526  0.00  0.00    +0.000 A 
ATOM      7  C   UNL     1       1.885   3.489  20.220  0.00  0.00    +0.000 A 
ATOM      8  C   UNL     1       1.356   4.702  20.656  0.00  0.00    +0.000 A 
ATOM      9  C   UNL     1       2.021   5.908  20.415  0.00  0.00    +0.000 A 
ATOM     10  C   UNL     1       3.206   5.886  19.664  0.00  0.00    +0.000 A 
BRANCH   5  14
ATOM     11  C   UNL     1       7.123   4.605  15.639  0.00  0.00    +0.000 C 
ATOM     12  C   UNL     1       6.436   4.580  16.946  0.00  0.00    +0.000 A 
ATOM     13  N   UNL     1       5.159   4.756  17.188  0.00  0.00    +0.000 NA
ATOM     14  C   UNL     1       5.052   4.612  18.557  0.00  0.00    +0.000 A 
ATOM     15  N   UNL     1       6.226   4.375  19.165  0.00  0.00    +0.000 NA
ATOM     16  N   UNL     1       7.076   4.346  18.126  0.00  0.00    +0.000 N 
ATOM     17  H   UNL     1       8.057   4.154  18.292  0.00  0.00    +0.000 HD
ENDBRANCH   5  14
ENDBRANCH   1   9
BRANCH   2  18
ATOM     18  C   UNL     1       0.860   9.502  20.854  0.00  0.00    +0.000 A 
ATOM     19  C   UNL     1       1.060  10.805  20.387  0.00  0.00    +0.000 A 
ATOM     20  C   UNL     1       0.444  11.881  21.042  0.00  0.00    +0.000 A 
ATOM     21  C   UNL     1      -0.370  11.668  22.168  0.00  0.00    +0.000 A 
ATOM     22  C   UNL     1      -0.559  10.361  22.630  0.00  0.00    +0.000 A 
ATOM     23  C   UNL     1       0.052   9.291  21.980  0.00  0.00    +0.000 A 
BRANCH  21  24
ATOM     24  C   UNL     1      -1.089  12.815  22.845  0.00  0.00    +0.000 C 
BRANCH  24  25
ATOM     25  N   UNL     1      -2.416  13.014  22.301  0.00  0.00    +0.000 N 
ATOM     26  C   UNL     1      -2.669  13.684  21.141  0.00  0.00    +0.000 C 
ATOM     27  O   UNL     1      -1.844  14.165  20.378  0.00  0.00    +0.000 OA
ATOM     28  C   UNL     1      -4.153  13.761  20.935  0.00  0.00    +0.000 C 
ATOM     29  C   UNL     1      -4.727  12.866  22.019  0.00  0.00    +0.000 C 
ATOM     30  C   UNL     1      -3.547  12.524  22.880  0.00  0.00    +0.000 C 
ATOM     31  O   UNL     1      -3.615  11.871  23.914  0.00  0.00    +0.000 OA
ENDBRANCH  24  25
ENDBRANCH  21  24
ENDBRANCH   2  18
TORSDOF 5
ENDMDL
MODEL 5
REMARK VINA RESULT:      -8.6      6.180      7.923
REMARK  Name = 
REMARK  6 active torsions:
REMARK  status: ('A' for Active; 'I' for Inactive)
REMARK    1  A    between atoms: C_1  and  C_2
REMARK    2  A    between atoms: C_4  and  C_5
REMARK    3  A    between atoms: C_9  and  N_10
REMARK    4  A    between atoms: C_11  and  C_13
REMARK    5  A    between atoms: C_16  and  C_17
REMARK    6  A    between atoms: C_17  and  N_18
REMARK                            x       y       z     vdW  Elec       q    Type
REMARK                         _______ _______ _______ _____ _____    ______ ____
ROOT
ATOM      1  N   UNL     1       6.947   7.783  17.218  0.00  0.00    +0.000 N 
ATOM      2  C   UNL     1       7.941   7.951  18.171  0.00  0.00    +0.000 C 
ATOM      3  O   UNL     1       8.488   7.054  18.805  0.00  0.00    +0.000 OA
ATOM      4  H   UNL     1       6.737   8.563  16.609  0.00  0.00    +0.000 HD
ENDROOT
BRANCH   1   9
ATOM      5  C   UNL     1       4.597   4.901  17.132  0.00  0.00    +0.000 A 
ATOM      6  C   UNL     1       5.123   4.155  16.069  0.00  0.00    +0.000 A 
ATOM      7  C   UNL     1       6.283   4.569  15.424  0.00  0.00    +0.000 A 
ATOM      8  C   UNL     1       6.912   5.748  15.818  0.00  0.00    +0.000 A 
ATOM      9  C   UNL     1       6.391   6.531  16.853  0.00  0.00    +0.000 A 
ATOM     10  C   UNL     1       5.254   6.077  17.537  0.00  0.00    +0.000 A 
BRANCH   5  14
ATOM     11  C   UNL     1       1.140   4.080  20.543  0.00  0.00    +0.000 C 
ATOM     12  C   UNL     1       1.914   4.142  19.287  0.00  0.00    +0.000 A 
ATOM     13  N   UNL     1       3.067   4.734  19.080  0.00  0.00    +0.000 NA
ATOM     14  C   UNL     1       3.348   4.472  17.754  0.00  0.00    +0.000 A 
ATOM     15  N   UNL     1       2.394   3.757  17.135  0.00  0.00    +0.000 NA
ATOM     16  N   UNL     1       1.512   3.553  18.126  0.00  0.00    +0.000 N 
ATOM     17  H   UNL     1       0.680   3.003  17.946  0.00  0.00    +0.000 HD
ENDBRANCH   5  14
ENDBRANCH   1   9
BRANCH   2  18
ATOM     18  C   UNL     1       8.438   9.337  18.401  0.00  0.00    +0.000 A 
ATOM     19  C   UNL     1       8.185  10.399  17.528  0.00  0.00    +0.000 A 
ATOM     20  C   UNL     1       8.600  11.695  17.870  0.00  0.00    +0.000 A 
ATOM     21  C   UNL     1       9.272  11.940  19.080  0.00  0.00    +0.000 A 
ATOM     22  C   UNL     1       9.524  10.868  19.944  0.00  0.00    +0.000 A 
ATOM     23  C   UNL     1       9.113   9.581  19.606  0.00  0.00    +0.000 A 
BRANCH  21  24
ATOM     24  C   UNL     1       9.670  13.342  19.488  0.00  0.00    +0.000 C 
BRANCH  24  25
ATOM     25  N   UNL     1      10.498  13.979  18.486  0.00  0.00    +0.000 N 
ATOM     26  C   UNL     1      11.750  13.553  18.152  0.00  0.00    +0.000 C 
ATOM     27  O   UNL     1      12.333  12.574  18.594  0.00  0.00    +0.000 OA
ATOM     28  C   UNL     1      12.332  14.497  17.142  0.00  0.00    +0.000 C 
ATOM     29  C   UNL     1      11.176  15.410  16.774  0.00  0.00    +0.000 C 
ATOM     30  C   UNL     1      10.096  15.054  17.752  0.00  0.00    +0.000 C 
ATOM     31  O   UNL     1       9.018  15.630  17.828  0.00  0.00    +0.000 OA
ENDBRANCH  24  25
ENDBRANCH  21  24
ENDBRANCH   2  18
TORSDOF 5
ENDMDL
MODEL 6
REMARK VINA RESULT:      -8.6      0.570      1.063
REMARK  Name = 
REMARK  6 active torsions:
REMARK  status: ('A' for Active; 'I' for Inactive)
REMARK    1  A    between atoms: C_1  and  C_2
REMARK    2  A    between atoms: C_4  and  C_5
REMARK    3  A    between atoms: C_9  and  N_10
REMARK    4  A    between atoms: C_11  and  C_13
REMARK    5  A    between atoms: C_16  and  C_17
REMARK    6  A    between atoms: C_17  and  N_18
REMARK                            x       y       z     vdW  Elec       q    Type
REMARK                         _______ _______ _______ _____ _____    ______ ____
ROOT
ATOM      1  N   UNL     1       4.376   7.057  18.042  0.00  0.00    +0.000 N 
ATOM      2  C   UNL     1       3.112   6.652  18.447  0.00  0.00    +0.000 C 
ATOM      3  O   UNL     1       2.721   5.491  18.525  0.00  0.00    +0.000 OA
ATOM      4  H   UNL     1       4.651   8.012  18.232  0.00  0.00    +0.000 HD
ENDROOT
BRANCH   1   9
ATOM      5  C   UNL     1       6.501   4.983  15.803  0.00  0.00    +0.000 A 
ATOM      6  C   UNL     1       7.512   4.581  16.687  0.00  0.00    +0.000 A 
ATOM      7  C   UNL     1       7.460   4.942  18.028  0.00  0.00    +0.000 A 
ATOM      8  C   UNL     1       6.410   5.731  18.492  0.00  0.00    +0.000 A 
ATOM      9  C   UNL     1       5.405   6.176  17.628  0.00  0.00    +0.000 A 
ATOM     10  C   UNL     1       5.434   5.759  16.289  0.00  0.00    +0.000 A 
BRANCH   5  14
ATOM     11  C   UNL     1       5.946   2.558  11.552  0.00  0.00    +0.000 C 
ATOM     12  C   UNL     1       6.334   3.523  12.600  0.00  0.00    +0.000 A 
ATOM     13  N   UNL     1       5.937   3.557  13.851  0.00  0.00    +0.000 NA
ATOM     14  C   UNL     1       6.611   4.635  14.390  0.00  0.00    +0.000 A 
ATOM     15  N   UNL     1       7.392   5.277  13.505  0.00  0.00    +0.000 NA
ATOM     16  N   UNL     1       7.209   4.548  12.392  0.00  0.00    +0.000 N 
ATOM     17  H   UNL     1       7.711   4.794  11.548  0.00  0.00    +0.000 HD
ENDBRANCH   5  14
ENDBRANCH   1   9
BRANCH   2  18
ATOM     18  C   UNL     1       2.164   7.713  18.888  0.00  0.00    +0.000 A 
ATOM     19  C   UNL     1       1.753   7.873  20.215  0.00  0.00    +0.000 A 
ATOM     20  C   UNL     1       0.939   8.961  20.565  0.00  0.00    +0.000 A 
ATOM     21  C   UNL     1       0.525   9.891  19.596  0.00  0.00    +0.000 A 
ATOM     22  C   UNL     1       0.938   9.718  18.270  0.00  0.00    +0.000 A 
ATOM     23  C   UNL     1       1.747   8.638  17.921  0.00  0.00    +0.000 A 
BRANCH  21  24
ATOM     24  C   UNL     1      -0.303  11.102  19.971  0.00  0.00    +0.000 C 
BRANCH  24  25
ATOM     25  N   UNL     1       0.377  12.339  19.647  0.00  0.00    +0.000 N 
ATOM     26  C   UNL     1       1.440  12.827  20.347  0.00  0.00    +0.000 C 
ATOM     27  O   UNL     1       2.000  12.296  21.294  0.00  0.00    +0.000 OA
ATOM     28  C   UNL     1       1.828  14.159  19.776  0.00  0.00    +0.000 C 
ATOM     29  C   UNL     1       0.986  14.287  18.520  0.00  0.00    +0.000 C 
ATOM     30  C   UNL     1       0.039  13.126  18.589  0.00  0.00    +0.000 C 
ATOM     31  O   UNL     1      -0.861  12.922  17.783  0.00  0.00    +0.000 OA
ENDBRANCH  24  25
ENDBRANCH  21  24
ENDBRANCH   2  18
TORSDOF 5
ENDMDL
MODEL 7
REMARK VINA RESULT:      -8.4      5.218      6.905
REMARK  Name = 
REMARK  6 active torsions:
REMARK  status: ('A' for Active; 'I' for Inactive)
REMARK    1  A    between atoms: C_1  and  C_2
REMARK    2  A    between atoms: C_4  and  C_5
REMARK    3  A    between atoms: C_9  and  N_10
REMARK    4  A    between atoms: C_11  and  C_13
REMARK    5  A    between atoms: C_16  and  C_17
REMARK    6  A    between atoms: C_17  and  N_18
REMARK                            x       y       z     vdW  Elec       q    Type
REMARK                         _______ _______ _______ _____ _____    ______ ____
ROOT
ATOM      1  N   UNL     1       6.914   7.581  17.035  0.00  0.00    +0.000 N 
ATOM      2  C   UNL     1       7.850   7.837  18.027  0.00  0.00    +0.000 C 
ATOM      3  O   UNL     1       8.347   7.003  18.778  0.00  0.00    +0.000 OA
ATOM      4  H   UNL     1       6.750   8.299  16.341  0.00  0.00    +0.000 HD
ENDROOT
BRANCH   1   9
ATOM      5  C   UNL     1       4.559   4.703  17.112  0.00  0.00    +0.000 A 
ATOM      6  C   UNL     1       5.123   3.867  16.138  0.00  0.00    +0.000 A 
ATOM      7  C   UNL     1       6.308   4.224  15.502  0.00  0.00    +0.000 A 
ATOM      8  C   UNL     1       6.924   5.432  15.817  0.00  0.00    +0.000 A 
ATOM      9  C   UNL     1       6.368   6.303  16.759  0.00  0.00    +0.000 A 
ATOM     10  C   UNL     1       5.205   5.909  17.437  0.00  0.00    +0.000 A 
BRANCH   5  14
ATOM     11  C   UNL     1       1.009   4.102  20.472  0.00  0.00    +0.000 C 
ATOM     12  C   UNL     1       1.812   4.096  19.233  0.00  0.00    +0.000 A 
ATOM     13  N   UNL     1       2.984   4.651  19.029  0.00  0.00    +0.000 NA
ATOM     14  C   UNL     1       3.287   4.329  17.721  0.00  0.00    +0.000 A 
ATOM     15  N   UNL     1       2.329   3.613  17.109  0.00  0.00    +0.000 NA
ATOM     16  N   UNL     1       1.421   3.470  18.087  0.00  0.00    +0.000 N 
ATOM     17  H   UNL     1       0.580   2.933  17.910  0.00  0.00    +0.000 HD
ENDBRANCH   5  14
ENDBRANCH   1   9
BRANCH   2  18
ATOM     18  C   UNL     1       8.346   9.236  18.153  0.00  0.00    +0.000 A 
ATOM     19  C   UNL     1       7.888  10.289  17.354  0.00  0.00    +0.000 A 
ATOM     20  C   UNL     1       8.329  11.596  17.606  0.00  0.00    +0.000 A 
ATOM     21  C   UNL     1       9.233  11.863  18.649  0.00  0.00    +0.000 A 
ATOM     22  C   UNL     1       9.689  10.801  19.439  0.00  0.00    +0.000 A 
ATOM     23  C   UNL     1       9.250   9.502  19.190  0.00  0.00    +0.000 A 
BRANCH  21  24
ATOM     24  C   UNL     1       9.669  13.277  18.969  0.00  0.00    +0.000 C 
BRANCH  24  25
ATOM     25  N   UNL     1       8.619  14.028  19.624  0.00  0.00    +0.000 N 
ATOM     26  C   UNL     1       8.371  13.976  20.964  0.00  0.00    +0.000 C 
ATOM     27  O   UNL     1       9.001  13.348  21.802  0.00  0.00    +0.000 OA
ATOM     28  C   UNL     1       7.166  14.816  21.269  0.00  0.00    +0.000 C 
ATOM     29  C   UNL     1       6.870  15.533  19.964  0.00  0.00    +0.000 C 
ATOM     30  C   UNL     1       7.790  14.887  18.970  0.00  0.00    +0.000 C 
ATOM     31  O   UNL     1       7.799  15.143  17.773  0.00  0.00    +0.000 OA
ENDBRANCH  24  25
ENDBRANCH  21  24
ENDBRANCH   2  18
TORSDOF 5
ENDMDL
MODEL 8
REMARK VINA RESULT:      -8.4      5.214      7.011
REMARK  Name = 
REMARK  6 active torsions:
REMARK  status: ('A' for Active; 'I' for Inactive)
REMARK    1  A    between atoms: C_1  and  C_2
REMARK    2  A    between atoms: C_4  and  C_5
REMARK    3  A    between atoms: C_9  and  N_10
REMARK    4  A    between atoms: C_11  and  C_13
REMARK    5  A    between atoms: C_16  and  C_17
REMARK    6  A    between atoms: C_17  and  N_18
REMARK                            x       y       z     vdW  Elec       q    Type
REMARK                         _______ _______ _______ _____ _____    ______ ____
ROOT
ATOM      1  N   UNL     1       6.893   7.576  17.018  0.00  0.00    +0.000 N 
ATOM      2  C   UNL     1       7.827   7.830  18.013  0.00  0.00    +0.000 C 
ATOM      3  O   UNL     1       8.321   6.994  18.764  0.00  0.00    +0.000 OA
ATOM      4  H   UNL     1       6.732   8.294  16.325  0.00  0.00    +0.000 HD
ENDROOT
BRANCH   1   9
ATOM      5  C   UNL     1       4.545   4.693  17.099  0.00  0.00    +0.000 A 
ATOM      6  C   UNL     1       5.100   3.865  16.115  0.00  0.00    +0.000 A 
ATOM      7  C   UNL     1       6.277   4.227  15.470  0.00  0.00    +0.000 A 
ATOM      8  C   UNL     1       6.895   5.435  15.786  0.00  0.00    +0.000 A 
ATOM      9  C   UNL     1       6.347   6.298  16.740  0.00  0.00    +0.000 A 
ATOM     10  C   UNL     1       5.192   5.898  17.426  0.00  0.00    +0.000 A 
BRANCH   5  14
ATOM     11  C   UNL     1       1.035   4.053  20.494  0.00  0.00    +0.000 C 
ATOM     12  C   UNL     1       1.822   4.062  19.245  0.00  0.00    +0.000 A 
ATOM     13  N   UNL     1       2.992   4.617  19.035  0.00  0.00    +0.000 NA
ATOM     14  C   UNL     1       3.279   4.313  17.719  0.00  0.00    +0.000 A 
ATOM     15  N   UNL     1       2.313   3.607  17.109  0.00  0.00    +0.000 NA
ATOM     16  N   UNL     1       1.416   3.452  18.096  0.00  0.00    +0.000 N 
ATOM     17  H   UNL     1       0.572   2.920  17.922  0.00  0.00    +0.000 HD
ENDBRANCH   5  14
ENDBRANCH   1   9
BRANCH   2  18
ATOM     18  C   UNL     1       8.324   9.228  18.141  0.00  0.00    +0.000 A 
ATOM     19  C   UNL     1       7.852  10.287  17.359  0.00  0.00    +0.000 A 
ATOM     20  C   UNL     1       8.297  11.592  17.614  0.00  0.00    +0.000 A 
ATOM     21  C   UNL     1       9.218  11.851  18.643  0.00  0.00    +0.000 A 
ATOM     22  C   UNL     1       9.688  10.783  19.417  0.00  0.00    +0.000 A 
ATOM     23  C   UNL     1       9.246   9.486  19.165  0.00  0.00    +0.000 A 
BRANCH  21  24
ATOM     24  C   UNL     1       9.659  13.263  18.967  0.00  0.00    +0.000 C 
BRANCH  24  25
ATOM     25  N   UNL     1       8.613  14.014  19.629  0.00  0.00    +0.000 N 
ATOM     26  C   UNL     1       7.760  14.859  18.983  0.00  0.00    +0.000 C 
ATOM     27  O   UNL     1       7.711  15.073  17.781  0.00  0.00    +0.000 OA
ATOM     28  C   UNL     1       6.870  15.519  19.994  0.00  0.00    +0.000 C 
ATOM     29  C   UNL     1       7.174  14.792  21.291  0.00  0.00    +0.000 C 
ATOM     30  C   UNL     1       8.357  13.929  20.964  0.00  0.00    +0.000 C 
ATOM     31  O   UNL     1       8.952  13.237  21.780  0.00  0.00    +0.000 OA
ENDBRANCH  24  25
ENDBRANCH  21  24
ENDBRANCH   2  18
TORSDOF 5
ENDMDL
MODEL 9
REMARK VINA RESULT:      -8.3      2.938     10.051
REMARK  Name = 
REMARK  6 active torsions:
REMARK  status: ('A' for Active; 'I' for Inactive)
REMARK    1  A    between atoms: C_1  and  C_2
REMARK    2  A    between atoms: C_4  and  C_5
REMARK    3  A    between atoms: C_9  and  N_10
REMARK    4  A    between atoms: C_11  and  C_13
REMARK    5  A    between atoms: C_16  and  C_17
REMARK    6  A    between atoms: C_17  and  N_18
REMARK                            x       y       z     vdW  Elec       q    Type
REMARK                         _______ _______ _______ _____ _____    ______ ____
ROOT
ATOM      1  N   UNL     1       0.830   9.486  19.150  0.00  0.00    +0.000 N 
ATOM      2  C   UNL     1       0.980   8.536  20.150  0.00  0.00    +0.000 C 
ATOM      3  O   UNL     1       0.396   8.531  21.230  0.00  0.00    +0.000 OA
ATOM      4  H   UNL     1       1.186   9.265  18.230  0.00  0.00    +0.000 HD
ENDROOT
BRANCH   1   9
ATOM      5  C   UNL     1      -2.153  11.662  18.701  0.00  0.00    +0.000 A 
ATOM      6  C   UNL     1      -1.820  12.749  19.522  0.00  0.00    +0.000 A 
ATOM      7  C   UNL     1      -0.592  12.792  20.172  0.00  0.00    +0.000 A 
ATOM      8  C   UNL     1       0.304  11.734  20.028  0.00  0.00    +0.000 A 
ATOM      9  C   UNL     1      -0.013  10.621  19.244  0.00  0.00    +0.000 A 
ATOM     10  C   UNL     1      -1.229  10.613  18.546  0.00  0.00    +0.000 A 
BRANCH   5  14
ATOM     11  C   UNL     1      -7.047  11.715  18.159  0.00  0.00    +0.000 C 
ATOM     12  C   UNL     1      -5.591  11.640  17.930  0.00  0.00    +0.000 A 
ATOM     13  N   UNL     1      -4.628  11.824  18.802  0.00  0.00    +0.000 NA
ATOM     14  C   UNL     1      -3.471  11.619  18.077  0.00  0.00    +0.000 A 
ATOM     15  N   UNL     1      -3.693  11.337  16.782  0.00  0.00    +0.000 NA
ATOM     16  N   UNL     1      -5.034  11.343  16.722  0.00  0.00    +0.000 N 
ATOM     17  H   UNL     1      -5.493  11.129  15.845  0.00  0.00    +0.000 HD
ENDBRANCH   5  14
ENDBRANCH   1   9
BRANCH   2  18
ATOM     18  C   UNL     1       1.880   7.383  19.868  0.00  0.00    +0.000 A 
ATOM     19  C   UNL     1       1.958   6.250  20.684  0.00  0.00    +0.000 A 
ATOM     20  C   UNL     1       2.754   5.164  20.292  0.00  0.00    +0.000 A 
ATOM     21  C   UNL     1       3.480   5.200  19.090  0.00  0.00    +0.000 A 
ATOM     22  C   UNL     1       3.398   6.341  18.282  0.00  0.00    +0.000 A 
ATOM     23  C   UNL     1       2.608   7.420  18.670  0.00  0.00    +0.000 A 
BRANCH  21  24
ATOM     24  C   UNL     1       4.293   4.010  18.626  0.00  0.00    +0.000 C 
BRANCH  24  25
ATOM     25  N   UNL     1       5.525   4.419  17.983  0.00  0.00    +0.000 N 
ATOM     26  C   UNL     1       6.601   4.923  18.652  0.00  0.00    +0.000 C 
ATOM     27  O   UNL     1       6.713   5.060  19.862  0.00  0.00    +0.000 OA
ATOM     28  C   UNL     1       7.655   5.309  17.658  0.00  0.00    +0.000 C 
ATOM     29  C   UNL     1       7.139   4.770  16.336  0.00  0.00    +0.000 C 
ATOM     30  C   UNL     1       5.743   4.313  16.643  0.00  0.00    +0.000 C 
ATOM     31  O   UNL     1       4.960   3.880  15.806  0.00  0.00    +0.000 OA
ENDBRANCH  24  25
ENDBRANCH  21  24
ENDBRANCH   2  18
TORSDOF 5
ENDMDL
