MODEL 1
REMARK VINA RESULT:      -8.6      0.000      0.000
REMARK  Name = 
REMARK  6 active torsions:
REMARK  status: ('A' for Active; 'I' for Inactive)
REMARK    1  A    between atoms: C_2  and  C_3
REMARK    2  A    between atoms: C_3  and  C_4
REMARK    3  A    between atoms: N_7  and  C_8
REMARK    4  A    between atoms: N_15  and  C_16
REMARK    5  A    between atoms: C_16  and  C_17
REMARK    6  A    between atoms: C_17  and  C_18
REMARK                            x       y       z     vdW  Elec       q    Type
REMARK                         _______ _______ _______ _____ _____    ______ ____
ROOT
ATOM      1  O   UNL     1       7.788   6.337  18.522  0.00  0.00    +0.000 OA
ATOM      2  C   UNL     1       7.336   7.057  17.635  0.00  0.00    +0.000 C 
ATOM      3  N   UNL     1       7.711   8.381  17.459  0.00  0.00    +0.000 N 
ATOM      4  H   UNL     1       7.081   8.937  16.899  0.00  0.00    +0.000 HD
ENDROOT
BRANCH   2   5
ATOM      5  C   UNL     1       6.308   6.555  16.629  0.00  0.00    +0.000 C 
BRANCH   5   6
ATOM      6  C   UNL     1       4.983   6.296  17.233  0.00  0.00    +0.000 A 
ATOM      7  C   UNL     1       3.869   7.182  17.382  0.00  0.00    +0.000 A 
ATOM      8  N   UNL     1       2.825   6.587  17.978  0.00  0.00    +0.000 NA
ATOM      9  N   UNL     1       3.238   5.330  18.274  0.00  0.00    +0.000 N 
ATOM     10  C   UNL     1       4.544   5.122  17.836  0.00  0.00    +0.000 A 
BRANCH   9  11
ATOM     11  C   UNL     1       2.379   4.406  18.933  0.00  0.00    +0.000 A 
ATOM     12  C   UNL     1       2.280   4.439  20.331  0.00  0.00    +0.000 A 
ATOM     13  C   UNL     1       1.424   3.562  20.997  0.00  0.00    +0.000 A 
ATOM     14  C   UNL     1       0.668   2.635  20.277  0.00  0.00    +0.000 A 
ATOM     15  C   UNL     1       0.769   2.592  18.888  0.00  0.00    +0.000 A 
ATOM     16  C   UNL     1       1.623   3.473  18.211  0.00  0.00    +0.000 A 
ENDBRANCH   9  11
ENDBRANCH   5   6
ENDBRANCH   2   5
BRANCH   3  17
ATOM     17  C   UNL     1       8.680   9.077  18.317  0.00  0.00    +0.000 C 
BRANCH  17  18
ATOM     18  C   UNL     1       8.525  10.558  18.067  0.00  0.00    +0.000 C 
BRANCH  18  19
ATOM     19  C   UNL     1       9.419  11.616  18.691  0.00  0.00    +0.000 A 
ATOM     20  C   UNL     1      10.414  11.103  19.554  0.00  0.00    +0.000 A 
ATOM     21  C   UNL     1      11.428  11.902  20.054  0.00  0.00    +0.000 A 
ATOM     22  C   UNL     1      11.546  13.189  19.565  0.00  0.00    +0.000 A 
ATOM     23  C   UNL     1      10.534  13.722  18.755  0.00  0.00    +0.000 A 
ATOM     24  C   UNL     1      10.635  15.030  18.287  0.00  0.00    +0.000 A 
ATOM     25  C   UNL     1       9.464  15.750  18.127  0.00  0.00    +0.000 A 
ATOM     26  C   UNL     1       8.299  15.020  18.023  0.00  0.00    +0.000 A 
ATOM     27  N   UNL     1       8.257  13.661  18.046  0.00  0.00    +0.000 NA
ATOM     28  C   UNL     1       9.359  12.993  18.467  0.00  0.00    +0.000 A 
ENDBRANCH  18  19
ENDBRANCH  17  18
ENDBRANCH   3  17
TORSDOF 6
ENDMDL
MODEL 2
REMARK VINA RESULT:      -8.5      1.075      1.475
REMARK  Name = 
REMARK  6 active torsions:
REMARK  status: ('A' for Active; 'I' for Inactive)
REMARK    1  A    between atoms: C_2  and  C_3
REMARK    2  A    between atoms: C_3  and  C_4
REMARK    3  A    between atoms: N_7  and  C_8
REMARK    4  A    between atoms: N_15  and  C_16
REMARK    5  A    between atoms: C_16  and  C_17
REMARK    6  A    between atoms: C_17  and  C_18
REMARK                            x       y       z     vdW  Elec       q    Type
REMARK                         _______ _______ _______ _____ _____    ______ ____
ROOT
ATOM      1  O   UNL     1       7.988   5.973  17.427  0.00  0.00    +0.000 OA
ATOM      2  C   UNL     1       7.166   6.807  17.056  0.00  0.00    +0.000 C 
ATOM      3  N   UNL     1       7.283   8.164  17.317  0.00  0.00    +0.000 N 
ATOM      4  H   UNL     1       6.431   8.698  17.218  0.00  0.00    +0.000 HD
ENDROOT
BRANCH   2   5
ATOM      5  C   UNL     1       5.923   6.423  16.263  0.00  0.00    +0.000 C 
BRANCH   5   6
ATOM      6  C   UNL     1       5.143   5.337  16.895  0.00  0.00    +0.000 A 
ATOM      7  C   UNL     1       4.931   3.996  16.444  0.00  0.00    +0.000 A 
ATOM      8  N   UNL     1       4.166   3.291  17.291  0.00  0.00    +0.000 NA
ATOM      9  N   UNL     1       3.822   4.153  18.279  0.00  0.00    +0.000 N 
ATOM     10  C   UNL     1       4.397   5.404  18.068  0.00  0.00    +0.000 A 
BRANCH   9  11
ATOM     11  C   UNL     1       2.991   3.744  19.360  0.00  0.00    +0.000 A 
ATOM     12  C   UNL     1       1.668   4.203  19.419  0.00  0.00    +0.000 A 
ATOM     13  C   UNL     1       0.826   3.794  20.453  0.00  0.00    +0.000 A 
ATOM     14  C   UNL     1       1.299   2.934  21.446  0.00  0.00    +0.000 A 
ATOM     15  C   UNL     1       2.615   2.482  21.397  0.00  0.00    +0.000 A 
ATOM     16  C   UNL     1       3.466   2.884  20.359  0.00  0.00    +0.000 A 
ENDBRANCH   9  11
ENDBRANCH   5   6
ENDBRANCH   2   5
BRANCH   3  17
ATOM     17  C   UNL     1       8.394   8.759  18.072  0.00  0.00    +0.000 C 
BRANCH  17  18
ATOM     18  C   UNL     1       8.461  10.222  17.704  0.00  0.00    +0.000 C 
BRANCH  18  19
ATOM     19  C   UNL     1       9.077  11.288  18.594  0.00  0.00    +0.000 A 
ATOM     20  C   UNL     1       9.855  10.779  19.660  0.00  0.00    +0.000 A 
ATOM     21  C   UNL     1      10.639  11.603  20.448  0.00  0.00    +0.000 A 
ATOM     22  C   UNL     1      10.776  12.927  20.075  0.00  0.00    +0.000 A 
ATOM     23  C   UNL     1       9.967  13.450  19.058  0.00  0.00    +0.000 A 
ATOM     24  C   UNL     1      10.081  14.792  18.701  0.00  0.00    +0.000 A 
ATOM     25  C   UNL     1       8.936  15.446  18.277  0.00  0.00    +0.000 A 
ATOM     26  C   UNL     1       7.899  14.653  17.834  0.00  0.00    +0.000 A 
ATOM     27  N   UNL     1       7.962  13.295  17.774  0.00  0.00    +0.000 NA
ATOM     28  C   UNL     1       8.967  12.671  18.434  0.00  0.00    +0.000 A 
ENDBRANCH  18  19
ENDBRANCH  17  18
ENDBRANCH   3  17
TORSDOF 6
ENDMDL
MODEL 3
REMARK VINA RESULT:      -8.5      4.970      8.140
REMARK  Name = 
REMARK  6 active torsions:
REMARK  status: ('A' for Active; 'I' for Inactive)
REMARK    1  A    between atoms: C_2  and  C_3
REMARK    2  A    between atoms: C_3  and  C_4
REMARK    3  A    between atoms: N_7  and  C_8
REMARK    4  A    between atoms: N_15  and  C_16
REMARK    5  A    between atoms: C_16  and  C_17
REMARK    6  A    between atoms: C_17  and  C_18
REMARK                            x       y       z     vdW  Elec       q    Type
REMARK                         _______ _______ _______ _____ _____    ______ ____
ROOT
ATOM      1  O   UNL     1       2.354   7.082  20.086  0.00  0.00    +0.000 OA
ATOM      2  C   UNL     1       2.490   7.011  18.867  0.00  0.00    +0.000 C 
ATOM      3  N   UNL     1       2.521   5.813  18.170  0.00  0.00    +0.000 N 
ATOM      4  H   UNL     1       2.914   5.863  17.240  0.00  0.00    +0.000 HD
ENDROOT
BRANCH   2   5
ATOM      5  C   UNL     1       2.639   8.251  17.994  0.00  0.00    +0.000 C 
BRANCH   5   6
ATOM      6  C   UNL     1       1.517   9.204  18.142  0.00  0.00    +0.000 A 
ATOM      7  C   UNL     1       1.439  10.390  18.940  0.00  0.00    +0.000 A 
ATOM      8  N   UNL     1       0.254  11.006  18.814  0.00  0.00    +0.000 NA
ATOM      9  N   UNL     1      -0.479  10.228  17.982  0.00  0.00    +0.000 N 
ATOM     10  C   UNL     1       0.258   9.125  17.557  0.00  0.00    +0.000 A 
BRANCH   9  11
ATOM     11  C   UNL     1      -1.814  10.576  17.629  0.00  0.00    +0.000 A 
ATOM     12  C   UNL     1      -2.313  10.196  16.375  0.00  0.00    +0.000 A 
ATOM     13  C   UNL     1      -3.625  10.501  16.017  0.00  0.00    +0.000 A 
ATOM     14  C   UNL     1      -4.450  11.200  16.901  0.00  0.00    +0.000 A 
ATOM     15  C   UNL     1      -3.957  11.588  18.145  0.00  0.00    +0.000 A 
ATOM     16  C   UNL     1      -2.640  11.281  18.513  0.00  0.00    +0.000 A 
ENDBRANCH   9  11
ENDBRANCH   5   6
ENDBRANCH   2   5
BRANCH   3  17
ATOM     17  C   UNL     1       2.405   4.493  18.806  0.00  0.00    +0.000 C 
BRANCH  17  18
ATOM     18  C   UNL     1       3.584   3.666  18.354  0.00  0.00    +0.000 C 
BRANCH  18  19
ATOM     19  C   UNL     1       4.727   4.212  17.517  0.00  0.00    +0.000 A 
ATOM     20  C   UNL     1       4.641   3.903  16.140  0.00  0.00    +0.000 A 
ATOM     21  C   UNL     1       5.488   4.478  15.208  0.00  0.00    +0.000 A 
ATOM     22  C   UNL     1       6.328   5.492  15.628  0.00  0.00    +0.000 A 
ATOM     23  C   UNL     1       6.460   5.764  16.997  0.00  0.00    +0.000 A 
ATOM     24  C   UNL     1       7.330   6.765  17.425  0.00  0.00    +0.000 A 
ATOM     25  C   UNL     1       7.968   6.588  18.640  0.00  0.00    +0.000 A 
ATOM     26  C   UNL     1       7.395   5.688  19.514  0.00  0.00    +0.000 A 
ATOM     27  N   UNL     1       6.249   5.006  19.249  0.00  0.00    +0.000 NA
ATOM     28  C   UNL     1       5.795   4.989  17.972  0.00  0.00    +0.000 A 
ENDBRANCH  18  19
ENDBRANCH  17  18
ENDBRANCH   3  17
TORSDOF 6
ENDMDL
MODEL 4
REMARK VINA RESULT:      -8.5      1.382      1.918
REMARK  Name = 
REMARK  6 active torsions:
REMARK  status: ('A' for Active; 'I' for Inactive)
REMARK    1  A    between atoms: C_2  and  C_3
REMARK    2  A    between atoms: C_3  and  C_4
REMARK    3  A    between atoms: N_7  and  C_8
REMARK    4  A    between atoms: N_15  and  C_16
REMARK    5  A    between atoms: C_16  and  C_17
REMARK    6  A    between atoms: C_17  and  C_18
REMARK                            x       y       z     vdW  Elec       q    Type
REMARK                         _______ _______ _______ _____ _____    ______ ____
ROOT
ATOM      1  O   UNL     1       7.881   6.108  17.524  0.00  0.00    +0.000 OA
ATOM      2  C   UNL     1       7.118   7.001  17.164  0.00  0.00    +0.000 C 
ATOM      3  N   UNL     1       7.331   8.344  17.441  0.00  0.00    +0.000 N 
ATOM      4  H   UNL     1       6.518   8.938  17.351  0.00  0.00    +0.000 HD
ENDROOT
BRANCH   2   5
ATOM      5  C   UNL     1       5.850   6.716  16.370  0.00  0.00    +0.000 C 
BRANCH   5   6
ATOM      6  C   UNL     1       4.672   6.465  17.229  0.00  0.00    +0.000 A 
ATOM      7  C   UNL     1       3.623   7.361  17.609  0.00  0.00    +0.000 A 
ATOM      8  N   UNL     1       2.714   6.771  18.400  0.00  0.00    +0.000 NA
ATOM      9  N   UNL     1       3.162   5.506  18.595  0.00  0.00    +0.000 N 
ATOM     10  C   UNL     1       4.349   5.289  17.899  0.00  0.00    +0.000 A 
BRANCH   9  11
ATOM     11  C   UNL     1       2.443   4.584  19.406  0.00  0.00    +0.000 A 
ATOM     12  C   UNL     1       1.519   3.718  18.804  0.00  0.00    +0.000 A 
ATOM     13  C   UNL     1       0.822   2.787  19.574  0.00  0.00    +0.000 A 
ATOM     14  C   UNL     1       1.029   2.719  20.952  0.00  0.00    +0.000 A 
ATOM     15  C   UNL     1       1.939   3.583  21.557  0.00  0.00    +0.000 A 
ATOM     16  C   UNL     1       2.647   4.518  20.790  0.00  0.00    +0.000 A 
ENDBRANCH   9  11
ENDBRANCH   5   6
ENDBRANCH   2   5
BRANCH   3  17
ATOM     17  C   UNL     1       8.482   8.851  18.200  0.00  0.00    +0.000 C 
BRANCH  17  18
ATOM     18  C   UNL     1       8.434  10.359  18.147  0.00  0.00    +0.000 C 
BRANCH  18  19
ATOM     19  C   UNL     1       9.569  11.256  18.607  0.00  0.00    +0.000 A 
ATOM     20  C   UNL     1      10.690  11.267  17.745  0.00  0.00    +0.000 A 
ATOM     21  C   UNL     1      11.728  12.168  17.909  0.00  0.00    +0.000 A 
ATOM     22  C   UNL     1      11.578  13.173  18.845  0.00  0.00    +0.000 A 
ATOM     23  C   UNL     1      10.500  13.136  19.740  0.00  0.00    +0.000 A 
ATOM     24  C   UNL     1      10.364  14.131  20.706  0.00  0.00    +0.000 A 
ATOM     25  C   UNL     1       9.812  13.776  21.924  0.00  0.00    +0.000 A 
ATOM     26  C   UNL     1       9.061  12.619  21.950  0.00  0.00    +0.000 A 
ATOM     27  N   UNL     1       8.827  11.849  20.853  0.00  0.00    +0.000 NA
ATOM     28  C   UNL     1       9.584  12.060  19.749  0.00  0.00    +0.000 A 
ENDBRANCH  18  19
ENDBRANCH  17  18
ENDBRANCH   3  17
TORSDOF 6
ENDMDL
MODEL 5
REMARK VINA RESULT:      -8.4      1.460      2.091
REMARK  Name = 
REMARK  6 active torsions:
REMARK  status: ('A' for Active; 'I' for Inactive)
REMARK    1  A    between atoms: C_2  and  C_3
REMARK    2  A    between atoms: C_3  and  C_4
REMARK    3  A    between atoms: N_7  and  C_8
REMARK    4  A    between atoms: N_15  and  C_16
REMARK    5  A    between atoms: C_16  and  C_17
REMARK    6  A    between atoms: C_17  and  C_18
REMARK                            x       y       z     vdW  Elec       q    Type
REMARK                         _______ _______ _______ _____ _____    ______ ____
ROOT
ATOM      1  O   UNL     1       7.527   6.446  18.535  0.00  0.00    +0.000 OA
ATOM      2  C   UNL     1       7.295   7.164  17.567  0.00  0.00    +0.000 C 
ATOM      3  N   UNL     1       7.835   8.432  17.408  0.00  0.00    +0.000 N 
ATOM      4  H   UNL     1       7.361   9.023  16.740  0.00  0.00    +0.000 HD
ENDROOT
BRANCH   2   5
ATOM      5  C   UNL     1       6.380   6.724  16.431  0.00  0.00    +0.000 C 
BRANCH   5   6
ATOM      6  C   UNL     1       5.461   5.630  16.817  0.00  0.00    +0.000 A 
ATOM      7  C   UNL     1       5.397   4.288  16.324  0.00  0.00    +0.000 A 
ATOM      8  N   UNL     1       4.429   3.576  16.919  0.00  0.00    +0.000 NA
ATOM      9  N   UNL     1       3.811   4.433  17.769  0.00  0.00    +0.000 N 
ATOM     10  C   UNL     1       4.413   5.689  17.729  0.00  0.00    +0.000 A 
BRANCH   9  11
ATOM     11  C   UNL     1       2.711   4.015  18.570  0.00  0.00    +0.000 A 
ATOM     12  C   UNL     1       2.061   2.811  18.266  0.00  0.00    +0.000 A 
ATOM     13  C   UNL     1       0.999   2.367  19.052  0.00  0.00    +0.000 A 
ATOM     14  C   UNL     1       0.565   3.124  20.142  0.00  0.00    +0.000 A 
ATOM     15  C   UNL     1       1.202   4.326  20.443  0.00  0.00    +0.000 A 
ATOM     16  C   UNL     1       2.274   4.777  19.661  0.00  0.00    +0.000 A 
ENDBRANCH   9  11
ENDBRANCH   5   6
ENDBRANCH   2   5
BRANCH   3  17
ATOM     17  C   UNL     1       8.736   9.064  18.381  0.00  0.00    +0.000 C 
BRANCH  17  18
ATOM     18  C   UNL     1       8.572  10.559  18.248  0.00  0.00    +0.000 C 
BRANCH  18  19
ATOM     19  C   UNL     1       9.668  11.561  18.569  0.00  0.00    +0.000 A 
ATOM     20  C   UNL     1      10.687  11.642  17.592  0.00  0.00    +0.000 A 
ATOM     21  C   UNL     1      11.656  12.630  17.629  0.00  0.00    +0.000 A 
ATOM     22  C   UNL     1      11.518  13.644  18.557  0.00  0.00    +0.000 A 
ATOM     23  C   UNL     1      10.547  13.541  19.562  0.00  0.00    +0.000 A 
ATOM     24  C   UNL     1      10.427  14.548  20.518  0.00  0.00    +0.000 A 
ATOM     25  C   UNL     1      10.038  14.181  21.795  0.00  0.00    +0.000 A 
ATOM     26  C   UNL     1       9.396  12.967  21.921  0.00  0.00    +0.000 A 
ATOM     27  N   UNL     1       9.116  12.150  20.869  0.00  0.00    +0.000 NA
ATOM     28  C   UNL     1       9.733  12.394  19.687  0.00  0.00    +0.000 A 
ENDBRANCH  18  19
ENDBRANCH  17  18
ENDBRANCH   3  17
TORSDOF 6
ENDMDL
MODEL 6
REMARK VINA RESULT:      -8.4      5.029      8.248
REMARK  Name = 
REMARK  6 active torsions:
REMARK  status: ('A' for Active; 'I' for Inactive)
REMARK    1  A    between atoms: C_2  and  C_3
REMARK    2  A    between atoms: C_3  and  C_4
REMARK    3  A    between atoms: N_7  and  C_8
REMARK    4  A    between atoms: N_15  and  C_16
REMARK    5  A    between atoms: C_16  and  C_17
REMARK    6  A    between atoms: C_17  and  C_18
REMARK                            x       y       z     vdW  Elec       q    Type
REMARK                         _______ _______ _______ _____ _____    ______ ____
ROOT
ATOM      1  O   UNL     1       2.037   7.774  20.248  0.00  0.00    +0.000 OA
ATOM      2  C   UNL     1       2.260   7.535  19.064  0.00  0.00    +0.000 C 
ATOM      3  N   UNL     1       2.496   6.259  18.574  0.00  0.00    +0.000 N 
ATOM      4  H   UNL     1       2.940   6.220  17.667  0.00  0.00    +0.000 HD
ENDROOT
BRANCH   2   5
ATOM      5  C   UNL     1       2.301   8.632  18.008  0.00  0.00    +0.000 C 
BRANCH   5   6
ATOM      6  C   UNL     1       1.184   9.595  18.128  0.00  0.00    +0.000 A 
ATOM      7  C   UNL     1       1.145  10.855  18.805  0.00  0.00    +0.000 A 
ATOM      8  N   UNL     1      -0.049  11.454  18.690  0.00  0.00    +0.000 NA
ATOM      9  N   UNL     1      -0.826  10.595  17.987  0.00  0.00    +0.000 N 
ATOM     10  C   UNL     1      -0.108   9.455  17.631  0.00  0.00    +0.000 A 
BRANCH   9  11
ATOM     11  C   UNL     1      -2.182  10.905  17.682  0.00  0.00    +0.000 A 
ATOM     12  C   UNL     1      -2.980  11.521  18.657  0.00  0.00    +0.000 A 
ATOM     13  C   UNL     1      -4.302  11.859  18.373  0.00  0.00    +0.000 A 
ATOM     14  C   UNL     1      -4.847  11.575  17.120  0.00  0.00    +0.000 A 
ATOM     15  C   UNL     1      -4.062  10.954  16.151  0.00  0.00    +0.000 A 
ATOM     16  C   UNL     1      -2.731  10.616  16.426  0.00  0.00    +0.000 A 
ENDBRANCH   9  11
ENDBRANCH   5   6
ENDBRANCH   2   5
BRANCH   3  17
ATOM     17  C   UNL     1       2.515   5.052  19.410  0.00  0.00    +0.000 C 
BRANCH  17  18
ATOM     18  C   UNL     1       3.434   4.054  18.748  0.00  0.00    +0.000 C 
BRANCH  18  19
ATOM     19  C   UNL     1       4.591   4.443  17.844  0.00  0.00    +0.000 A 
ATOM     20  C   UNL     1       4.420   4.079  16.489  0.00  0.00    +0.000 A 
ATOM     21  C   UNL     1       5.282   4.521  15.500  0.00  0.00    +0.000 A 
ATOM     22  C   UNL     1       6.233   5.464  15.838  0.00  0.00    +0.000 A 
ATOM     23  C   UNL     1       6.446   5.787  17.185  0.00  0.00    +0.000 A 
ATOM     24  C   UNL     1       7.427   6.714  17.531  0.00  0.00    +0.000 A 
ATOM     25  C   UNL     1       8.093   6.532  18.730  0.00  0.00    +0.000 A 
ATOM     26  C   UNL     1       7.469   5.736  19.669  0.00  0.00    +0.000 A 
ATOM     27  N   UNL     1       6.251   5.161  19.479  0.00  0.00    +0.000 NA
ATOM     28  C   UNL     1       5.747   5.129  18.221  0.00  0.00    +0.000 A 
ENDBRANCH  18  19
ENDBRANCH  17  18
ENDBRANCH   3  17
TORSDOF 6
ENDMDL
MODEL 7
REMARK VINA RESULT:      -8.4      1.408      1.755
REMARK  Name = 
REMARK  6 active torsions:
REMARK  status: ('A' for Active; 'I' for Inactive)
REMARK    1  A    between atoms: C_2  and  C_3
REMARK    2  A    between atoms: C_3  and  C_4
REMARK    3  A    between atoms: N_7  and  C_8
REMARK    4  A    between atoms: N_15  and  C_16
REMARK    5  A    between atoms: C_16  and  C_17
REMARK    6  A    between atoms: C_17  and  C_18
REMARK                            x       y       z     vdW  Elec       q    Type
REMARK                         _______ _______ _______ _____ _____    ______ ____
ROOT
ATOM      1  O   UNL     1       7.616   7.208  16.744  0.00  0.00    +0.000 OA
ATOM      2  C   UNL     1       7.913   7.297  17.933  0.00  0.00    +0.000 C 
ATOM      3  N   UNL     1       8.433   8.448  18.506  0.00  0.00    +0.000 N 
ATOM      4  H   UNL     1       8.895   8.317  19.396  0.00  0.00    +0.000 HD
ENDROOT
BRANCH   2   5
ATOM      5  C   UNL     1       7.735   6.136  18.902  0.00  0.00    +0.000 C 
BRANCH   5   6
ATOM      6  C   UNL     1       6.557   5.295  18.593  0.00  0.00    +0.000 A 
ATOM      7  C   UNL     1       6.306   4.479  17.445  0.00  0.00    +0.000 A 
ATOM      8  N   UNL     1       5.122   3.853  17.518  0.00  0.00    +0.000 NA
ATOM      9  N   UNL     1       4.555   4.274  18.675  0.00  0.00    +0.000 N 
ATOM     10  C   UNL     1       5.400   5.152  19.351  0.00  0.00    +0.000 A 
BRANCH   9  11
ATOM     11  C   UNL     1       3.268   3.816  19.077  0.00  0.00    +0.000 A 
ATOM     12  C   UNL     1       2.222   3.806  18.143  0.00  0.00    +0.000 A 
ATOM     13  C   UNL     1       0.960   3.336  18.505  0.00  0.00    +0.000 A 
ATOM     14  C   UNL     1       0.725   2.882  19.804  0.00  0.00    +0.000 A 
ATOM     15  C   UNL     1       1.758   2.898  20.738  0.00  0.00    +0.000 A 
ATOM     16  C   UNL     1       3.030   3.365  20.381  0.00  0.00    +0.000 A 
ENDBRANCH   9  11
ENDBRANCH   5   6
ENDBRANCH   2   5
BRANCH   3  17
ATOM     17  C   UNL     1       8.697   9.685  17.761  0.00  0.00    +0.000 C 
BRANCH  17  18
ATOM     18  C   UNL     1       8.735  10.818  18.759  0.00  0.00    +0.000 C 
BRANCH  18  19
ATOM     19  C   UNL     1       9.888  11.799  18.879  0.00  0.00    +0.000 A 
ATOM     20  C   UNL     1      11.060  11.253  19.452  0.00  0.00    +0.000 A 
ATOM     21  C   UNL     1      12.258  11.946  19.461  0.00  0.00    +0.000 A 
ATOM     22  C   UNL     1      12.333  13.130  18.753  0.00  0.00    +0.000 A 
ATOM     23  C   UNL     1      11.166  13.705  18.233  0.00  0.00    +0.000 A 
ATOM     24  C   UNL     1      11.234  14.915  17.546  0.00  0.00    +0.000 A 
ATOM     25  C   UNL     1      10.157  15.777  17.650  0.00  0.00    +0.000 A 
ATOM     26  C   UNL     1       8.957  15.223  18.046  0.00  0.00    +0.000 A 
ATOM     27  N   UNL     1       8.789  13.899  18.307  0.00  0.00    +0.000 NA
ATOM     28  C   UNL     1       9.895  13.131  18.460  0.00  0.00    +0.000 A 
ENDBRANCH  18  19
ENDBRANCH  17  18
ENDBRANCH   3  17
TORSDOF 6
ENDMDL
MODEL 8
REMARK VINA RESULT:      -8.3      0.627      1.067
REMARK  Name = 
REMARK  6 active torsions:
REMARK  status: ('A' for Active; 'I' for Inactive)
REMARK    1  A    between atoms: C_2  and  C_3
REMARK    2  A    between atoms: C_3  and  C_4
REMARK    3  A    between atoms: N_7  and  C_8
REMARK    4  A    between atoms: N_15  and  C_16
REMARK    5  A    between atoms: C_16  and  C_17
REMARK    6  A    between atoms: C_17  and  C_18
REMARK                            x       y       z     vdW  Elec       q    Type
REMARK                         _______ _______ _______ _____ _____    ______ ____
ROOT
ATOM      1  O   UNL     1       7.998   6.450  18.812  0.00  0.00    +0.000 OA
ATOM      2  C   UNL     1       7.531   7.158  17.924  0.00  0.00    +0.000 C 
ATOM      3  N   UNL     1       7.844   8.501  17.773  0.00  0.00    +0.000 N 
ATOM      4  H   UNL     1       7.200   9.034  17.205  0.00  0.00    +0.000 HD
ENDROOT
BRANCH   2   5
ATOM      5  C   UNL     1       6.550   6.622  16.890  0.00  0.00    +0.000 C 
BRANCH   5   6
ATOM      6  C   UNL     1       5.215   6.323  17.455  0.00  0.00    +0.000 A 
ATOM      7  C   UNL     1       3.988   7.044  17.305  0.00  0.00    +0.000 A 
ATOM      8  N   UNL     1       2.976   6.463  17.965  0.00  0.00    +0.000 NA
ATOM      9  N   UNL     1       3.515   5.391  18.596  0.00  0.00    +0.000 N 
ATOM     10  C   UNL     1       4.874   5.278  18.308  0.00  0.00    +0.000 A 
BRANCH   9  11
ATOM     11  C   UNL     1       2.721   4.536  19.412  0.00  0.00    +0.000 A 
ATOM     12  C   UNL     1       1.498   4.059  18.918  0.00  0.00    +0.000 A 
ATOM     13  C   UNL     1       0.716   3.199  19.687  0.00  0.00    +0.000 A 
ATOM     14  C   UNL     1       1.137   2.816  20.961  0.00  0.00    +0.000 A 
ATOM     15  C   UNL     1       2.346   3.294  21.461  0.00  0.00    +0.000 A 
ATOM     16  C   UNL     1       3.141   4.155  20.692  0.00  0.00    +0.000 A 
ENDBRANCH   9  11
ENDBRANCH   5   6
ENDBRANCH   2   5
BRANCH   3  17
ATOM     17  C   UNL     1       8.760   9.232  18.659  0.00  0.00    +0.000 C 
BRANCH  17  18
ATOM     18  C   UNL     1       8.935  10.619  18.088  0.00  0.00    +0.000 C 
BRANCH  18  19
ATOM     19  C   UNL     1       9.429  11.807  18.895  0.00  0.00    +0.000 A 
ATOM     20  C   UNL     1      10.250  11.465  19.994  0.00  0.00    +0.000 A 
ATOM     21  C   UNL     1      10.937  12.424  20.718  0.00  0.00    +0.000 A 
ATOM     22  C   UNL     1      10.935  13.723  20.247  0.00  0.00    +0.000 A 
ATOM     23  C   UNL     1      10.081  14.080  19.195  0.00  0.00    +0.000 A 
ATOM     24  C   UNL     1      10.054  15.397  18.739  0.00  0.00    +0.000 A 
ATOM     25  C   UNL     1       8.849  15.892  18.270  0.00  0.00    +0.000 A 
ATOM     26  C   UNL     1       7.904  14.962  17.889  0.00  0.00    +0.000 A 
ATOM     27  N   UNL     1       8.111  13.618  17.930  0.00  0.00    +0.000 NA
ATOM     28  C   UNL     1       9.174  13.155  18.633  0.00  0.00    +0.000 A 
ENDBRANCH  18  19
ENDBRANCH  17  18
ENDBRANCH   3  17
TORSDOF 6
ENDMDL
MODEL 9
REMARK VINA RESULT:      -8.2      1.956      2.367
REMARK  Name = 
REMARK  6 active torsions:
REMARK  status: ('A' for Active; 'I' for Inactive)
REMARK    1  A    between atoms: C_2  and  C_3
REMARK    2  A    between atoms: C_3  and  C_4
REMARK    3  A    between atoms: N_7  and  C_8
REMARK    4  A    between atoms: N_15  and  C_16
REMARK    5  A    between atoms: C_16  and  C_17
REMARK    6  A    between atoms: C_17  and  C_18
REMARK                            x       y       z     vdW  Elec       q    Type
REMARK                         _______ _______ _______ _____ _____    ______ ____
ROOT
ATOM      1  O   UNL     1       7.397   8.284  17.239  0.00  0.00    +0.000 OA
ATOM      2  C   UNL     1       8.053   7.888  18.199  0.00  0.00    +0.000 C 
ATOM      3  N   UNL     1       8.873   8.711  18.956  0.00  0.00    +0.000 N 
ATOM      4  H   UNL     1       9.562   8.233  19.520  0.00  0.00    +0.000 HD
ENDROOT
BRANCH   2   5
ATOM      5  C   UNL     1       8.026   6.434  18.655  0.00  0.00    +0.000 C 
BRANCH   5   6
ATOM      6  C   UNL     1       6.890   5.670  18.095  0.00  0.00    +0.000 A 
ATOM      7  C   UNL     1       6.632   5.299  16.737  0.00  0.00    +0.000 A 
ATOM      8  N   UNL     1       5.496   4.598  16.611  0.00  0.00    +0.000 NA
ATOM      9  N   UNL     1       4.963   4.534  17.856  0.00  0.00    +0.000 N 
ATOM     10  C   UNL     1       5.784   5.177  18.779  0.00  0.00    +0.000 A 
BRANCH   9  11
ATOM     11  C   UNL     1       3.730   3.865  18.098  0.00  0.00    +0.000 A 
ATOM     12  C   UNL     1       3.736   2.651  18.800  0.00  0.00    +0.000 A 
ATOM     13  C   UNL     1       2.540   1.990  19.075  0.00  0.00    +0.000 A 
ATOM     14  C   UNL     1       1.326   2.526  18.641  0.00  0.00    +0.000 A 
ATOM     15  C   UNL     1       1.314   3.727  17.935  0.00  0.00    +0.000 A 
ATOM     16  C   UNL     1       2.512   4.399  17.660  0.00  0.00    +0.000 A 
ENDBRANCH   9  11
ENDBRANCH   5   6
ENDBRANCH   2   5
BRANCH   3  17
ATOM     17  C   UNL     1       9.060  10.144  18.694  0.00  0.00    +0.000 C 
BRANCH  17  18
ATOM     18  C   UNL     1       9.532  10.783  19.978  0.00  0.00    +0.000 C 
BRANCH  18  19
ATOM     19  C   UNL     1       9.831  12.265  20.122  0.00  0.00    +0.000 A 
ATOM     20  C   UNL     1       9.198  12.883  21.224  0.00  0.00    +0.000 A 
ATOM     21  C   UNL     1       9.509  14.175  21.615  0.00  0.00    +0.000 A 
ATOM     22  C   UNL     1      10.574  14.804  21.000  0.00  0.00    +0.000 A 
ATOM     23  C   UNL     1      11.168  14.223  19.871  0.00  0.00    +0.000 A 
ATOM     24  C   UNL     1      12.222  14.871  19.231  0.00  0.00    +0.000 A 
ATOM     25  C   UNL     1      12.332  14.722  17.859  0.00  0.00    +0.000 A 
ATOM     26  C   UNL     1      11.686  13.639  17.300  0.00  0.00    +0.000 A 
ATOM     27  N   UNL     1      10.987  12.724  18.024  0.00  0.00    +0.000 NA
ATOM     28  C   UNL     1      10.670  13.028  19.306  0.00  0.00    +0.000 A 
ENDBRANCH  18  19
ENDBRANCH  17  18
ENDBRANCH   3  17
TORSDOF 6
ENDMDL
