MODEL 1
REMARK VINA RESULT:      -9.2      0.000      0.000
REMARK  Name = 
REMARK  4 active torsions:
REMARK  status: ('A' for Active; 'I' for Inactive)
REMARK    1  A    between atoms: C_2  and  C_26
REMARK    2  A    between atoms: N_3  and  C_4
REMARK    3  A    between atoms: C_8  and  C_9
REMARK    4  A    between atoms: C_15  and  C_16
REMARK                            x       y       z     vdW  Elec       q    Type
REMARK                         _______ _______ _______ _____ _____    ______ ____
ROOT
ATOM      1  C   UNL     1       4.264   6.210  17.908  0.00  0.00    +0.000 C 
ATOM      2  O   UNL     1       4.031   6.732  16.814  0.00  0.00    +0.000 OA
ATOM      3  N   UNL     1       5.511   5.647  18.174  0.00  0.00    +0.000 N 
ATOM      4  C   UNL     1       5.987   5.093  19.432  0.00  0.00    +0.000 C 
ATOM      5  C   UNL     1       7.310   5.790  19.667  0.00  0.00    +0.000 C 
ATOM      6  C   UNL     1       7.893   5.889  18.268  0.00  0.00    +0.000 C 
ATOM      7  C   UNL     1       6.663   6.082  17.365  0.00  0.00    +0.000 C 
ENDROOT
BRANCH   7   8
ATOM      8  C   UNL     1       6.798   5.357  16.056  0.00  0.00    +0.000 A 
ATOM      9  N   UNL     1       7.650   5.603  15.072  0.00  0.00    +0.000 NA
ATOM     10  C   UNL     1       7.181   4.904  13.985  0.00  0.00    +0.000 A 
ATOM     11  C   UNL     1       7.649   4.875  12.661  0.00  0.00    +0.000 A 
ATOM     12  C   UNL     1       6.933   4.135  11.709  0.00  0.00    +0.000 A 
ATOM     13  C   UNL     1       5.781   3.433  12.071  0.00  0.00    +0.000 A 
ATOM     14  C   UNL     1       5.318   3.426  13.393  0.00  0.00    +0.000 A 
ATOM     15  C   UNL     1       6.046   4.177  14.318  0.00  0.00    +0.000 A 
ATOM     16  N   UNL     1       5.872   4.418  15.658  0.00  0.00    +0.000 N 
ATOM     17  H   UNL     1       5.135   4.059  16.255  0.00  0.00    +0.000 HD
ENDBRANCH   7   8
BRANCH   1  22
ATOM     18  C   UNL     1       1.532   7.499  20.292  0.00  0.00    +0.000 A 
ATOM     19  C   UNL     1       1.237   6.299  20.950  0.00  0.00    +0.000 A 
ATOM     20  C   UNL     1       1.935   5.132  20.659  0.00  0.00    +0.000 A 
ATOM     21  C   UNL     1       2.919   5.143  19.675  0.00  0.00    +0.000 A 
ATOM     22  C   UNL     1       3.202   6.317  18.958  0.00  0.00    +0.000 A 
ATOM     23  C   UNL     1       2.517   7.500  19.286  0.00  0.00    +0.000 A 
BRANCH  18  26
ATOM     24  O   UNL     1       1.868   9.175  22.631  0.00  0.00    +0.000 OA
ATOM     25  C   UNL     1       1.047   9.457  21.764  0.00  0.00    +0.000 C 
ATOM     26  N   UNL     1       0.869   8.712  20.599  0.00  0.00    +0.000 N 
ATOM     27  H   UNL     1       0.302   9.139  19.879  0.00  0.00    +0.000 HD
BRANCH  25  28
ATOM     28  C   UNL     1       0.225  10.657  21.902  0.00  0.00    +0.000 A 
ATOM     29  C   UNL     1      -0.801  10.820  22.820  0.00  0.00    +0.000 A 
ATOM     30  C   UNL     1      -1.473  12.065  22.686  0.00  0.00    +0.000 A 
ATOM     31  C   UNL     1      -0.934  12.824  21.672  0.00  0.00    +0.000 A 
ATOM     32  S   UNL     1       0.386  12.040  20.909  0.00  0.00    +0.000 S 
ENDBRANCH  25  28
ENDBRANCH  18  26
ENDBRANCH   1  22
TORSDOF 4
ENDMDL
MODEL 2
REMARK VINA RESULT:      -9.0      0.922      1.058
REMARK  Name = 
REMARK  4 active torsions:
REMARK  status: ('A' for Active; 'I' for Inactive)
REMARK    1  A    between atoms: C_2  and  C_26
REMARK    2  A    between atoms: N_3  and  C_4
REMARK    3  A    between atoms: C_8  and  C_9
REMARK    4  A    between atoms: C_15  and  C_16
REMARK                            x       y       z     vdW  Elec       q    Type
REMARK                         _______ _______ _______ _____ _____    ______ ____
ROOT
ATOM      1  C   UNL     1       4.271   5.531  17.895  0.00  0.00    +0.000 C 
ATOM      2  O   UNL     1       3.844   5.939  16.811  0.00  0.00    +0.000 OA
ATOM      3  N   UNL     1       5.635   5.320  18.087  0.00  0.00    +0.000 N 
ATOM      4  C   UNL     1       6.314   4.949  19.319  0.00  0.00    +0.000 C 
ATOM      5  C   UNL     1       7.421   5.974  19.455  0.00  0.00    +0.000 C 
ATOM      6  C   UNL     1       7.872   6.176  18.018  0.00  0.00    +0.000 C 
ATOM      7  C   UNL     1       6.583   6.013  17.196  0.00  0.00    +0.000 C 
ENDROOT
BRANCH   7   8
ATOM      8  C   UNL     1       6.823   5.306  15.892  0.00  0.00    +0.000 A 
ATOM      9  N   UNL     1       7.685   5.628  14.939  0.00  0.00    +0.000 NA
ATOM     10  C   UNL     1       7.314   4.895  13.836  0.00  0.00    +0.000 A 
ATOM     11  C   UNL     1       7.828   4.909  12.528  0.00  0.00    +0.000 A 
ATOM     12  C   UNL     1       7.210   4.115  11.553  0.00  0.00    +0.000 A 
ATOM     13  C   UNL     1       6.110   3.316  11.874  0.00  0.00    +0.000 A 
ATOM     14  C   UNL     1       5.605   3.267  13.179  0.00  0.00    +0.000 A 
ATOM     15  C   UNL     1       6.234   4.073  14.130  0.00  0.00    +0.000 A 
ATOM     16  N   UNL     1       5.995   4.294  15.462  0.00  0.00    +0.000 N 
ATOM     17  H   UNL     1       5.270   3.872  16.034  0.00  0.00    +0.000 HD
ENDBRANCH   7   8
BRANCH   1  22
ATOM     18  C   UNL     1       1.703   6.230  20.675  0.00  0.00    +0.000 A 
ATOM     19  C   UNL     1       1.459   4.913  21.080  0.00  0.00    +0.000 A 
ATOM     20  C   UNL     1       2.141   3.847  20.501  0.00  0.00    +0.000 A 
ATOM     21  C   UNL     1       3.055   4.086  19.480  0.00  0.00    +0.000 A 
ATOM     22  C   UNL     1       3.283   5.392  19.012  0.00  0.00    +0.000 A 
ATOM     23  C   UNL     1       2.617   6.464  19.630  0.00  0.00    +0.000 A 
BRANCH  18  26
ATOM     24  O   UNL     1       1.409   8.914  19.625  0.00  0.00    +0.000 OA
ATOM     25  C   UNL     1       0.982   8.621  20.737  0.00  0.00    +0.000 C 
ATOM     26  N   UNL     1       1.057   7.338  21.277  0.00  0.00    +0.000 N 
ATOM     27  H   UNL     1       0.512   7.173  22.113  0.00  0.00    +0.000 HD
BRANCH  25  28
ATOM     28  C   UNL     1       0.308   9.632  21.548  0.00  0.00    +0.000 A 
ATOM     29  C   UNL     1      -0.403   9.376  22.710  0.00  0.00    +0.000 A 
ATOM     30  C   UNL     1      -1.009  10.540  23.256  0.00  0.00    +0.000 A 
ATOM     31  C   UNL     1      -0.737  11.656  22.498  0.00  0.00    +0.000 A 
ATOM     32  S   UNL     1       0.262  11.295  21.152  0.00  0.00    +0.000 S 
ENDBRANCH  25  28
ENDBRANCH  18  26
ENDBRANCH   1  22
TORSDOF 4
ENDMDL
MODEL 3
REMARK VINA RESULT:      -8.7      1.315      1.385
REMARK  Name = 
REMARK  4 active torsions:
REMARK  status: ('A' for Active; 'I' for Inactive)
REMARK    1  A    between atoms: C_2  and  C_26
REMARK    2  A    between atoms: N_3  and  C_4
REMARK    3  A    between atoms: C_8  and  C_9
REMARK    4  A    between atoms: C_15  and  C_16
REMARK                            x       y       z     vdW  Elec       q    Type
REMARK                         _______ _______ _______ _____ _____    ______ ____
ROOT
ATOM      1  C   UNL     1       4.305   6.404  17.733  0.00  0.00    +0.000 C 
ATOM      2  O   UNL     1       4.163   6.939  16.630  0.00  0.00    +0.000 OA
ATOM      3  N   UNL     1       5.477   5.717  18.044  0.00  0.00    +0.000 N 
ATOM      4  C   UNL     1       5.851   5.127  19.319  0.00  0.00    +0.000 C 
ATOM      5  C   UNL     1       7.231   5.686  19.596  0.00  0.00    +0.000 C 
ATOM      6  C   UNL     1       7.867   5.715  18.216  0.00  0.00    +0.000 C 
ATOM      7  C   UNL     1       6.694   6.026  17.272  0.00  0.00    +0.000 C 
ENDROOT
BRANCH   7   8
ATOM      8  C   UNL     1       6.797   5.282  15.970  0.00  0.00    +0.000 A 
ATOM      9  N   UNL     1       7.666   5.473  14.990  0.00  0.00    +0.000 NA
ATOM     10  C   UNL     1       7.166   4.789  13.907  0.00  0.00    +0.000 A 
ATOM     11  C   UNL     1       7.639   4.721  12.585  0.00  0.00    +0.000 A 
ATOM     12  C   UNL     1       6.889   4.010  11.637  0.00  0.00    +0.000 A 
ATOM     13  C   UNL     1       5.700   3.374  11.999  0.00  0.00    +0.000 A 
ATOM     14  C   UNL     1       5.231   3.406  13.319  0.00  0.00    +0.000 A 
ATOM     15  C   UNL     1       5.993   4.126  14.241  0.00  0.00    +0.000 A 
ATOM     16  N   UNL     1       5.825   4.389  15.577  0.00  0.00    +0.000 N 
ATOM     17  H   UNL     1       5.067   4.076  16.174  0.00  0.00    +0.000 HD
ENDBRANCH   7   8
BRANCH   1  22
ATOM     18  C   UNL     1       1.595   7.970  19.972  0.00  0.00    +0.000 A 
ATOM     19  C   UNL     1       1.213   6.826  20.681  0.00  0.00    +0.000 A 
ATOM     20  C   UNL     1       1.848   5.606  20.469  0.00  0.00    +0.000 A 
ATOM     21  C   UNL     1       2.855   5.509  19.514  0.00  0.00    +0.000 A 
ATOM     22  C   UNL     1       3.225   6.627  18.747  0.00  0.00    +0.000 A 
ATOM     23  C   UNL     1       2.603   7.862  18.995  0.00  0.00    +0.000 A 
BRANCH  18  26
ATOM     24  O   UNL     1       0.213   9.660  18.068  0.00  0.00    +0.000 OA
ATOM     25  C   UNL     1       0.378  10.021  19.228  0.00  0.00    +0.000 C 
ATOM     26  N   UNL     1       0.998   9.235  20.199  0.00  0.00    +0.000 N 
ATOM     27  H   UNL     1       0.912   9.555  21.154  0.00  0.00    +0.000 HD
BRANCH  25  28
ATOM     28  C   UNL     1      -0.132  11.317  19.668  0.00  0.00    +0.000 A 
ATOM     29  C   UNL     1      -0.253  11.720  20.989  0.00  0.00    +0.000 A 
ATOM     30  C   UNL     1      -0.841  13.007  21.125  0.00  0.00    +0.000 A 
ATOM     31  C   UNL     1      -1.147  13.555  19.900  0.00  0.00    +0.000 A 
ATOM     32  S   UNL     1      -0.702  12.527  18.602  0.00  0.00    +0.000 S 
ENDBRANCH  25  28
ENDBRANCH  18  26
ENDBRANCH   1  22
TORSDOF 4
ENDMDL
MODEL 4
REMARK VINA RESULT:      -8.3      0.491      1.162
REMARK  Name = 
REMARK  4 active torsions:
REMARK  status: ('A' for Active; 'I' for Inactive)
REMARK    1  A    between atoms: C_2  and  C_26
REMARK    2  A    between atoms: N_3  and  C_4
REMARK    3  A    between atoms: C_8  and  C_9
REMARK    4  A    between atoms: C_15  and  C_16
REMARK                            x       y       z     vdW  Elec       q    Type
REMARK                         _______ _______ _______ _____ _____    ______ ____
ROOT
ATOM      1  C   UNL     1       3.904   6.465  17.906  0.00  0.00    +0.000 C 
ATOM      2  O   UNL     1       3.710   7.202  16.934  0.00  0.00    +0.000 OA
ATOM      3  N   UNL     1       5.041   5.663  17.972  0.00  0.00    +0.000 N 
ATOM      4  C   UNL     1       5.477   4.825  19.079  0.00  0.00    +0.000 C 
ATOM      5  C   UNL     1       6.915   5.238  19.314  0.00  0.00    +0.000 C 
ATOM      6  C   UNL     1       7.430   5.481  17.906  0.00  0.00    +0.000 C 
ATOM      7  C   UNL     1       6.208   6.033  17.151  0.00  0.00    +0.000 C 
ENDROOT
BRANCH   7   8
ATOM      8  C   UNL     1       6.141   5.536  15.735  0.00  0.00    +0.000 A 
ATOM      9  N   UNL     1       5.229   4.742  15.193  0.00  0.00    +0.000 NA
ATOM     10  C   UNL     1       5.761   4.320  13.998  0.00  0.00    +0.000 A 
ATOM     11  C   UNL     1       5.260   3.403  13.060  0.00  0.00    +0.000 A 
ATOM     12  C   UNL     1       6.047   3.078  11.946  0.00  0.00    +0.000 A 
ATOM     13  C   UNL     1       7.303   3.662  11.766  0.00  0.00    +0.000 A 
ATOM     14  C   UNL     1       7.805   4.602  12.675  0.00  0.00    +0.000 A 
ATOM     15  C   UNL     1       7.004   4.901  13.778  0.00  0.00    +0.000 A 
ATOM     16  N   UNL     1       7.184   5.730  14.857  0.00  0.00    +0.000 N 
ATOM     17  H   UNL     1       7.986   6.320  15.050  0.00  0.00    +0.000 HD
ENDBRANCH   7   8
BRANCH   1  22
ATOM     18  C   UNL     1       1.331   7.715  20.480  0.00  0.00    +0.000 A 
ATOM     19  C   UNL     1       1.161   6.532  21.207  0.00  0.00    +0.000 A 
ATOM     20  C   UNL     1       1.892   5.390  20.898  0.00  0.00    +0.000 A 
ATOM     21  C   UNL     1       2.782   5.408  19.829  0.00  0.00    +0.000 A 
ATOM     22  C   UNL     1       2.936   6.564  19.044  0.00  0.00    +0.000 A 
ATOM     23  C   UNL     1       2.221   7.723  19.389  0.00  0.00    +0.000 A 
BRANCH  18  26
ATOM     24  O   UNL     1       1.673   9.417  22.799  0.00  0.00    +0.000 OA
ATOM     25  C   UNL     1       0.818   9.664  21.955  0.00  0.00    +0.000 C 
ATOM     26  N   UNL     1       0.634   8.906  20.800  0.00  0.00    +0.000 N 
ATOM     27  H   UNL     1       0.031   9.308  20.094  0.00  0.00    +0.000 HD
BRANCH  25  28
ATOM     28  C   UNL     1      -0.042  10.835  22.111  0.00  0.00    +0.000 A 
ATOM     29  C   UNL     1      -1.074  10.949  23.030  0.00  0.00    +0.000 A 
ATOM     30  C   UNL     1      -1.786  12.174  22.914  0.00  0.00    +0.000 A 
ATOM     31  C   UNL     1      -1.272  12.966  21.913  0.00  0.00    +0.000 A 
ATOM     32  S   UNL     1       0.075  12.238  21.140  0.00  0.00    +0.000 S 
ENDBRANCH  25  28
ENDBRANCH  18  26
ENDBRANCH   1  22
TORSDOF 4
ENDMDL
MODEL 5
REMARK VINA RESULT:      -8.2      2.777     10.090
REMARK  Name = 
REMARK  4 active torsions:
REMARK  status: ('A' for Active; 'I' for Inactive)
REMARK    1  A    between atoms: C_2  and  C_26
REMARK    2  A    between atoms: N_3  and  C_4
REMARK    3  A    between atoms: C_8  and  C_9
REMARK    4  A    between atoms: C_15  and  C_16
REMARK                            x       y       z     vdW  Elec       q    Type
REMARK                         _______ _______ _______ _____ _____    ______ ____
ROOT
ATOM      1  C   UNL     1       1.289   8.736  20.666  0.00  0.00    +0.000 C 
ATOM      2  O   UNL     1       1.271   8.980  21.876  0.00  0.00    +0.000 OA
ATOM      3  N   UNL     1       1.053   9.746  19.735  0.00  0.00    +0.000 N 
ATOM      4  C   UNL     1       1.141   9.659  18.286  0.00  0.00    +0.000 C 
ATOM      5  C   UNL     1       2.035  10.819  17.899  0.00  0.00    +0.000 C 
ATOM      6  C   UNL     1       1.612  11.909  18.869  0.00  0.00    +0.000 C 
ATOM      7  C   UNL     1       1.251  11.145  20.154  0.00  0.00    +0.000 C 
ENDROOT
BRANCH   7   8
ATOM      8  C   UNL     1       0.068  11.745  20.860  0.00  0.00    +0.000 A 
ATOM      9  N   UNL     1      -0.195  11.736  22.158  0.00  0.00    +0.000 NA
ATOM     10  C   UNL     1      -1.513  12.112  22.276  0.00  0.00    +0.000 A 
ATOM     11  C   UNL     1      -2.331  12.187  23.416  0.00  0.00    +0.000 A 
ATOM     12  C   UNL     1      -3.683  12.523  23.253  0.00  0.00    +0.000 A 
ATOM     13  C   UNL     1      -4.205  12.787  21.985  0.00  0.00    +0.000 A 
ATOM     14  C   UNL     1      -3.396  12.746  20.842  0.00  0.00    +0.000 A 
ATOM     15  C   UNL     1      -2.056  12.402  21.032  0.00  0.00    +0.000 A 
ATOM     16  N   UNL     1      -1.009  12.240  20.160  0.00  0.00    +0.000 N 
ATOM     17  H   UNL     1      -1.025  12.359  19.153  0.00  0.00    +0.000 HD
ENDBRANCH   7   8
BRANCH   1  22
ATOM     18  C   UNL     1       2.823   5.719  18.835  0.00  0.00    +0.000 A 
ATOM     19  C   UNL     1       2.335   4.697  19.657  0.00  0.00    +0.000 A 
ATOM     20  C   UNL     1       1.502   4.980  20.735  0.00  0.00    +0.000 A 
ATOM     21  C   UNL     1       1.173   6.301  21.025  0.00  0.00    +0.000 A 
ATOM     22  C   UNL     1       1.691   7.354  20.252  0.00  0.00    +0.000 A 
ATOM     23  C   UNL     1       2.500   7.054  19.143  0.00  0.00    +0.000 A 
BRANCH  18  26
ATOM     24  O   UNL     1       5.532   4.694  18.783  0.00  0.00    +0.000 OA
ATOM     25  C   UNL     1       4.951   4.998  17.745  0.00  0.00    +0.000 C 
ATOM     26  N   UNL     1       3.636   5.457  17.705  0.00  0.00    +0.000 N 
ATOM     27  H   UNL     1       3.205   5.498  16.790  0.00  0.00    +0.000 HD
BRANCH  25  28
ATOM     28  C   UNL     1       5.626   4.839  16.460  0.00  0.00    +0.000 A 
ATOM     29  C   UNL     1       5.122   4.135  15.377  0.00  0.00    +0.000 A 
ATOM     30  C   UNL     1       6.022   4.089  14.278  0.00  0.00    +0.000 A 
ATOM     31  C   UNL     1       7.187   4.769  14.549  0.00  0.00    +0.000 A 
ATOM     32  S   UNL     1       7.177   5.472  16.113  0.00  0.00    +0.000 S 
ENDBRANCH  25  28
ENDBRANCH  18  26
ENDBRANCH   1  22
TORSDOF 4
ENDMDL
MODEL 6
REMARK VINA RESULT:      -8.2      4.696     11.723
REMARK  Name = 
REMARK  4 active torsions:
REMARK  status: ('A' for Active; 'I' for Inactive)
REMARK    1  A    between atoms: C_2  and  C_26
REMARK    2  A    between atoms: N_3  and  C_4
REMARK    3  A    between atoms: C_8  and  C_9
REMARK    4  A    between atoms: C_15  and  C_16
REMARK                            x       y       z     vdW  Elec       q    Type
REMARK                         _______ _______ _______ _____ _____    ______ ____
ROOT
ATOM      1  C   UNL     1      -1.602  11.783  19.036  0.00  0.00    +0.000 C 
ATOM      2  O   UNL     1      -1.717  12.742  19.806  0.00  0.00    +0.000 OA
ATOM      3  N   UNL     1      -2.726  11.203  18.452  0.00  0.00    +0.000 N 
ATOM      4  C   UNL     1      -2.766  10.149  17.450  0.00  0.00    +0.000 C 
ATOM      5  C   UNL     1      -3.662  10.704  16.363  0.00  0.00    +0.000 C 
ATOM      6  C   UNL     1      -4.722  11.455  17.151  0.00  0.00    +0.000 C 
ATOM      7  C   UNL     1      -3.964  12.000  18.373  0.00  0.00    +0.000 C 
ENDROOT
BRANCH   7   8
ATOM      8  C   UNL     1      -4.796  11.963  19.623  0.00  0.00    +0.000 A 
ATOM      9  N   UNL     1      -6.045  11.543  19.758  0.00  0.00    +0.000 NA
ATOM     10  C   UNL     1      -6.463  11.999  20.986  0.00  0.00    +0.000 A 
ATOM     11  C   UNL     1      -7.725  11.915  21.599  0.00  0.00    +0.000 A 
ATOM     12  C   UNL     1      -7.916  12.542  22.837  0.00  0.00    +0.000 A 
ATOM     13  C   UNL     1      -6.871  13.231  23.457  0.00  0.00    +0.000 A 
ATOM     14  C   UNL     1      -5.598  13.298  22.875  0.00  0.00    +0.000 A 
ATOM     15  C   UNL     1      -5.438  12.671  21.639  0.00  0.00    +0.000 A 
ATOM     16  N   UNL     1      -4.368  12.563  20.787  0.00  0.00    +0.000 N 
ATOM     17  H   UNL     1      -3.436  12.940  20.921  0.00  0.00    +0.000 HD
ENDBRANCH   7   8
BRANCH   1  22
ATOM     18  C   UNL     1       1.506   9.743  18.042  0.00  0.00    +0.000 A 
ATOM     19  C   UNL     1       2.442  10.783  18.000  0.00  0.00    +0.000 A 
ATOM     20  C   UNL     1       2.082  12.085  18.329  0.00  0.00    +0.000 A 
ATOM     21  C   UNL     1       0.764  12.371  18.673  0.00  0.00    +0.000 A 
ATOM     22  C   UNL     1      -0.212  11.360  18.671  0.00  0.00    +0.000 A 
ATOM     23  C   UNL     1       0.171  10.041  18.374  0.00  0.00    +0.000 A 
BRANCH  18  26
ATOM     24  O   UNL     1       2.285   7.664  19.902  0.00  0.00    +0.000 OA
ATOM     25  C   UNL     1       2.260   7.453  18.694  0.00  0.00    +0.000 C 
ATOM     26  N   UNL     1       1.854   8.400  17.755  0.00  0.00    +0.000 N 
ATOM     27  H   UNL     1       1.697   8.059  16.816  0.00  0.00    +0.000 HD
BRANCH  25  28
ATOM     28  C   UNL     1       2.620   6.135  18.177  0.00  0.00    +0.000 A 
ATOM     29  C   UNL     1       1.738   5.080  18.000  0.00  0.00    +0.000 A 
ATOM     30  C   UNL     1       2.376   3.895  17.544  0.00  0.00    +0.000 A 
ATOM     31  C   UNL     1       3.729   4.081  17.376  0.00  0.00    +0.000 A 
ATOM     32  S   UNL     1       4.213   5.683  17.748  0.00  0.00    +0.000 S 
ENDBRANCH  25  28
ENDBRANCH  18  26
ENDBRANCH   1  22
TORSDOF 4
ENDMDL
MODEL 7
REMARK VINA RESULT:      -8.0      2.789     10.229
REMARK  Name = 
REMARK  4 active torsions:
REMARK  status: ('A' for Active; 'I' for Inactive)
REMARK    1  A    between atoms: C_2  and  C_26
REMARK    2  A    between atoms: N_3  and  C_4
REMARK    3  A    between atoms: C_8  and  C_9
REMARK    4  A    between atoms: C_15  and  C_16
REMARK                            x       y       z     vdW  Elec       q    Type
REMARK                         _______ _______ _______ _____ _____    ______ ____
ROOT
ATOM      1  C   UNL     1       1.267   8.416  20.520  0.00  0.00    +0.000 C 
ATOM      2  O   UNL     1       1.042   8.588  21.721  0.00  0.00    +0.000 OA
ATOM      3  N   UNL     1       1.027   9.435  19.600  0.00  0.00    +0.000 N 
ATOM      4  C   UNL     1       1.333   9.440  18.178  0.00  0.00    +0.000 C 
ATOM      5  C   UNL     1       2.101  10.729  17.969  0.00  0.00    +0.000 C 
ATOM      6  C   UNL     1       1.395  11.697  18.902  0.00  0.00    +0.000 C 
ATOM      7  C   UNL     1       0.965  10.823  20.092  0.00  0.00    +0.000 C 
ENDROOT
BRANCH   7   8
ATOM      8  C   UNL     1      -0.379  11.219  20.634  0.00  0.00    +0.000 A 
ATOM      9  N   UNL     1      -1.368  11.825  19.996  0.00  0.00    +0.000 NA
ATOM     10  C   UNL     1      -2.237  12.255  20.971  0.00  0.00    +0.000 A 
ATOM     11  C   UNL     1      -3.406  13.026  20.862  0.00  0.00    +0.000 A 
ATOM     12  C   UNL     1      -4.075  13.405  22.035  0.00  0.00    +0.000 A 
ATOM     13  C   UNL     1      -3.595  13.018  23.287  0.00  0.00    +0.000 A 
ATOM     14  C   UNL     1      -2.447  12.223  23.412  0.00  0.00    +0.000 A 
ATOM     15  C   UNL     1      -1.797  11.866  22.230  0.00  0.00    +0.000 A 
ATOM     16  N   UNL     1      -0.660  11.141  21.980  0.00  0.00    +0.000 N 
ATOM     17  H   UNL     1      -0.053  10.698  22.662  0.00  0.00    +0.000 HD
ENDBRANCH   7   8
BRANCH   1  22
ATOM     18  C   UNL     1       3.324   5.705  18.723  0.00  0.00    +0.000 A 
ATOM     19  C   UNL     1       3.030   4.621  19.559  0.00  0.00    +0.000 A 
ATOM     20  C   UNL     1       2.159   4.762  20.635  0.00  0.00    +0.000 A 
ATOM     21  C   UNL     1       1.595   6.005  20.909  0.00  0.00    +0.000 A 
ATOM     22  C   UNL     1       1.913   7.125  20.122  0.00  0.00    +0.000 A 
ATOM     23  C   UNL     1       2.764   6.963  19.016  0.00  0.00    +0.000 A 
BRANCH  18  26
ATOM     24  O   UNL     1       4.021   3.298  17.270  0.00  0.00    +0.000 OA
ATOM     25  C   UNL     1       4.500   4.384  16.960  0.00  0.00    +0.000 C 
ATOM     26  N   UNL     1       4.171   5.580  17.595  0.00  0.00    +0.000 N 
ATOM     27  H   UNL     1       4.482   6.428  17.139  0.00  0.00    +0.000 HD
BRANCH  25  28
ATOM     28  C   UNL     1       5.433   4.475  15.839  0.00  0.00    +0.000 A 
ATOM     29  C   UNL     1       5.197   3.983  14.565  0.00  0.00    +0.000 A 
ATOM     30  C   UNL     1       6.305   4.154  13.691  0.00  0.00    +0.000 A 
ATOM     31  C   UNL     1       7.355   4.781  14.322  0.00  0.00    +0.000 A 
ATOM     32  S   UNL     1       6.989   5.177  15.949  0.00  0.00    +0.000 S 
ENDBRANCH  25  28
ENDBRANCH  18  26
ENDBRANCH   1  22
TORSDOF 4
ENDMDL
MODEL 8
REMARK VINA RESULT:      -7.9      3.099      9.914
REMARK  Name = 
REMARK  4 active torsions:
REMARK  status: ('A' for Active; 'I' for Inactive)
REMARK    1  A    between atoms: C_2  and  C_26
REMARK    2  A    between atoms: N_3  and  C_4
REMARK    3  A    between atoms: C_8  and  C_9
REMARK    4  A    between atoms: C_15  and  C_16
REMARK                            x       y       z     vdW  Elec       q    Type
REMARK                         _______ _______ _______ _____ _____    ______ ____
ROOT
ATOM      1  C   UNL     1       1.080   9.258  19.889  0.00  0.00    +0.000 C 
ATOM      2  O   UNL     1       0.718   9.812  18.847  0.00  0.00    +0.000 OA
ATOM      3  N   UNL     1       0.881   9.870  21.125  0.00  0.00    +0.000 N 
ATOM      4  C   UNL     1       1.145   9.317  22.445  0.00  0.00    +0.000 C 
ATOM      5  C   UNL     1      -0.150   9.528  23.201  0.00  0.00    +0.000 C 
ATOM      6  C   UNL     1      -0.620  10.881  22.695  0.00  0.00    +0.000 C 
ATOM      7  C   UNL     1      -0.152  10.916  21.231  0.00  0.00    +0.000 C 
ENDROOT
BRANCH   7   8
ATOM      8  C   UNL     1       0.316  12.281  20.814  0.00  0.00    +0.000 A 
ATOM      9  N   UNL     1       0.981  13.170  21.536  0.00  0.00    +0.000 NA
ATOM     10  C   UNL     1       0.896  14.355  20.845  0.00  0.00    +0.000 A 
ATOM     11  C   UNL     1       1.348  15.639  21.194  0.00  0.00    +0.000 A 
ATOM     12  C   UNL     1       1.057  16.711  20.340  0.00  0.00    +0.000 A 
ATOM     13  C   UNL     1       0.340  16.509  19.159  0.00  0.00    +0.000 A 
ATOM     14  C   UNL     1      -0.092  15.231  18.780  0.00  0.00    +0.000 A 
ATOM     15  C   UNL     1       0.205  14.182  19.653  0.00  0.00    +0.000 A 
ATOM     16  N   UNL     1      -0.080  12.841  19.619  0.00  0.00    +0.000 N 
ATOM     17  H   UNL     1      -0.587  12.338  18.898  0.00  0.00    +0.000 HD
ENDBRANCH   7   8
BRANCH   1  22
ATOM     18  C   UNL     1       2.865   6.070  18.680  0.00  0.00    +0.000 A 
ATOM     19  C   UNL     1       2.551   5.227  19.752  0.00  0.00    +0.000 A 
ATOM     20  C   UNL     1       1.750   5.669  20.801  0.00  0.00    +0.000 A 
ATOM     21  C   UNL     1       1.280   6.979  20.806  0.00  0.00    +0.000 A 
ATOM     22  C   UNL     1       1.623   7.866  19.772  0.00  0.00    +0.000 A 
ATOM     23  C   UNL     1       2.400   7.399  18.699  0.00  0.00    +0.000 A 
BRANCH  18  26
ATOM     24  O   UNL     1       5.745   5.809  18.513  0.00  0.00    +0.000 OA
ATOM     25  C   UNL     1       5.032   5.566  17.545  0.00  0.00    +0.000 C 
ATOM     26  N   UNL     1       3.640   5.634  17.577  0.00  0.00    +0.000 N 
ATOM     27  H   UNL     1       3.155   5.235  16.784  0.00  0.00    +0.000 HD
BRANCH  25  28
ATOM     28  C   UNL     1       5.635   5.132  16.287  0.00  0.00    +0.000 A 
ATOM     29  C   UNL     1       4.942   4.582  15.220  0.00  0.00    +0.000 A 
ATOM     30  C   UNL     1       5.792   4.190  14.150  0.00  0.00    +0.000 A 
ATOM     31  C   UNL     1       7.112   4.460  14.428  0.00  0.00    +0.000 A 
ATOM     32  S   UNL     1       7.312   5.201  15.961  0.00  0.00    +0.000 S 
ENDBRANCH  25  28
ENDBRANCH  18  26
ENDBRANCH   1  22
TORSDOF 4
ENDMDL
MODEL 9
REMARK VINA RESULT:      -7.9      3.205      9.641
REMARK  Name = 
REMARK  4 active torsions:
REMARK  status: ('A' for Active; 'I' for Inactive)
REMARK    1  A    between atoms: C_2  and  C_26
REMARK    2  A    between atoms: N_3  and  C_4
REMARK    3  A    between atoms: C_8  and  C_9
REMARK    4  A    between atoms: C_15  and  C_16
REMARK                            x       y       z     vdW  Elec       q    Type
REMARK                         _______ _______ _______ _____ _____    ______ ____
ROOT
ATOM      1  C   UNL     1       1.062   9.302  19.918  0.00  0.00    +0.000 C 
ATOM      2  O   UNL     1       0.704   9.861  18.877  0.00  0.00    +0.000 OA
ATOM      3  N   UNL     1       0.857   9.909  21.155  0.00  0.00    +0.000 N 
ATOM      4  C   UNL     1       1.116   9.351  22.474  0.00  0.00    +0.000 C 
ATOM      5  C   UNL     1      -0.183   9.556  23.225  0.00  0.00    +0.000 C 
ATOM      6  C   UNL     1      -0.653  10.911  22.723  0.00  0.00    +0.000 C 
ATOM      7  C   UNL     1      -0.178  10.952  21.261  0.00  0.00    +0.000 C 
ENDROOT
BRANCH   7   8
ATOM      8  C   UNL     1       0.290  12.320  20.852  0.00  0.00    +0.000 A 
ATOM      9  N   UNL     1      -0.449  13.383  20.570  0.00  0.00    +0.000 NA
ATOM     10  C   UNL     1       0.396  14.273  19.950  0.00  0.00    +0.000 A 
ATOM     11  C   UNL     1       0.122  15.522  19.369  0.00  0.00    +0.000 A 
ATOM     12  C   UNL     1       1.159  16.205  18.718  0.00  0.00    +0.000 A 
ATOM     13  C   UNL     1       2.443  15.660  18.655  0.00  0.00    +0.000 A 
ATOM     14  C   UNL     1       2.741  14.430  19.256  0.00  0.00    +0.000 A 
ATOM     15  C   UNL     1       1.688  13.768  19.892  0.00  0.00    +0.000 A 
ATOM     16  N   UNL     1       1.609  12.563  20.543  0.00  0.00    +0.000 N 
ATOM     17  H   UNL     1       2.360  11.898  20.695  0.00  0.00    +0.000 HD
ENDBRANCH   7   8
BRANCH   1  22
ATOM     18  C   UNL     1       2.860   6.123  18.704  0.00  0.00    +0.000 A 
ATOM     19  C   UNL     1       2.540   5.274  19.770  0.00  0.00    +0.000 A 
ATOM     20  C   UNL     1       1.732   5.710  20.815  0.00  0.00    +0.000 A 
ATOM     21  C   UNL     1       1.260   7.019  20.823  0.00  0.00    +0.000 A 
ATOM     22  C   UNL     1       1.608   7.912  19.796  0.00  0.00    +0.000 A 
ATOM     23  C   UNL     1       2.393   7.451  18.727  0.00  0.00    +0.000 A 
BRANCH  18  26
ATOM     24  O   UNL     1       5.711   5.616  18.632  0.00  0.00    +0.000 OA
ATOM     25  C   UNL     1       5.024   5.503  17.622  0.00  0.00    +0.000 C 
ATOM     26  N   UNL     1       3.643   5.694  17.604  0.00  0.00    +0.000 N 
ATOM     27  H   UNL     1       3.162   5.395  16.766  0.00  0.00    +0.000 HD
BRANCH  25  28
ATOM     28  C   UNL     1       5.642   5.102  16.361  0.00  0.00    +0.000 A 
ATOM     29  C   UNL     1       4.983   4.480  15.312  0.00  0.00    +0.000 A 
ATOM     30  C   UNL     1       5.847   4.144  14.234  0.00  0.00    +0.000 A 
ATOM     31  C   UNL     1       7.144   4.529  14.488  0.00  0.00    +0.000 A 
ATOM     32  S   UNL     1       7.303   5.308  16.007  0.00  0.00    +0.000 S 
ENDBRANCH  25  28
ENDBRANCH  18  26
ENDBRANCH   1  22
TORSDOF 4
ENDMDL
