MODEL 1
REMARK VINA RESULT:      -9.1      0.000      0.000
REMARK  Name = 
REMARK  5 active torsions:
REMARK  status: ('A' for Active; 'I' for Inactive)
REMARK    1  A    between atoms: C_2  and  C_4
REMARK    2  A    between atoms: C_4  and  O_5
REMARK    3  A    between atoms: O_5  and  C_6
REMARK    4  A    between atoms: C_10  and  C_11
REMARK    5  A    between atoms: C_16  and  C_17
REMARK                            x       y       z     vdW  Elec       q    Type
REMARK                         _______ _______ _______ _____ _____    ______ ____
ROOT
ATOM      1  C   UNL     1       1.962   8.102  19.674  0.00  0.00    +0.000 C 
ATOM      2  O   UNL     1       2.278   8.566  18.584  0.00  0.00    +0.000 OA
ATOM      3  N   UNL     1       2.299   6.869  20.179  0.00  0.00    +0.000 N 
ATOM      4  C   UNL     1       3.083   5.998  19.466  0.00  0.00    +0.000 A 
ATOM      5  N   UNL     1       3.812   6.212  18.402  0.00  0.00    +0.000 NA
ATOM      6  C   UNL     1       4.387   5.024  17.978  0.00  0.00    +0.000 A 
ATOM      7  C   UNL     1       4.043   3.918  18.734  0.00  0.00    +0.000 A 
ATOM      8  S   UNL     1       3.064   4.398  20.062  0.00  0.00    +0.000 S 
ATOM      9  H   UNL     1       1.851   6.497  20.999  0.00  0.00    +0.000 HD
ENDROOT
BRANCH   6  10
ATOM     10  C   UNL     1       5.239   4.973  16.795  0.00  0.00    +0.000 A 
ATOM     11  C   UNL     1       6.529   5.512  16.787  0.00  0.00    +0.000 A 
ATOM     12  C   UNL     1       7.309   5.459  15.629  0.00  0.00    +0.000 A 
ATOM     13  C   UNL     1       6.826   4.853  14.458  0.00  0.00    +0.000 A 
ATOM     14  C   UNL     1       5.552   4.285  14.463  0.00  0.00    +0.000 A 
ATOM     15  C   UNL     1       4.759   4.377  15.622  0.00  0.00    +0.000 A 
ATOM     16  C   UNL     1       4.970   3.618  13.254  0.00  0.00    +0.000 C 
ATOM     17  C   UNL     1       5.943   3.273  12.133  0.00  0.00    +0.000 C 
ATOM     18  C   UNL     1       7.229   4.080  12.022  0.00  0.00    +0.000 C 
ATOM     19  C   UNL     1       7.672   4.913  13.222  0.00  0.00    +0.000 C 
ENDBRANCH   6  10
BRANCH   1  24
ATOM     20  C   UNL     1      -0.622  10.684  20.635  0.00  0.00    +0.000 A 
ATOM     21  C   UNL     1      -0.670  10.544  22.025  0.00  0.00    +0.000 A 
ATOM     22  C   UNL     1       0.137   9.596  22.661  0.00  0.00    +0.000 A 
ATOM     23  C   UNL     1       1.000   8.778  21.918  0.00  0.00    +0.000 A 
ATOM     24  C   UNL     1       1.046   8.911  20.529  0.00  0.00    +0.000 A 
ATOM     25  C   UNL     1       0.234   9.861  19.896  0.00  0.00    +0.000 A 
BRANCH  20  26
ATOM     26  O   UNL     1      -1.389  11.528  19.892  0.00  0.00    +0.000 OA
BRANCH  26  27
ATOM     27  C   UNL     1      -1.031  11.694  18.520  0.00  0.00    +0.000 C 
BRANCH  27  29
ATOM     28  N   UNL     1      -2.252  11.669  16.389  0.00  0.00    +0.000 N 
ATOM     29  C   UNL     1      -2.111  11.093  17.619  0.00  0.00    +0.000 C 
ATOM     30  O   UNL     1      -2.809  10.140  17.952  0.00  0.00    +0.000 OA
ATOM     31  H   UNL     1      -2.939  11.303  15.744  0.00  0.00    +0.000 HD
ATOM     32  H   UNL     1      -1.654  12.438  16.109  0.00  0.00    +0.000 HD
ENDBRANCH  27  29
ENDBRANCH  26  27
ENDBRANCH  20  26
ENDBRANCH   1  24
TORSDOF 5
ENDMDL
MODEL 2
REMARK VINA RESULT:      -8.8      2.973     10.352
REMARK  Name = 
REMARK  5 active torsions:
REMARK  status: ('A' for Active; 'I' for Inactive)
REMARK    1  A    between atoms: C_2  and  C_4
REMARK    2  A    between atoms: C_4  and  O_5
REMARK    3  A    between atoms: O_5  and  C_6
REMARK    4  A    between atoms: C_10  and  C_11
REMARK    5  A    between atoms: C_16  and  C_17
REMARK                            x       y       z     vdW  Elec       q    Type
REMARK                         _______ _______ _______ _____ _____    ______ ____
ROOT
ATOM      1  C   UNL     1       2.205   6.014  19.873  0.00  0.00    +0.000 C 
ATOM      2  O   UNL     1       1.388   5.945  20.785  0.00  0.00    +0.000 OA
ATOM      3  N   UNL     1       2.468   7.102  19.076  0.00  0.00    +0.000 N 
ATOM      4  C   UNL     1       1.806   8.290  19.254  0.00  0.00    +0.000 A 
ATOM      5  N   UNL     1       1.066   8.691  20.254  0.00  0.00    +0.000 NA
ATOM      6  C   UNL     1       0.540   9.944  19.979  0.00  0.00    +0.000 A 
ATOM      7  C   UNL     1       0.881  10.449  18.738  0.00  0.00    +0.000 A 
ATOM      8  S   UNL     1       1.967   9.378  17.948  0.00  0.00    +0.000 S 
ATOM      9  H   UNL     1       3.019   7.019  18.238  0.00  0.00    +0.000 HD
ENDROOT
BRANCH   6  10
ATOM     10  C   UNL     1      -0.342  10.621  20.923  0.00  0.00    +0.000 A 
ATOM     11  C   UNL     1      -0.381  10.276  22.278  0.00  0.00    +0.000 A 
ATOM     12  C   UNL     1      -1.252  10.936  23.149  0.00  0.00    +0.000 A 
ATOM     13  C   UNL     1      -2.091  11.965  22.692  0.00  0.00    +0.000 A 
ATOM     14  C   UNL     1      -2.039  12.338  21.349  0.00  0.00    +0.000 A 
ATOM     15  C   UNL     1      -1.186  11.642  20.471  0.00  0.00    +0.000 A 
ATOM     16  C   UNL     1      -2.900  13.429  20.788  0.00  0.00    +0.000 C 
ATOM     17  C   UNL     1      -3.576  14.348  21.798  0.00  0.00    +0.000 C 
ATOM     18  C   UNL     1      -3.827  13.815  23.203  0.00  0.00    +0.000 C 
ATOM     19  C   UNL     1      -3.070  12.569  23.654  0.00  0.00    +0.000 C 
ENDBRANCH   6  10
BRANCH   1  24
ATOM     20  C   UNL     1       4.326   3.607  17.879  0.00  0.00    +0.000 A 
ATOM     21  C   UNL     1       4.328   2.473  18.698  0.00  0.00    +0.000 A 
ATOM     22  C   UNL     1       3.641   2.489  19.915  0.00  0.00    +0.000 A 
ATOM     23  C   UNL     1       2.946   3.634  20.330  0.00  0.00    +0.000 A 
ATOM     24  C   UNL     1       2.948   4.770  19.517  0.00  0.00    +0.000 A 
ATOM     25  C   UNL     1       3.640   4.750  18.299  0.00  0.00    +0.000 A 
BRANCH  20  26
ATOM     26  O   UNL     1       4.994   3.739  16.701  0.00  0.00    +0.000 OA
BRANCH  26  27
ATOM     27  C   UNL     1       5.557   5.019  16.413  0.00  0.00    +0.000 C 
BRANCH  27  29
ATOM     28  N   UNL     1       7.827   4.326  17.048  0.00  0.00    +0.000 N 
ATOM     29  C   UNL     1       7.042   4.877  16.076  0.00  0.00    +0.000 C 
ATOM     30  O   UNL     1       7.520   5.215  14.997  0.00  0.00    +0.000 OA
ATOM     31  H   UNL     1       8.813   4.193  16.875  0.00  0.00    +0.000 HD
ATOM     32  H   UNL     1       7.421   4.023  17.926  0.00  0.00    +0.000 HD
ENDBRANCH  27  29
ENDBRANCH  26  27
ENDBRANCH  20  26
ENDBRANCH   1  24
TORSDOF 5
ENDMDL
MODEL 3
REMARK VINA RESULT:      -8.7      0.969      1.277
REMARK  Name = 
REMARK  5 active torsions:
REMARK  status: ('A' for Active; 'I' for Inactive)
REMARK    1  A    between atoms: C_2  and  C_4
REMARK    2  A    between atoms: C_4  and  O_5
REMARK    3  A    between atoms: O_5  and  C_6
REMARK    4  A    between atoms: C_10  and  C_11
REMARK    5  A    between atoms: C_16  and  C_17
REMARK                            x       y       z     vdW  Elec       q    Type
REMARK                         _______ _______ _______ _____ _____    ______ ____
ROOT
ATOM      1  C   UNL     1       2.003   8.020  19.676  0.00  0.00    +0.000 C 
ATOM      2  O   UNL     1       2.304   8.488  18.583  0.00  0.00    +0.000 OA
ATOM      3  N   UNL     1       2.359   6.791  20.176  0.00  0.00    +0.000 N 
ATOM      4  C   UNL     1       3.146   5.929  19.455  0.00  0.00    +0.000 A 
ATOM      5  N   UNL     1       3.862   6.151  18.384  0.00  0.00    +0.000 NA
ATOM      6  C   UNL     1       4.446   4.971  17.953  0.00  0.00    +0.000 A 
ATOM      7  C   UNL     1       4.121   3.861  18.712  0.00  0.00    +0.000 A 
ATOM      8  S   UNL     1       3.150   4.329  20.049  0.00  0.00    +0.000 S 
ATOM      9  H   UNL     1       1.923   6.413  21.001  0.00  0.00    +0.000 HD
ENDROOT
BRANCH   6  10
ATOM     10  C   UNL     1       5.287   4.930  16.763  0.00  0.00    +0.000 A 
ATOM     11  C   UNL     1       6.578   5.467  16.749  0.00  0.00    +0.000 A 
ATOM     12  C   UNL     1       7.347   5.424  15.583  0.00  0.00    +0.000 A 
ATOM     13  C   UNL     1       6.853   4.831  14.410  0.00  0.00    +0.000 A 
ATOM     14  C   UNL     1       5.578   4.266  14.420  0.00  0.00    +0.000 A 
ATOM     15  C   UNL     1       4.795   4.347  15.588  0.00  0.00    +0.000 A 
ATOM     16  C   UNL     1       4.983   3.612  13.210  0.00  0.00    +0.000 C 
ATOM     17  C   UNL     1       5.945   3.277  12.077  0.00  0.00    +0.000 C 
ATOM     18  C   UNL     1       7.232   4.082  11.963  0.00  0.00    +0.000 C 
ATOM     19  C   UNL     1       7.688   4.902  13.167  0.00  0.00    +0.000 C 
ENDBRANCH   6  10
BRANCH   1  24
ATOM     20  C   UNL     1      -0.571  10.599  20.670  0.00  0.00    +0.000 A 
ATOM     21  C   UNL     1      -0.629  10.432  22.057  0.00  0.00    +0.000 A 
ATOM     22  C   UNL     1       0.169   9.469  22.679  0.00  0.00    +0.000 A 
ATOM     23  C   UNL     1       1.031   8.659  21.926  0.00  0.00    +0.000 A 
ATOM     24  C   UNL     1       1.087   8.818  20.540  0.00  0.00    +0.000 A 
ATOM     25  C   UNL     1       0.284   9.785  19.921  0.00  0.00    +0.000 A 
BRANCH  20  26
ATOM     26  O   UNL     1      -1.328  11.461  19.938  0.00  0.00    +0.000 OA
BRANCH  26  27
ATOM     27  C   UNL     1      -0.889  11.747  18.610  0.00  0.00    +0.000 C 
BRANCH  27  29
ATOM     28  N   UNL     1       1.157  12.984  18.046  0.00  0.00    +0.000 N 
ATOM     29  C   UNL     1      -0.094  13.053  18.588  0.00  0.00    +0.000 C 
ATOM     30  O   UNL     1      -0.540  14.117  19.010  0.00  0.00    +0.000 OA
ATOM     31  H   UNL     1       1.722  13.819  17.990  0.00  0.00    +0.000 HD
ATOM     32  H   UNL     1       1.508  12.108  17.674  0.00  0.00    +0.000 HD
ENDBRANCH  27  29
ENDBRANCH  26  27
ENDBRANCH  20  26
ENDBRANCH   1  24
TORSDOF 5
ENDMDL
MODEL 4
REMARK VINA RESULT:      -8.7      3.310     10.411
REMARK  Name = 
REMARK  5 active torsions:
REMARK  status: ('A' for Active; 'I' for Inactive)
REMARK    1  A    between atoms: C_2  and  C_4
REMARK    2  A    between atoms: C_4  and  O_5
REMARK    3  A    between atoms: O_5  and  C_6
REMARK    4  A    between atoms: C_10  and  C_11
REMARK    5  A    between atoms: C_16  and  C_17
REMARK                            x       y       z     vdW  Elec       q    Type
REMARK                         _______ _______ _______ _____ _____    ______ ____
ROOT
ATOM      1  C   UNL     1       2.231   6.371  19.769  0.00  0.00    +0.000 C 
ATOM      2  O   UNL     1       1.421   6.242  20.681  0.00  0.00    +0.000 OA
ATOM      3  N   UNL     1       2.446   7.493  19.005  0.00  0.00    +0.000 N 
ATOM      4  C   UNL     1       1.739   8.648  19.220  0.00  0.00    +0.000 A 
ATOM      5  N   UNL     1       0.987   8.988  20.234  0.00  0.00    +0.000 NA
ATOM      6  C   UNL     1       0.409  10.226  19.999  0.00  0.00    +0.000 A 
ATOM      7  C   UNL     1       0.725  10.782  18.773  0.00  0.00    +0.000 A 
ATOM      8  S   UNL     1       1.850   9.780  17.947  0.00  0.00    +0.000 S 
ATOM      9  H   UNL     1       2.997   7.458  18.164  0.00  0.00    +0.000 HD
ENDROOT
BRANCH   6  10
ATOM     10  C   UNL     1      -0.495  10.838  20.965  0.00  0.00    +0.000 A 
ATOM     11  C   UNL     1      -0.499  10.468  22.314  0.00  0.00    +0.000 A 
ATOM     12  C   UNL     1      -1.393  11.065  23.207  0.00  0.00    +0.000 A 
ATOM     13  C   UNL     1      -2.291  12.056  22.779  0.00  0.00    +0.000 A 
ATOM     14  C   UNL     1      -2.276  12.454  21.442  0.00  0.00    +0.000 A 
ATOM     15  C   UNL     1      -1.399  11.820  20.542  0.00  0.00    +0.000 A 
ATOM     16  C   UNL     1      -3.202  13.507  20.911  0.00  0.00    +0.000 C 
ATOM     17  C   UNL     1      -3.913  14.371  21.946  0.00  0.00    +0.000 C 
ATOM     18  C   UNL     1      -4.117  13.800  23.343  0.00  0.00    +0.000 C 
ATOM     19  C   UNL     1      -3.289  12.589  23.763  0.00  0.00    +0.000 C 
ENDBRANCH   6  10
BRANCH   1  24
ATOM     20  C   UNL     1       5.226   4.208  18.983  0.00  0.00    +0.000 A 
ATOM     21  C   UNL     1       4.623   3.010  18.589  0.00  0.00    +0.000 A 
ATOM     22  C   UNL     1       3.230   2.895  18.584  0.00  0.00    +0.000 A 
ATOM     23  C   UNL     1       2.423   3.974  18.974  0.00  0.00    +0.000 A 
ATOM     24  C   UNL     1       3.021   5.170  19.374  0.00  0.00    +0.000 A 
ATOM     25  C   UNL     1       4.418   5.279  19.379  0.00  0.00    +0.000 A 
BRANCH  20  26
ATOM     26  O   UNL     1       6.564   4.432  19.081  0.00  0.00    +0.000 OA
BRANCH  26  27
ATOM     27  C   UNL     1       7.057   5.667  18.561  0.00  0.00    +0.000 C 
BRANCH  27  29
ATOM     28  N   UNL     1       7.803   4.551  16.503  0.00  0.00    +0.000 N 
ATOM     29  C   UNL     1       7.119   5.607  17.034  0.00  0.00    +0.000 C 
ATOM     30  O   UNL     1       6.577   6.436  16.307  0.00  0.00    +0.000 OA
ATOM     31  H   UNL     1       7.864   4.451  15.500  0.00  0.00    +0.000 HD
ATOM     32  H   UNL     1       8.224   3.855  17.108  0.00  0.00    +0.000 HD
ENDBRANCH  27  29
ENDBRANCH  26  27
ENDBRANCH  20  26
ENDBRANCH   1  24
TORSDOF 5
ENDMDL
MODEL 5
REMARK VINA RESULT:      -8.5      3.358      9.682
REMARK  Name = 
REMARK  5 active torsions:
REMARK  status: ('A' for Active; 'I' for Inactive)
REMARK    1  A    between atoms: C_2  and  C_4
REMARK    2  A    between atoms: C_4  and  O_5
REMARK    3  A    between atoms: O_5  and  C_6
REMARK    4  A    between atoms: C_10  and  C_11
REMARK    5  A    between atoms: C_16  and  C_17
REMARK                            x       y       z     vdW  Elec       q    Type
REMARK                         _______ _______ _______ _____ _____    ______ ____
ROOT
ATOM      1  C   UNL     1       2.356   7.423  18.800  0.00  0.00    +0.000 C 
ATOM      2  O   UNL     1       2.615   8.301  17.983  0.00  0.00    +0.000 OA
ATOM      3  N   UNL     1       1.710   7.576  20.003  0.00  0.00    +0.000 N 
ATOM      4  C   UNL     1       1.254   8.803  20.415  0.00  0.00    +0.000 A 
ATOM      5  N   UNL     1       1.111   9.911  19.736  0.00  0.00    +0.000 NA
ATOM      6  C   UNL     1       0.679  10.926  20.574  0.00  0.00    +0.000 A 
ATOM      7  C   UNL     1       0.535  10.554  21.898  0.00  0.00    +0.000 A 
ATOM      8  S   UNL     1       0.847   8.873  22.071  0.00  0.00    +0.000 S 
ATOM      9  H   UNL     1       1.699   6.843  20.691  0.00  0.00    +0.000 HD
ENDROOT
BRANCH   6  10
ATOM     10  C   UNL     1       0.455  12.279  20.076  0.00  0.00    +0.000 A 
ATOM     11  C   UNL     1      -0.795  12.899  20.155  0.00  0.00    +0.000 A 
ATOM     12  C   UNL     1      -0.975  14.190  19.651  0.00  0.00    +0.000 A 
ATOM     13  C   UNL     1       0.092  14.897  19.073  0.00  0.00    +0.000 A 
ATOM     14  C   UNL     1       1.351  14.300  19.016  0.00  0.00    +0.000 A 
ATOM     15  C   UNL     1       1.514  12.985  19.492  0.00  0.00    +0.000 A 
ATOM     16  C   UNL     1       2.538  14.992  18.418  0.00  0.00    +0.000 C 
ATOM     17  C   UNL     1       2.407  16.494  18.193  0.00  0.00    +0.000 C 
ATOM     18  C   UNL     1       1.011  17.078  18.026  0.00  0.00    +0.000 C 
ATOM     19  C   UNL     1      -0.186  16.239  18.465  0.00  0.00    +0.000 C 
ENDBRANCH   6  10
BRANCH   1  24
ATOM     20  C   UNL     1       4.733   4.494  18.609  0.00  0.00    +0.000 A 
ATOM     21  C   UNL     1       3.947   3.522  17.983  0.00  0.00    +0.000 A 
ATOM     22  C   UNL     1       2.628   3.814  17.624  0.00  0.00    +0.000 A 
ATOM     23  C   UNL     1       2.078   5.077  17.887  0.00  0.00    +0.000 A 
ATOM     24  C   UNL     1       2.858   6.048  18.518  0.00  0.00    +0.000 A 
ATOM     25  C   UNL     1       4.179   5.749  18.877  0.00  0.00    +0.000 A 
BRANCH  20  26
ATOM     26  O   UNL     1       6.008   4.323  19.053  0.00  0.00    +0.000 OA
BRANCH  26  27
ATOM     27  C   UNL     1       6.918   5.403  18.849  0.00  0.00    +0.000 C 
BRANCH  27  29
ATOM     28  N   UNL     1       7.448   6.528  16.731  0.00  0.00    +0.000 N 
ATOM     29  C   UNL     1       7.482   5.355  17.429  0.00  0.00    +0.000 C 
ATOM     30  O   UNL     1       7.959   4.339  16.931  0.00  0.00    +0.000 OA
ATOM     31  H   UNL     1       7.822   6.559  15.792  0.00  0.00    +0.000 HD
ATOM     32  H   UNL     1       7.078   7.370  17.158  0.00  0.00    +0.000 HD
ENDBRANCH  27  29
ENDBRANCH  26  27
ENDBRANCH  20  26
ENDBRANCH   1  24
TORSDOF 5
ENDMDL
MODEL 6
REMARK VINA RESULT:      -8.5      1.005      1.289
REMARK  Name = 
REMARK  5 active torsions:
REMARK  status: ('A' for Active; 'I' for Inactive)
REMARK    1  A    between atoms: C_2  and  C_4
REMARK    2  A    between atoms: C_4  and  O_5
REMARK    3  A    between atoms: O_5  and  C_6
REMARK    4  A    between atoms: C_10  and  C_11
REMARK    5  A    between atoms: C_16  and  C_17
REMARK                            x       y       z     vdW  Elec       q    Type
REMARK                         _______ _______ _______ _____ _____    ______ ____
ROOT
ATOM      1  C   UNL     1       1.728   8.735  18.684  0.00  0.00    +0.000 C 
ATOM      2  O   UNL     1       2.030   8.987  17.522  0.00  0.00    +0.000 OA
ATOM      3  N   UNL     1       2.135   7.655  19.430  0.00  0.00    +0.000 N 
ATOM      4  C   UNL     1       2.983   6.710  18.912  0.00  0.00    +0.000 A 
ATOM      5  N   UNL     1       3.713   6.750  17.828  0.00  0.00    +0.000 NA
ATOM      6  C   UNL     1       4.369   5.541  17.656  0.00  0.00    +0.000 A 
ATOM      7  C   UNL     1       4.084   4.592  18.621  0.00  0.00    +0.000 A 
ATOM      8  S   UNL     1       3.057   5.267  19.821  0.00  0.00    +0.000 S 
ATOM      9  H   UNL     1       1.699   7.430  20.309  0.00  0.00    +0.000 HD
ENDROOT
BRANCH   6  10
ATOM     10  C   UNL     1       5.239   5.305  16.510  0.00  0.00    +0.000 A 
ATOM     11  C   UNL     1       6.574   5.723  16.496  0.00  0.00    +0.000 A 
ATOM     12  C   UNL     1       7.372   5.494  15.372  0.00  0.00    +0.000 A 
ATOM     13  C   UNL     1       6.863   4.830  14.244  0.00  0.00    +0.000 A 
ATOM     14  C   UNL     1       5.542   4.383  14.258  0.00  0.00    +0.000 A 
ATOM     15  C   UNL     1       4.734   4.651  15.380  0.00  0.00    +0.000 A 
ATOM     16  C   UNL     1       4.929   3.664  13.095  0.00  0.00    +0.000 C 
ATOM     17  C   UNL     1       5.892   3.131  12.041  0.00  0.00    +0.000 C 
ATOM     18  C   UNL     1       7.250   3.805  11.900  0.00  0.00    +0.000 C 
ATOM     19  C   UNL     1       7.740   4.700  13.035  0.00  0.00    +0.000 C 
ENDBRANCH   6  10
BRANCH   1  24
ATOM     20  C   UNL     1      -1.351  10.863  19.192  0.00  0.00    +0.000 A 
ATOM     21  C   UNL     1      -1.135  11.386  20.470  0.00  0.00    +0.000 A 
ATOM     22  C   UNL     1       0.017  11.041  21.182  0.00  0.00    +0.000 A 
ATOM     23  C   UNL     1       0.966  10.170  20.628  0.00  0.00    +0.000 A 
ATOM     24  C   UNL     1       0.750   9.640  19.353  0.00  0.00    +0.000 A 
ATOM     25  C   UNL     1      -0.407   9.987  18.645  0.00  0.00    +0.000 A 
BRANCH  20  26
ATOM     26  O   UNL     1      -2.450  11.076  18.419  0.00  0.00    +0.000 OA
BRANCH  26  27
ATOM     27  C   UNL     1      -2.910   9.982  17.625  0.00  0.00    +0.000 C 
BRANCH  27  29
ATOM     28  N   UNL     1      -2.462  11.607  15.837  0.00  0.00    +0.000 N 
ATOM     29  C   UNL     1      -3.031  10.408  16.161  0.00  0.00    +0.000 C 
ATOM     30  O   UNL     1      -3.584   9.722  15.306  0.00  0.00    +0.000 OA
ATOM     31  H   UNL     1      -2.498  11.932  14.881  0.00  0.00    +0.000 HD
ATOM     32  H   UNL     1      -1.983  12.155  16.542  0.00  0.00    +0.000 HD
ENDBRANCH  27  29
ENDBRANCH  26  27
ENDBRANCH  20  26
ENDBRANCH   1  24
TORSDOF 5
ENDMDL
MODEL 7
REMARK VINA RESULT:      -8.5      3.442      9.883
REMARK  Name = 
REMARK  5 active torsions:
REMARK  status: ('A' for Active; 'I' for Inactive)
REMARK    1  A    between atoms: C_2  and  C_4
REMARK    2  A    between atoms: C_4  and  O_5
REMARK    3  A    between atoms: O_5  and  C_6
REMARK    4  A    between atoms: C_10  and  C_11
REMARK    5  A    between atoms: C_16  and  C_17
REMARK                            x       y       z     vdW  Elec       q    Type
REMARK                         _______ _______ _______ _____ _____    ______ ____
ROOT
ATOM      1  C   UNL     1       2.458   7.803  18.242  0.00  0.00    +0.000 C 
ATOM      2  O   UNL     1       2.676   8.749  17.493  0.00  0.00    +0.000 OA
ATOM      3  N   UNL     1       1.822   7.838  19.459  0.00  0.00    +0.000 N 
ATOM      4  C   UNL     1       1.328   9.012  19.970  0.00  0.00    +0.000 A 
ATOM      5  N   UNL     1       1.139  10.164  19.381  0.00  0.00    +0.000 NA
ATOM      6  C   UNL     1       0.682  11.095  20.300  0.00  0.00    +0.000 A 
ATOM      7  C   UNL     1       0.567  10.616  21.593  0.00  0.00    +0.000 A 
ATOM      8  S   UNL     1       0.940   8.939  21.631  0.00  0.00    +0.000 S 
ATOM      9  H   UNL     1       1.845   7.053  20.087  0.00  0.00    +0.000 HD
ENDROOT
BRANCH   6  10
ATOM     10  C   UNL     1       0.406  12.473  19.912  0.00  0.00    +0.000 A 
ATOM     11  C   UNL     1      -0.839  13.069  20.133  0.00  0.00    +0.000 A 
ATOM     12  C   UNL     1      -1.072  14.388  19.732  0.00  0.00    +0.000 A 
ATOM     13  C   UNL     1      -0.064  15.145  19.115  0.00  0.00    +0.000 A 
ATOM     14  C   UNL     1       1.192  14.571  18.915  0.00  0.00    +0.000 A 
ATOM     15  C   UNL     1       1.405  13.231  19.289  0.00  0.00    +0.000 A 
ATOM     16  C   UNL     1       2.319  15.317  18.268  0.00  0.00    +0.000 C 
ATOM     17  C   UNL     1       2.156  16.828  18.152  0.00  0.00    +0.000 C 
ATOM     18  C   UNL     1       0.745  17.402  18.140  0.00  0.00    +0.000 C 
ATOM     19  C   UNL     1      -0.403  16.520  18.621  0.00  0.00    +0.000 C 
ENDBRANCH   6  10
BRANCH   1  24
ATOM     20  C   UNL     1       4.828   5.233  16.811  0.00  0.00    +0.000 A 
ATOM     21  C   UNL     1       4.115   4.044  16.999  0.00  0.00    +0.000 A 
ATOM     22  C   UNL     1       2.856   4.071  17.604  0.00  0.00    +0.000 A 
ATOM     23  C   UNL     1       2.293   5.283  18.029  0.00  0.00    +0.000 A 
ATOM     24  C   UNL     1       3.004   6.472  17.848  0.00  0.00    +0.000 A 
ATOM     25  C   UNL     1       4.267   6.438  17.243  0.00  0.00    +0.000 A 
BRANCH  20  26
ATOM     26  O   UNL     1       6.078   5.337  16.286  0.00  0.00    +0.000 OA
BRANCH  26  27
ATOM     27  C   UNL     1       7.057   6.020  17.069  0.00  0.00    +0.000 C 
BRANCH  27  29
ATOM     28  N   UNL     1       7.424   5.358  19.406  0.00  0.00    +0.000 N 
ATOM     29  C   UNL     1       7.669   5.065  18.095  0.00  0.00    +0.000 C 
ATOM     30  O   UNL     1       8.329   4.078  17.783  0.00  0.00    +0.000 OA
ATOM     31  H   UNL     1       7.790   4.753  20.128  0.00  0.00    +0.000 HD
ATOM     32  H   UNL     1       6.855   6.159  19.656  0.00  0.00    +0.000 HD
ENDBRANCH  27  29
ENDBRANCH  26  27
ENDBRANCH  20  26
ENDBRANCH   1  24
TORSDOF 5
ENDMDL
MODEL 8
REMARK VINA RESULT:      -8.5      3.982      6.100
REMARK  Name = 
REMARK  5 active torsions:
REMARK  status: ('A' for Active; 'I' for Inactive)
REMARK    1  A    between atoms: C_2  and  C_4
REMARK    2  A    between atoms: C_4  and  O_5
REMARK    3  A    between atoms: O_5  and  C_6
REMARK    4  A    between atoms: C_10  and  C_11
REMARK    5  A    between atoms: C_16  and  C_17
REMARK                            x       y       z     vdW  Elec       q    Type
REMARK                         _______ _______ _______ _____ _____    ______ ____
ROOT
ATOM      1  C   UNL     1      -0.487  11.025  21.993  0.00  0.00    +0.000 C 
ATOM      2  O   UNL     1      -0.107  10.036  22.611  0.00  0.00    +0.000 OA
ATOM      3  N   UNL     1      -0.219  11.337  20.682  0.00  0.00    +0.000 N 
ATOM      4  C   UNL     1       0.535  10.505  19.893  0.00  0.00    +0.000 A 
ATOM      5  N   UNL     1       0.900   9.267  20.097  0.00  0.00    +0.000 NA
ATOM      6  C   UNL     1       1.716   8.838  19.061  0.00  0.00    +0.000 A 
ATOM      7  C   UNL     1       1.972   9.799  18.099  0.00  0.00    +0.000 A 
ATOM      8  S   UNL     1       1.088  11.229  18.450  0.00  0.00    +0.000 S 
ATOM      9  H   UNL     1      -0.416  12.249  20.308  0.00  0.00    +0.000 HD
ENDROOT
BRANCH   6  10
ATOM     10  C   UNL     1       2.282   7.495  19.046  0.00  0.00    +0.000 A 
ATOM     11  C   UNL     1       3.234   7.103  18.100  0.00  0.00    +0.000 A 
ATOM     12  C   UNL     1       3.741   5.801  18.107  0.00  0.00    +0.000 A 
ATOM     13  C   UNL     1       3.323   4.866  19.067  0.00  0.00    +0.000 A 
ATOM     14  C   UNL     1       2.396   5.254  20.035  0.00  0.00    +0.000 A 
ATOM     15  C   UNL     1       1.862   6.556  19.997  0.00  0.00    +0.000 A 
ATOM     16  C   UNL     1       1.904   4.314  21.094  0.00  0.00    +0.000 C 
ATOM     17  C   UNL     1       2.707   3.034  21.292  0.00  0.00    +0.000 C 
ATOM     18  C   UNL     1       3.532   2.513  20.123  0.00  0.00    +0.000 C 
ATOM     19  C   UNL     1       3.832   3.459  18.964  0.00  0.00    +0.000 C 
ENDBRANCH   6  10
BRANCH   1  24
ATOM     20  C   UNL     1      -3.329  12.630  23.894  0.00  0.00    +0.000 A 
ATOM     21  C   UNL     1      -2.836  13.919  24.120  0.00  0.00    +0.000 A 
ATOM     22  C   UNL     1      -1.565  14.273  23.659  0.00  0.00    +0.000 A 
ATOM     23  C   UNL     1      -0.771  13.346  22.969  0.00  0.00    +0.000 A 
ATOM     24  C   UNL     1      -1.257  12.055  22.747  0.00  0.00    +0.000 A 
ATOM     25  C   UNL     1      -2.531  11.706  23.214  0.00  0.00    +0.000 A 
BRANCH  20  26
ATOM     26  O   UNL     1      -4.522  12.145  24.334  0.00  0.00    +0.000 OA
BRANCH  26  27
ATOM     27  C   UNL     1      -5.672  12.966  24.129  0.00  0.00    +0.000 C 
BRANCH  27  29
ATOM     28  N   UNL     1      -6.628  12.249  21.983  0.00  0.00    +0.000 N 
ATOM     29  C   UNL     1      -6.735  12.197  23.343  0.00  0.00    +0.000 C 
ATOM     30  O   UNL     1      -7.629  11.549  23.880  0.00  0.00    +0.000 OA
ATOM     31  H   UNL     1      -7.293  11.747  21.412  0.00  0.00    +0.000 HD
ATOM     32  H   UNL     1      -5.871  12.764  21.546  0.00  0.00    +0.000 HD
ENDBRANCH  27  29
ENDBRANCH  26  27
ENDBRANCH  20  26
ENDBRANCH   1  24
TORSDOF 5
ENDMDL
MODEL 9
REMARK VINA RESULT:      -8.4      3.434      9.613
REMARK  Name = 
REMARK  5 active torsions:
REMARK  status: ('A' for Active; 'I' for Inactive)
REMARK    1  A    between atoms: C_2  and  C_4
REMARK    2  A    between atoms: C_4  and  O_5
REMARK    3  A    between atoms: O_5  and  C_6
REMARK    4  A    between atoms: C_10  and  C_11
REMARK    5  A    between atoms: C_16  and  C_17
REMARK                            x       y       z     vdW  Elec       q    Type
REMARK                         _______ _______ _______ _____ _____    ______ ____
ROOT
ATOM      1  C   UNL     1       2.510   7.425  18.643  0.00  0.00    +0.000 C 
ATOM      2  O   UNL     1       2.946   8.322  17.930  0.00  0.00    +0.000 OA
ATOM      3  N   UNL     1       1.693   7.560  19.740  0.00  0.00    +0.000 N 
ATOM      4  C   UNL     1       1.253   8.793  20.151  0.00  0.00    +0.000 A 
ATOM      5  N   UNL     1       1.285   9.941  19.527  0.00  0.00    +0.000 NA
ATOM      6  C   UNL     1       0.789  10.940  20.349  0.00  0.00    +0.000 A 
ATOM      7  C   UNL     1       0.417  10.512  21.611  0.00  0.00    +0.000 A 
ATOM      8  S   UNL     1       0.596   8.807  21.727  0.00  0.00    +0.000 S 
ATOM      9  H   UNL     1       1.531   6.795  20.372  0.00  0.00    +0.000 HD
ENDROOT
BRANCH   6  10
ATOM     10  C   UNL     1       0.727  12.328  19.906  0.00  0.00    +0.000 A 
ATOM     11  C   UNL     1      -0.382  13.139  20.164  0.00  0.00    +0.000 A 
ATOM     12  C   UNL     1      -0.411  14.460  19.709  0.00  0.00    +0.000 A 
ATOM     13  C   UNL     1       0.671  15.006  19.000  0.00  0.00    +0.000 A 
ATOM     14  C   UNL     1       1.796  14.215  18.762  0.00  0.00    +0.000 A 
ATOM     15  C   UNL     1       1.800  12.875  19.192  0.00  0.00    +0.000 A 
ATOM     16  C   UNL     1       2.991  14.728  18.017  0.00  0.00    +0.000 C 
ATOM     17  C   UNL     1       3.081  16.238  17.833  0.00  0.00    +0.000 C 
ATOM     18  C   UNL     1       1.791  17.046  17.868  0.00  0.00    +0.000 C 
ATOM     19  C   UNL     1       0.541  16.397  18.455  0.00  0.00    +0.000 C 
ENDBRANCH   6  10
BRANCH   1  24
ATOM     20  C   UNL     1       4.834   4.473  18.255  0.00  0.00    +0.000 A 
ATOM     21  C   UNL     1       3.967   3.478  17.793  0.00  0.00    +0.000 A 
ATOM     22  C   UNL     1       2.610   3.762  17.612  0.00  0.00    +0.000 A 
ATOM     23  C   UNL     1       2.104   5.040  17.890  0.00  0.00    +0.000 A 
ATOM     24  C   UNL     1       2.966   6.034  18.358  0.00  0.00    +0.000 A 
ATOM     25  C   UNL     1       4.324   5.743  18.540  0.00  0.00    +0.000 A 
BRANCH  20  26
ATOM     26  O   UNL     1       6.159   4.313  18.522  0.00  0.00    +0.000 OA
BRANCH  26  27
ATOM     27  C   UNL     1       7.066   5.196  17.862  0.00  0.00    +0.000 C 
BRANCH  27  29
ATOM     28  N   UNL     1       8.050   5.414  20.102  0.00  0.00    +0.000 N 
ATOM     29  C   UNL     1       7.850   6.012  18.892  0.00  0.00    +0.000 C 
ATOM     30  O   UNL     1       8.297   7.132  18.660  0.00  0.00    +0.000 OA
ATOM     31  H   UNL     1       8.575   5.900  20.816  0.00  0.00    +0.000 HD
ATOM     32  H   UNL     1       7.701   4.479  20.278  0.00  0.00    +0.000 HD
ENDBRANCH  27  29
ENDBRANCH  26  27
ENDBRANCH  20  26
ENDBRANCH   1  24
TORSDOF 5
ENDMDL
