MODEL 1
REMARK VINA RESULT:      -8.3      0.000      0.000
REMARK  Name = 
REMARK  6 active torsions:
REMARK  status: ('A' for Active; 'I' for Inactive)
REMARK    1  A    between atoms: C_2  and  C_3
REMARK    2  A    between atoms: C_3  and  S_4
REMARK    3  A    between atoms: S_4  and  C_5
REMARK    4  A    between atoms: N_9  and  C_10
REMARK    5  A    between atoms: N_17  and  C_18
REMARK    6  A    between atoms: C_21  and  N_22
REMARK                            x       y       z     vdW  Elec       q    Type
REMARK                         _______ _______ _______ _____ _____    ______ ____
ROOT
ATOM      1  O   UNL     1       1.944  10.099  18.084  0.00  0.00    +0.000 OA
ATOM      2  C   UNL     1       1.833   9.020  18.663  0.00  0.00    +0.000 C 
ATOM      3  N   UNL     1       1.144   8.797  19.843  0.00  0.00    +0.000 N 
ATOM      4  H   UNL     1       1.390   7.950  20.356  0.00  0.00    +0.000 HD
ENDROOT
BRANCH   3   5
ATOM      5  C   UNL     1       0.350   9.729  20.537  0.00  0.00    +0.000 A 
ATOM      6  C   UNL     1      -0.393  10.723  19.909  0.00  0.00    +0.000 A 
ATOM      7  C   UNL     1      -1.152  11.630  20.661  0.00  0.00    +0.000 A 
ATOM      8  C   UNL     1      -1.165  11.589  22.059  0.00  0.00    +0.000 A 
ATOM      9  C   UNL     1      -0.439  10.561  22.679  0.00  0.00    +0.000 A 
ATOM     10  C   UNL     1       0.297   9.633  21.928  0.00  0.00    +0.000 A 
BRANCH   8  11
ATOM     11  N   UNL     1      -1.854  12.569  22.827  0.00  0.00    +0.000 N 
ATOM     12  C   UNL     1      -3.112  12.284  23.478  0.00  0.00    +0.000 C 
ATOM     13  C   UNL     1      -3.587  13.625  23.991  0.00  0.00    +0.000 C 
ATOM     14  C   UNL     1      -2.303  14.380  24.266  0.00  0.00    +0.000 C 
ATOM     15  C   UNL     1      -1.325  13.788  23.281  0.00  0.00    +0.000 C 
ATOM     16  O   UNL     1      -0.262  14.324  23.011  0.00  0.00    +0.000 OA
ENDBRANCH   8  11
ENDBRANCH   3   5
BRANCH   2  17
ATOM     17  C   UNL     1       2.505   7.771  18.113  0.00  0.00    +0.000 C 
BRANCH  17  18
ATOM     18  S   UNL     1       2.598   6.455  19.351  0.00  0.00    +0.000 S 
BRANCH  18  19
ATOM     19  C   UNL     1       2.981   5.071  18.378  0.00  0.00    +0.000 A 
ATOM     20  N   UNL     1       2.076   4.213  17.955  0.00  0.00    +0.000 NA
ATOM     21  N   UNL     1       2.701   3.314  17.138  0.00  0.00    +0.000 NA
ATOM     22  C   UNL     1       3.966   3.661  17.062  0.00  0.00    +0.000 A 
ATOM     23  N   UNL     1       4.223   4.779  17.828  0.00  0.00    +0.000 N 
BRANCH  23  24
ATOM     24  C   UNL     1       5.480   5.418  17.982  0.00  0.00    +0.000 A 
ATOM     25  C   UNL     1       6.370   5.045  18.999  0.00  0.00    +0.000 A 
ATOM     26  C   UNL     1       7.574   5.734  19.172  0.00  0.00    +0.000 A 
ATOM     27  C   UNL     1       7.913   6.786  18.329  0.00  0.00    +0.000 A 
ATOM     28  C   UNL     1       7.051   7.139  17.288  0.00  0.00    +0.000 A 
ATOM     29  C   UNL     1       5.853   6.451  17.118  0.00  0.00    +0.000 A 
ATOM     30  F   UNL     1       5.038   6.860  16.133  0.00  0.00    +0.000 F 
ENDBRANCH  23  24
ENDBRANCH  18  19
ENDBRANCH  17  18
ENDBRANCH   2  17
TORSDOF 6
ENDMDL
MODEL 2
REMARK VINA RESULT:      -8.3      0.968      1.204
REMARK  Name = 
REMARK  6 active torsions:
REMARK  status: ('A' for Active; 'I' for Inactive)
REMARK    1  A    between atoms: C_2  and  C_3
REMARK    2  A    between atoms: C_3  and  S_4
REMARK    3  A    between atoms: S_4  and  C_5
REMARK    4  A    between atoms: N_9  and  C_10
REMARK    5  A    between atoms: N_17  and  C_18
REMARK    6  A    between atoms: C_21  and  N_22
REMARK                            x       y       z     vdW  Elec       q    Type
REMARK                         _______ _______ _______ _____ _____    ______ ____
ROOT
ATOM      1  O   UNL     1       1.585  10.441  18.228  0.00  0.00    +0.000 OA
ATOM      2  C   UNL     1       1.460   9.347  18.774  0.00  0.00    +0.000 C 
ATOM      3  N   UNL     1       0.788   9.101  19.960  0.00  0.00    +0.000 N 
ATOM      4  H   UNL     1       1.024   8.233  20.440  0.00  0.00    +0.000 HD
ENDROOT
BRANCH   3   5
ATOM      5  C   UNL     1       0.029  10.028  20.698  0.00  0.00    +0.000 A 
ATOM      6  C   UNL     1      -0.700  11.061  20.117  0.00  0.00    +0.000 A 
ATOM      7  C   UNL     1      -1.424  11.959  20.912  0.00  0.00    +0.000 A 
ATOM      8  C   UNL     1      -1.415  11.871  22.308  0.00  0.00    +0.000 A 
ATOM      9  C   UNL     1      -0.704  10.805  22.881  0.00  0.00    +0.000 A 
ATOM     10  C   UNL     1      -0.004   9.886  22.086  0.00  0.00    +0.000 A 
BRANCH   8  11
ATOM     11  N   UNL     1      -2.067  12.840  23.120  0.00  0.00    +0.000 N 
ATOM     12  C   UNL     1      -1.381  14.012  23.612  0.00  0.00    +0.000 C 
ATOM     13  C   UNL     1      -2.355  14.644  24.583  0.00  0.00    +0.000 C 
ATOM     14  C   UNL     1      -3.712  14.263  24.028  0.00  0.00    +0.000 C 
ATOM     15  C   UNL     1      -3.452  12.955  23.322  0.00  0.00    +0.000 C 
ATOM     16  O   UNL     1      -4.353  12.202  22.985  0.00  0.00    +0.000 OA
ENDBRANCH   8  11
ENDBRANCH   3   5
BRANCH   2  17
ATOM     17  C   UNL     1       2.092   8.102  18.171  0.00  0.00    +0.000 C 
BRANCH  17  18
ATOM     18  S   UNL     1       2.435   6.845  19.426  0.00  0.00    +0.000 S 
BRANCH  18  19
ATOM     19  C   UNL     1       2.671   5.425  18.460  0.00  0.00    +0.000 A 
ATOM     20  N   UNL     1       1.683   4.651  18.060  0.00  0.00    +0.000 NA
ATOM     21  N   UNL     1       2.208   3.691  17.240  0.00  0.00    +0.000 NA
ATOM     22  C   UNL     1       3.498   3.920  17.140  0.00  0.00    +0.000 A 
ATOM     23  N   UNL     1       3.871   5.015  17.891  0.00  0.00    +0.000 N 
BRANCH  23  24
ATOM     24  C   UNL     1       5.184   5.536  18.017  0.00  0.00    +0.000 A 
ATOM     25  C   UNL     1       6.047   5.107  19.036  0.00  0.00    +0.000 A 
ATOM     26  C   UNL     1       7.311   5.683  19.180  0.00  0.00    +0.000 A 
ATOM     27  C   UNL     1       7.738   6.677  18.307  0.00  0.00    +0.000 A 
ATOM     28  C   UNL     1       6.902   7.084  17.266  0.00  0.00    +0.000 A 
ATOM     29  C   UNL     1       5.642   6.508  17.124  0.00  0.00    +0.000 A 
ATOM     30  F   UNL     1       4.858   6.968  16.137  0.00  0.00    +0.000 F 
ENDBRANCH  23  24
ENDBRANCH  18  19
ENDBRANCH  17  18
ENDBRANCH   2  17
TORSDOF 6
ENDMDL
MODEL 3
REMARK VINA RESULT:      -8.3      6.422      8.183
REMARK  Name = 
REMARK  6 active torsions:
REMARK  status: ('A' for Active; 'I' for Inactive)
REMARK    1  A    between atoms: C_2  and  C_3
REMARK    2  A    between atoms: C_3  and  S_4
REMARK    3  A    between atoms: S_4  and  C_5
REMARK    4  A    between atoms: N_9  and  C_10
REMARK    5  A    between atoms: N_17  and  C_18
REMARK    6  A    between atoms: C_21  and  N_22
REMARK                            x       y       z     vdW  Elec       q    Type
REMARK                         _______ _______ _______ _____ _____    ______ ____
ROOT
ATOM      1  O   UNL     1       7.332   8.393  17.497  0.00  0.00    +0.000 OA
ATOM      2  C   UNL     1       8.104   7.964  18.352  0.00  0.00    +0.000 C 
ATOM      3  N   UNL     1       8.997   8.718  19.095  0.00  0.00    +0.000 N 
ATOM      4  H   UNL     1       9.768   8.209  19.526  0.00  0.00    +0.000 HD
ENDROOT
BRANCH   3   5
ATOM      5  C   UNL     1       9.107  10.121  19.096  0.00  0.00    +0.000 A 
ATOM      6  C   UNL     1       9.281  10.878  20.250  0.00  0.00    +0.000 A 
ATOM      7  C   UNL     1       9.370  12.274  20.182  0.00  0.00    +0.000 A 
ATOM      8  C   UNL     1       9.255  12.956  18.966  0.00  0.00    +0.000 A 
ATOM      9  C   UNL     1       9.113  12.180  17.805  0.00  0.00    +0.000 A 
ATOM     10  C   UNL     1       9.055  10.780  17.867  0.00  0.00    +0.000 A 
BRANCH   8  11
ATOM     11  N   UNL     1       9.244  14.377  18.905  0.00  0.00    +0.000 N 
ATOM     12  C   UNL     1      10.309  15.123  18.277  0.00  0.00    +0.000 C 
ATOM     13  C   UNL     1      10.014  16.568  18.616  0.00  0.00    +0.000 C 
ATOM     14  C   UNL     1       8.504  16.607  18.731  0.00  0.00    +0.000 C 
ATOM     15  C   UNL     1       8.144  15.209  19.170  0.00  0.00    +0.000 C 
ATOM     16  O   UNL     1       7.049  14.929  19.630  0.00  0.00    +0.000 OA
ENDBRANCH   8  11
ENDBRANCH   3   5
BRANCH   2  17
ATOM     17  C   UNL     1       8.166   6.477  18.666  0.00  0.00    +0.000 C 
BRANCH  17  18
ATOM     18  S   UNL     1       6.520   5.729  18.718  0.00  0.00    +0.000 S 
BRANCH  18  19
ATOM     19  C   UNL     1       6.387   5.038  17.134  0.00  0.00    +0.000 A 
ATOM     20  N   UNL     1       7.360   5.072  16.247  0.00  0.00    +0.000 NA
ATOM     21  N   UNL     1       6.958   4.352  15.157  0.00  0.00    +0.000 NA
ATOM     22  C   UNL     1       5.762   3.875  15.416  0.00  0.00    +0.000 A 
ATOM     23  N   UNL     1       5.328   4.270  16.665  0.00  0.00    +0.000 N 
BRANCH  23  24
ATOM     24  C   UNL     1       4.083   3.943  17.260  0.00  0.00    +0.000 A 
ATOM     25  C   UNL     1       3.735   2.616  17.548  0.00  0.00    +0.000 A 
ATOM     26  C   UNL     1       2.476   2.312  18.072  0.00  0.00    +0.000 A 
ATOM     27  C   UNL     1       1.557   3.323  18.331  0.00  0.00    +0.000 A 
ATOM     28  C   UNL     1       1.908   4.652  18.084  0.00  0.00    +0.000 A 
ATOM     29  C   UNL     1       3.163   4.951  17.562  0.00  0.00    +0.000 A 
ATOM     30  F   UNL     1       3.434   6.239  17.298  0.00  0.00    +0.000 F 
ENDBRANCH  23  24
ENDBRANCH  18  19
ENDBRANCH  17  18
ENDBRANCH   2  17
TORSDOF 6
ENDMDL
MODEL 4
REMARK VINA RESULT:      -8.2      6.453      8.393
REMARK  Name = 
REMARK  6 active torsions:
REMARK  status: ('A' for Active; 'I' for Inactive)
REMARK    1  A    between atoms: C_2  and  C_3
REMARK    2  A    between atoms: C_3  and  S_4
REMARK    3  A    between atoms: S_4  and  C_5
REMARK    4  A    between atoms: N_9  and  C_10
REMARK    5  A    between atoms: N_17  and  C_18
REMARK    6  A    between atoms: C_21  and  N_22
REMARK                            x       y       z     vdW  Elec       q    Type
REMARK                         _______ _______ _______ _____ _____    ______ ____
ROOT
ATOM      1  O   UNL     1       7.438   7.995  17.320  0.00  0.00    +0.000 OA
ATOM      2  C   UNL     1       8.076   7.656  18.314  0.00  0.00    +0.000 C 
ATOM      3  N   UNL     1       8.860   8.485  19.099  0.00  0.00    +0.000 N 
ATOM      4  H   UNL     1       9.558   8.025  19.684  0.00  0.00    +0.000 HD
ENDROOT
BRANCH   3   5
ATOM      5  C   UNL     1       8.981   9.882  18.977  0.00  0.00    +0.000 A 
ATOM      6  C   UNL     1       8.624  10.588  17.833  0.00  0.00    +0.000 A 
ATOM      7  C   UNL     1       8.783  11.978  17.773  0.00  0.00    +0.000 A 
ATOM      8  C   UNL     1       9.332  12.698  18.839  0.00  0.00    +0.000 A 
ATOM      9  C   UNL     1       9.657  11.980  20.000  0.00  0.00    +0.000 A 
ATOM     10  C   UNL     1       9.470  10.592  20.075  0.00  0.00    +0.000 A 
BRANCH   8  11
ATOM     11  N   UNL     1       9.587  14.094  18.743  0.00  0.00    +0.000 N 
ATOM     12  C   UNL     1      10.887  14.611  18.383  0.00  0.00    +0.000 C 
ATOM     13  C   UNL     1      10.778  16.104  18.603  0.00  0.00    +0.000 C 
ATOM     14  C   UNL     1       9.316  16.399  18.335  0.00  0.00    +0.000 C 
ATOM     15  C   UNL     1       8.621  15.112  18.704  0.00  0.00    +0.000 C 
ATOM     16  O   UNL     1       7.414  15.047  18.883  0.00  0.00    +0.000 OA
ENDBRANCH   8  11
ENDBRANCH   3   5
BRANCH   2  17
ATOM     17  C   UNL     1       8.080   6.208  18.779  0.00  0.00    +0.000 C 
BRANCH  17  18
ATOM     18  S   UNL     1       6.410   5.517  18.850  0.00  0.00    +0.000 S 
BRANCH  18  19
ATOM     19  C   UNL     1       6.259   4.775  17.290  0.00  0.00    +0.000 A 
ATOM     20  N   UNL     1       7.263   4.661  16.445  0.00  0.00    +0.000 NA
ATOM     21  N   UNL     1       6.823   3.943  15.368  0.00  0.00    +0.000 NA
ATOM     22  C   UNL     1       5.571   3.616  15.595  0.00  0.00    +0.000 A 
ATOM     23  N   UNL     1       5.138   4.112  16.808  0.00  0.00    +0.000 N 
BRANCH  23  24
ATOM     24  C   UNL     1       3.842   3.954  17.361  0.00  0.00    +0.000 A 
ATOM     25  C   UNL     1       3.004   5.055  17.588  0.00  0.00    +0.000 A 
ATOM     26  C   UNL     1       1.758   4.882  18.196  0.00  0.00    +0.000 A 
ATOM     27  C   UNL     1       1.325   3.614  18.570  0.00  0.00    +0.000 A 
ATOM     28  C   UNL     1       2.135   2.506  18.313  0.00  0.00    +0.000 A 
ATOM     29  C   UNL     1       3.376   2.682  17.706  0.00  0.00    +0.000 A 
ATOM     30  F   UNL     1       4.137   1.591  17.525  0.00  0.00    +0.000 F 
ENDBRANCH  23  24
ENDBRANCH  18  19
ENDBRANCH  17  18
ENDBRANCH   2  17
TORSDOF 6
ENDMDL
MODEL 5
REMARK VINA RESULT:      -8.1      6.195      8.462
REMARK  Name = 
REMARK  6 active torsions:
REMARK  status: ('A' for Active; 'I' for Inactive)
REMARK    1  A    between atoms: C_2  and  C_3
REMARK    2  A    between atoms: C_3  and  S_4
REMARK    3  A    between atoms: S_4  and  C_5
REMARK    4  A    between atoms: N_9  and  C_10
REMARK    5  A    between atoms: N_17  and  C_18
REMARK    6  A    between atoms: C_21  and  N_22
REMARK                            x       y       z     vdW  Elec       q    Type
REMARK                         _______ _______ _______ _____ _____    ______ ____
ROOT
ATOM      1  O   UNL     1       7.137   8.174  17.385  0.00  0.00    +0.000 OA
ATOM      2  C   UNL     1       7.924   7.716  18.211  0.00  0.00    +0.000 C 
ATOM      3  N   UNL     1       8.862   8.439  18.929  0.00  0.00    +0.000 N 
ATOM      4  H   UNL     1       9.633   7.905  19.330  0.00  0.00    +0.000 HD
ENDROOT
BRANCH   3   5
ATOM      5  C   UNL     1       9.012   9.838  18.936  0.00  0.00    +0.000 A 
ATOM      6  C   UNL     1       8.957  10.623  17.789  0.00  0.00    +0.000 A 
ATOM      7  C   UNL     1       9.128  12.012  17.865  0.00  0.00    +0.000 A 
ATOM      8  C   UNL     1       9.390  12.650  19.081  0.00  0.00    +0.000 A 
ATOM      9  C   UNL     1       9.410  11.853  20.236  0.00  0.00    +0.000 A 
ATOM     10  C   UNL     1       9.208  10.467  20.167  0.00  0.00    +0.000 A 
BRANCH   8  11
ATOM     11  N   UNL     1       9.663  14.045  19.148  0.00  0.00    +0.000 N 
ATOM     12  C   UNL     1       8.733  14.979  19.740  0.00  0.00    +0.000 C 
ATOM     13  C   UNL     1       9.305  16.342  19.417  0.00  0.00    +0.000 C 
ATOM     14  C   UNL     1      10.799  16.099  19.357  0.00  0.00    +0.000 C 
ATOM     15  C   UNL     1      10.908  14.657  18.926  0.00  0.00    +0.000 C 
ATOM     16  O   UNL     1      11.948  14.176  18.505  0.00  0.00    +0.000 OA
ENDBRANCH   8  11
ENDBRANCH   3   5
BRANCH   2  17
ATOM     17  C   UNL     1       7.955   6.225  18.511  0.00  0.00    +0.000 C 
BRANCH  17  18
ATOM     18  S   UNL     1       6.405   5.653  19.246  0.00  0.00    +0.000 S 
BRANCH  18  19
ATOM     19  C   UNL     1       5.619   4.906  17.893  0.00  0.00    +0.000 A 
ATOM     20  N   UNL     1       6.164   4.822  16.697  0.00  0.00    +0.000 NA
ATOM     21  N   UNL     1       5.325   4.091  15.904  0.00  0.00    +0.000 NA
ATOM     22  C   UNL     1       4.302   3.725  16.643  0.00  0.00    +0.000 A 
ATOM     23  N   UNL     1       4.418   4.207  17.930  0.00  0.00    +0.000 N 
BRANCH  23  24
ATOM     24  C   UNL     1       3.491   4.009  18.985  0.00  0.00    +0.000 A 
ATOM     25  C   UNL     1       2.379   4.847  19.148  0.00  0.00    +0.000 A 
ATOM     26  C   UNL     1       1.517   4.674  20.234  0.00  0.00    +0.000 A 
ATOM     27  C   UNL     1       1.740   3.658  21.158  0.00  0.00    +0.000 A 
ATOM     28  C   UNL     1       2.822   2.794  20.982  0.00  0.00    +0.000 A 
ATOM     29  C   UNL     1       3.680   2.969  19.899  0.00  0.00    +0.000 A 
ATOM     30  F   UNL     1       4.733   2.142  19.802  0.00  0.00    +0.000 F 
ENDBRANCH  23  24
ENDBRANCH  18  19
ENDBRANCH  17  18
ENDBRANCH   2  17
TORSDOF 6
ENDMDL
MODEL 6
REMARK VINA RESULT:      -8.1      1.700      2.130
REMARK  Name = 
REMARK  6 active torsions:
REMARK  status: ('A' for Active; 'I' for Inactive)
REMARK    1  A    between atoms: C_2  and  C_3
REMARK    2  A    between atoms: C_3  and  S_4
REMARK    3  A    between atoms: S_4  and  C_5
REMARK    4  A    between atoms: N_9  and  C_10
REMARK    5  A    between atoms: N_17  and  C_18
REMARK    6  A    between atoms: C_21  and  N_22
REMARK                            x       y       z     vdW  Elec       q    Type
REMARK                         _______ _______ _______ _____ _____    ______ ____
ROOT
ATOM      1  O   UNL     1       1.313   9.056  18.905  0.00  0.00    +0.000 OA
ATOM      2  C   UNL     1       1.574   8.362  19.885  0.00  0.00    +0.000 C 
ATOM      3  N   UNL     1       1.245   8.652  21.199  0.00  0.00    +0.000 N 
ATOM      4  H   UNL     1       1.779   8.163  21.917  0.00  0.00    +0.000 HD
ENDROOT
BRANCH   3   5
ATOM      5  C   UNL     1       0.456   9.729  21.644  0.00  0.00    +0.000 A 
ATOM      6  C   UNL     1       0.455  10.983  21.041  0.00  0.00    +0.000 A 
ATOM      7  C   UNL     1      -0.345  12.017  21.544  0.00  0.00    +0.000 A 
ATOM      8  C   UNL     1      -1.141  11.839  22.680  0.00  0.00    +0.000 A 
ATOM      9  C   UNL     1      -1.159  10.561  23.259  0.00  0.00    +0.000 A 
ATOM     10  C   UNL     1      -0.382   9.515  22.740  0.00  0.00    +0.000 A 
BRANCH   8  11
ATOM     11  N   UNL     1      -1.877  12.914  23.251  0.00  0.00    +0.000 N 
ATOM     12  C   UNL     1      -1.231  14.113  23.732  0.00  0.00    +0.000 C 
ATOM     13  C   UNL     1      -2.328  14.882  24.434  0.00  0.00    +0.000 C 
ATOM     14  C   UNL     1      -3.582  14.482  23.685  0.00  0.00    +0.000 C 
ATOM     15  C   UNL     1      -3.268  13.094  23.182  0.00  0.00    +0.000 C 
ATOM     16  O   UNL     1      -4.132  12.337  22.768  0.00  0.00    +0.000 OA
ENDBRANCH   8  11
ENDBRANCH   3   5
BRANCH   2  17
ATOM     17  C   UNL     1       2.348   7.062  19.733  0.00  0.00    +0.000 C 
BRANCH  17  18
ATOM     18  S   UNL     1       2.805   6.746  18.011  0.00  0.00    +0.000 S 
BRANCH  18  19
ATOM     19  C   UNL     1       2.581   5.031  17.887  0.00  0.00    +0.000 A 
ATOM     20  N   UNL     1       1.444   4.429  18.166  0.00  0.00    +0.000 NA
ATOM     21  N   UNL     1       1.587   3.103  17.865  0.00  0.00    +0.000 NA
ATOM     22  C   UNL     1       2.799   2.935  17.387  0.00  0.00    +0.000 A 
ATOM     23  N   UNL     1       3.497   4.125  17.368  0.00  0.00    +0.000 N 
BRANCH  23  24
ATOM     24  C   UNL     1       4.832   4.304  16.923  0.00  0.00    +0.000 A 
ATOM     25  C   UNL     1       5.162   4.259  15.562  0.00  0.00    +0.000 A 
ATOM     26  C   UNL     1       6.493   4.372  15.153  0.00  0.00    +0.000 A 
ATOM     27  C   UNL     1       7.507   4.547  16.088  0.00  0.00    +0.000 A 
ATOM     28  C   UNL     1       7.185   4.633  17.444  0.00  0.00    +0.000 A 
ATOM     29  C   UNL     1       5.857   4.520  17.849  0.00  0.00    +0.000 A 
ATOM     30  F   UNL     1       5.605   4.562  19.166  0.00  0.00    +0.000 F 
ENDBRANCH  23  24
ENDBRANCH  18  19
ENDBRANCH  17  18
ENDBRANCH   2  17
TORSDOF 6
ENDMDL
MODEL 7
REMARK VINA RESULT:      -8.1      1.306      1.508
REMARK  Name = 
REMARK  6 active torsions:
REMARK  status: ('A' for Active; 'I' for Inactive)
REMARK    1  A    between atoms: C_2  and  C_3
REMARK    2  A    between atoms: C_3  and  S_4
REMARK    3  A    between atoms: S_4  and  C_5
REMARK    4  A    between atoms: N_9  and  C_10
REMARK    5  A    between atoms: N_17  and  C_18
REMARK    6  A    between atoms: C_21  and  N_22
REMARK                            x       y       z     vdW  Elec       q    Type
REMARK                         _______ _______ _______ _____ _____    ______ ____
ROOT
ATOM      1  O   UNL     1       1.943  10.202  17.434  0.00  0.00    +0.000 OA
ATOM      2  C   UNL     1       1.908   9.256  18.217  0.00  0.00    +0.000 C 
ATOM      3  N   UNL     1       1.193   9.207  19.402  0.00  0.00    +0.000 N 
ATOM      4  H   UNL     1       1.494   8.509  20.082  0.00  0.00    +0.000 HD
ENDROOT
BRANCH   3   5
ATOM      5  C   UNL     1       0.288  10.176  19.873  0.00  0.00    +0.000 A 
ATOM      6  C   UNL     1      -0.857  10.558  19.182  0.00  0.00    +0.000 A 
ATOM      7  C   UNL     1      -1.710  11.541  19.701  0.00  0.00    +0.000 A 
ATOM      8  C   UNL     1      -1.427  12.191  20.907  0.00  0.00    +0.000 A 
ATOM      9  C   UNL     1      -0.288  11.773  21.612  0.00  0.00    +0.000 A 
ATOM     10  C   UNL     1       0.551  10.768  21.109  0.00  0.00    +0.000 A 
BRANCH   8  11
ATOM     11  N   UNL     1      -2.237  13.258  21.387  0.00  0.00    +0.000 N 
ATOM     12  C   UNL     1      -2.176  14.582  20.813  0.00  0.00    +0.000 C 
ATOM     13  C   UNL     1      -3.019  15.436  21.735  0.00  0.00    +0.000 C 
ATOM     14  C   UNL     1      -4.055  14.469  22.271  0.00  0.00    +0.000 C 
ATOM     15  C   UNL     1      -3.348  13.136  22.237  0.00  0.00    +0.000 C 
ATOM     16  O   UNL     1      -3.761  12.161  22.844  0.00  0.00    +0.000 OA
ENDBRANCH   8  11
ENDBRANCH   3   5
BRANCH   2  17
ATOM     17  C   UNL     1       2.714   7.995  17.948  0.00  0.00    +0.000 C 
BRANCH  17  18
ATOM     18  S   UNL     1       2.423   6.727  19.205  0.00  0.00    +0.000 S 
BRANCH  18  19
ATOM     19  C   UNL     1       2.719   5.266  18.319  0.00  0.00    +0.000 A 
ATOM     20  N   UNL     1       1.759   4.467  17.902  0.00  0.00    +0.000 NA
ATOM     21  N   UNL     1       2.333   3.475  17.157  0.00  0.00    +0.000 NA
ATOM     22  C   UNL     1       3.625   3.709  17.117  0.00  0.00    +0.000 A 
ATOM     23  N   UNL     1       3.950   4.840  17.836  0.00  0.00    +0.000 N 
BRANCH  23  24
ATOM     24  C   UNL     1       5.252   5.376  18.010  0.00  0.00    +0.000 A 
ATOM     25  C   UNL     1       6.024   5.070  19.140  0.00  0.00    +0.000 A 
ATOM     26  C   UNL     1       7.276   5.663  19.321  0.00  0.00    +0.000 A 
ATOM     27  C   UNL     1       7.781   6.551  18.378  0.00  0.00    +0.000 A 
ATOM     28  C   UNL     1       7.036   6.832  17.230  0.00  0.00    +0.000 A 
ATOM     29  C   UNL     1       5.789   6.240  17.051  0.00  0.00    +0.000 A 
ATOM     30  F   UNL     1       5.093   6.580  15.956  0.00  0.00    +0.000 F 
ENDBRANCH  23  24
ENDBRANCH  18  19
ENDBRANCH  17  18
ENDBRANCH   2  17
TORSDOF 6
ENDMDL
MODEL 8
REMARK VINA RESULT:      -8.1      5.388      8.413
REMARK  Name = 
REMARK  6 active torsions:
REMARK  status: ('A' for Active; 'I' for Inactive)
REMARK    1  A    between atoms: C_2  and  C_3
REMARK    2  A    between atoms: C_3  and  S_4
REMARK    3  A    between atoms: S_4  and  C_5
REMARK    4  A    between atoms: N_9  and  C_10
REMARK    5  A    between atoms: N_17  and  C_18
REMARK    6  A    between atoms: C_21  and  N_22
REMARK                            x       y       z     vdW  Elec       q    Type
REMARK                         _______ _______ _______ _____ _____    ______ ____
ROOT
ATOM      1  O   UNL     1       8.058   6.526  18.891  0.00  0.00    +0.000 OA
ATOM      2  C   UNL     1       7.484   6.921  17.879  0.00  0.00    +0.000 C 
ATOM      3  N   UNL     1       7.440   8.229  17.426  0.00  0.00    +0.000 N 
ATOM      4  H   UNL     1       6.692   8.454  16.770  0.00  0.00    +0.000 HD
ENDROOT
BRANCH   3   5
ATOM      5  C   UNL     1       8.133   9.325  17.971  0.00  0.00    +0.000 A 
ATOM      6  C   UNL     1       8.965   9.234  19.082  0.00  0.00    +0.000 A 
ATOM      7  C   UNL     1       9.616  10.369  19.582  0.00  0.00    +0.000 A 
ATOM      8  C   UNL     1       9.430  11.631  19.008  0.00  0.00    +0.000 A 
ATOM      9  C   UNL     1       8.616  11.705  17.867  0.00  0.00    +0.000 A 
ATOM     10  C   UNL     1       7.988  10.565  17.345  0.00  0.00    +0.000 A 
BRANCH   8  11
ATOM     11  N   UNL     1      10.010  12.801  19.573  0.00  0.00    +0.000 N 
ATOM     12  C   UNL     1      11.106  13.495  18.937  0.00  0.00    +0.000 C 
ATOM     13  C   UNL     1      11.543  14.528  19.952  0.00  0.00    +0.000 C 
ATOM     14  C   UNL     1      10.270  14.850  20.707  0.00  0.00    +0.000 C 
ATOM     15  C   UNL     1       9.468  13.575  20.611  0.00  0.00    +0.000 C 
ATOM     16  O   UNL     1       8.503  13.353  21.326  0.00  0.00    +0.000 OA
ENDBRANCH   8  11
ENDBRANCH   3   5
BRANCH   2  17
ATOM     17  C   UNL     1       6.706   5.954  17.000  0.00  0.00    +0.000 C 
BRANCH  17  18
ATOM     18  S   UNL     1       5.410   5.095  17.925  0.00  0.00    +0.000 S 
BRANCH  18  19
ATOM     19  C   UNL     1       4.164   6.298  18.000  0.00  0.00    +0.000 A 
ATOM     20  N   UNL     1       4.257   7.472  17.412  0.00  0.00    +0.000 NA
ATOM     21  N   UNL     1       3.068   8.124  17.586  0.00  0.00    +0.000 NA
ATOM     22  C   UNL     1       2.271   7.320  18.254  0.00  0.00    +0.000 A 
ATOM     23  N   UNL     1       2.901   6.130  18.554  0.00  0.00    +0.000 N 
BRANCH  23  24
ATOM     24  C   UNL     1       2.338   5.043  19.271  0.00  0.00    +0.000 A 
ATOM     25  C   UNL     1       2.561   4.880  20.646  0.00  0.00    +0.000 A 
ATOM     26  C   UNL     1       2.051   3.765  21.316  0.00  0.00    +0.000 A 
ATOM     27  C   UNL     1       1.303   2.812  20.635  0.00  0.00    +0.000 A 
ATOM     28  C   UNL     1       1.042   2.986  19.274  0.00  0.00    +0.000 A 
ATOM     29  C   UNL     1       1.551   4.098  18.608  0.00  0.00    +0.000 A 
ATOM     30  F   UNL     1       1.313   4.194  17.291  0.00  0.00    +0.000 F 
ENDBRANCH  23  24
ENDBRANCH  18  19
ENDBRANCH  17  18
ENDBRANCH   2  17
TORSDOF 6
ENDMDL
MODEL 9
REMARK VINA RESULT:      -8.0      1.527      2.010
REMARK  Name = 
REMARK  6 active torsions:
REMARK  status: ('A' for Active; 'I' for Inactive)
REMARK    1  A    between atoms: C_2  and  C_3
REMARK    2  A    between atoms: C_3  and  S_4
REMARK    3  A    between atoms: S_4  and  C_5
REMARK    4  A    between atoms: N_9  and  C_10
REMARK    5  A    between atoms: N_17  and  C_18
REMARK    6  A    between atoms: C_21  and  N_22
REMARK                            x       y       z     vdW  Elec       q    Type
REMARK                         _______ _______ _______ _____ _____    ______ ____
ROOT
ATOM      1  O   UNL     1       1.443   8.748  18.925  0.00  0.00    +0.000 OA
ATOM      2  C   UNL     1       1.752   8.033  19.876  0.00  0.00    +0.000 C 
ATOM      3  N   UNL     1       1.469   8.284  21.208  0.00  0.00    +0.000 N 
ATOM      4  H   UNL     1       2.038   7.785  21.892  0.00  0.00    +0.000 HD
ENDROOT
BRANCH   3   5
ATOM      5  C   UNL     1       0.680   9.335  21.711  0.00  0.00    +0.000 A 
ATOM      6  C   UNL     1      -0.128   9.219  22.837  0.00  0.00    +0.000 A 
ATOM      7  C   UNL     1      -0.900  10.302  23.277  0.00  0.00    +0.000 A 
ATOM      8  C   UNL     1      -0.911  11.519  22.588  0.00  0.00    +0.000 A 
ATOM      9  C   UNL     1      -0.066  11.635  21.473  0.00  0.00    +0.000 A 
ATOM     10  C   UNL     1       0.731  10.563  21.049  0.00  0.00    +0.000 A 
BRANCH   8  11
ATOM     11  N   UNL     1      -1.769  12.587  22.974  0.00  0.00    +0.000 N 
ATOM     12  C   UNL     1      -3.175  12.382  23.233  0.00  0.00    +0.000 C 
ATOM     13  C   UNL     1      -3.738  13.777  23.400  0.00  0.00    +0.000 C 
ATOM     14  C   UNL     1      -2.575  14.568  23.962  0.00  0.00    +0.000 C 
ATOM     15  C   UNL     1      -1.363  13.858  23.412  0.00  0.00    +0.000 C 
ATOM     16  O   UNL     1      -0.250  14.360  23.421  0.00  0.00    +0.000 OA
ENDBRANCH   8  11
ENDBRANCH   3   5
BRANCH   2  17
ATOM     17  C   UNL     1       2.541   6.750  19.660  0.00  0.00    +0.000 C 
BRANCH  17  18
ATOM     18  S   UNL     1       2.380   6.137  17.965  0.00  0.00    +0.000 S 
BRANCH  18  19
ATOM     19  C   UNL     1       2.531   4.424  18.186  0.00  0.00    +0.000 A 
ATOM     20  N   UNL     1       1.539   3.657  18.589  0.00  0.00    +0.000 NA
ATOM     21  N   UNL     1       1.971   2.361  18.556  0.00  0.00    +0.000 NA
ATOM     22  C   UNL     1       3.207   2.367  18.110  0.00  0.00    +0.000 A 
ATOM     23  N   UNL     1       3.637   3.652  17.849  0.00  0.00    +0.000 N 
BRANCH  23  24
ATOM     24  C   UNL     1       4.917   4.024  17.365  0.00  0.00    +0.000 A 
ATOM     25  C   UNL     1       5.238   3.936  16.003  0.00  0.00    +0.000 A 
ATOM     26  C   UNL     1       6.527   4.245  15.560  0.00  0.00    +0.000 A 
ATOM     27  C   UNL     1       7.503   4.659  16.460  0.00  0.00    +0.000 A 
ATOM     28  C   UNL     1       7.182   4.788  17.813  0.00  0.00    +0.000 A 
ATOM     29  C   UNL     1       5.897   4.480  18.252  0.00  0.00    +0.000 A 
ATOM     30  F   UNL     1       5.653   4.573  19.568  0.00  0.00    +0.000 F 
ENDBRANCH  23  24
ENDBRANCH  18  19
ENDBRANCH  17  18
ENDBRANCH   2  17
TORSDOF 6
ENDMDL
