MODEL 1
REMARK VINA RESULT:      -8.1      0.000      0.000
REMARK  Name = 
REMARK  5 active torsions:
REMARK  status: ('A' for Active; 'I' for Inactive)
REMARK    1  A    between atoms: C_2  and  C_3
REMARK    2  A    between atoms: C_3  and  O_4
REMARK    3  A    between atoms: O_4  and  C_5
REMARK    4  A    between atoms: C_5  and  C_7
REMARK    5  A    between atoms: N_16  and  C_17
REMARK                            x       y       z     vdW  Elec       q    Type
REMARK                         _______ _______ _______ _____ _____    ______ ____
ROOT
ATOM      1  O   UNL     1       0.682   4.823  20.208  0.00  0.00    +0.000 OA
ATOM      2  C   UNL     1       1.818   5.011  20.594  0.00  0.00    +0.000 C 
ATOM      3  N   UNL     1       2.451   6.250  20.636  0.00  0.00    +0.000 N 
ATOM      4  H   UNL     1       3.465   6.259  20.762  0.00  0.00    +0.000 HD
ENDROOT
BRANCH   3   5
ATOM      5  C   UNL     1       1.813   7.493  20.344  0.00  0.00    +0.000 A 
ATOM      6  C   UNL     1       0.955   8.083  21.287  0.00  0.00    +0.000 A 
ATOM      7  C   UNL     1       0.406   9.306  20.994  0.00  0.00    +0.000 A 
ATOM      8  N   UNL     1      -0.527  10.053  21.706  0.00  0.00    +0.000 N 
ATOM      9  C   UNL     1      -0.803  11.221  20.982  0.00  0.00    +0.000 A 
ATOM     10  O   UNL     1      -1.600  12.092  21.280  0.00  0.00    +0.000 OA
ATOM     11  N   UNL     1       0.004  11.185  19.835  0.00  0.00    +0.000 N 
ATOM     12  C   UNL     1       0.722   9.995  19.834  0.00  0.00    +0.000 A 
ATOM     13  C   UNL     1       1.541   9.467  18.869  0.00  0.00    +0.000 A 
ATOM     14  C   UNL     1       2.035   8.177  19.108  0.00  0.00    +0.000 A 
ATOM     15 BR   UNL     1       2.740   7.257  17.598  0.00  0.00    +0.000 Br
ATOM     16  H   UNL     1      -0.996   9.797  22.560  0.00  0.00    +0.000 HD
ATOM     17  H   UNL     1      -0.011  11.892  19.122  0.00  0.00    +0.000 HD
ENDBRANCH   3   5
BRANCH   2  18
ATOM     18  C   UNL     1       2.653   3.812  21.070  0.00  0.00    +0.000 C 
BRANCH  18  19
ATOM     19  O   UNL     1       2.931   2.848  20.072  0.00  0.00    +0.000 OA
BRANCH  19  20
ATOM     20  C   UNL     1       4.262   2.751  19.766  0.00  0.00    +0.000 C 
ATOM     21  O   UNL     1       5.071   2.113  20.426  0.00  0.00    +0.000 OA
BRANCH  20  22
ATOM     22  C   UNL     1       4.594   3.466  18.548  0.00  0.00    +0.000 A 
ATOM     23  C   UNL     1       4.015   3.260  17.311  0.00  0.00    +0.000 A 
ATOM     24  N   UNL     1       4.552   4.155  16.427  0.00  0.00    +0.000 N 
ATOM     25  C   UNL     1       5.523   4.907  17.044  0.00  0.00    +0.000 A 
ATOM     26  C   UNL     1       6.344   5.913  16.526  0.00  0.00    +0.000 A 
ATOM     27  C   UNL     1       7.282   6.493  17.386  0.00  0.00    +0.000 A 
ATOM     28  C   UNL     1       7.383   6.087  18.713  0.00  0.00    +0.000 A 
ATOM     29  C   UNL     1       6.535   5.100  19.224  0.00  0.00    +0.000 A 
ATOM     30  C   UNL     1       5.585   4.492  18.376  0.00  0.00    +0.000 A 
ATOM     31  H   UNL     1       4.295   4.238  15.453  0.00  0.00    +0.000 HD
ENDBRANCH  20  22
ENDBRANCH  19  20
ENDBRANCH  18  19
ENDBRANCH   2  18
TORSDOF 5
ENDMDL
MODEL 2
REMARK VINA RESULT:      -8.0      5.345      7.900
REMARK  Name = 
REMARK  5 active torsions:
REMARK  status: ('A' for Active; 'I' for Inactive)
REMARK    1  A    between atoms: C_2  and  C_3
REMARK    2  A    between atoms: C_3  and  O_4
REMARK    3  A    between atoms: O_4  and  C_5
REMARK    4  A    between atoms: C_5  and  C_7
REMARK    5  A    between atoms: N_16  and  C_17
REMARK                            x       y       z     vdW  Elec       q    Type
REMARK                         _______ _______ _______ _____ _____    ______ ____
ROOT
ATOM      1  O   UNL     1       7.834   5.848  18.686  0.00  0.00    +0.000 OA
ATOM      2  C   UNL     1       7.294   6.674  17.978  0.00  0.00    +0.000 C 
ATOM      3  N   UNL     1       5.988   6.585  17.503  0.00  0.00    +0.000 N 
ATOM      4  H   UNL     1       5.718   7.213  16.744  0.00  0.00    +0.000 HD
ENDROOT
BRANCH   3   5
ATOM      5  C   UNL     1       5.059   5.568  17.879  0.00  0.00    +0.000 A 
ATOM      6  C   UNL     1       4.392   5.645  19.114  0.00  0.00    +0.000 A 
ATOM      7  C   UNL     1       3.465   4.681  19.414  0.00  0.00    +0.000 A 
ATOM      8  N   UNL     1       2.740   4.481  20.586  0.00  0.00    +0.000 N 
ATOM      9  C   UNL     1       1.942   3.341  20.423  0.00  0.00    +0.000 A 
ATOM     10  O   UNL     1       1.206   2.842  21.254  0.00  0.00    +0.000 OA
ATOM     11  N   UNL     1       2.170   2.871  19.121  0.00  0.00    +0.000 N 
ATOM     12  C   UNL     1       3.126   3.681  18.518  0.00  0.00    +0.000 A 
ATOM     13  C   UNL     1       3.749   3.544  17.304  0.00  0.00    +0.000 A 
ATOM     14  C   UNL     1       4.769   4.464  17.019  0.00  0.00    +0.000 A 
ATOM     15 BR   UNL     1       5.951   3.993  15.603  0.00  0.00    +0.000 Br
ATOM     16  H   UNL     1       2.805   5.004  21.445  0.00  0.00    +0.000 HD
ATOM     17  H   UNL     1       1.742   2.045  18.744  0.00  0.00    +0.000 HD
ENDBRANCH   3   5
BRANCH   2  18
ATOM     18  C   UNL     1       8.084   7.919  17.547  0.00  0.00    +0.000 C 
BRANCH  18  19
ATOM     19  O   UNL     1       8.466   8.777  18.606  0.00  0.00    +0.000 OA
BRANCH  19  20
ATOM     20  C   UNL     1       8.496  10.099  18.250  0.00  0.00    +0.000 C 
ATOM     21  O   UNL     1       7.792  10.588  17.376  0.00  0.00    +0.000 OA
BRANCH  20  22
ATOM     22  C   UNL     1       9.434  10.858  19.056  0.00  0.00    +0.000 A 
ATOM     23  C   UNL     1       9.586  10.755  20.425  0.00  0.00    +0.000 A 
ATOM     24  N   UNL     1      10.597  11.590  20.812  0.00  0.00    +0.000 N 
ATOM     25  C   UNL     1      11.074  12.291  19.731  0.00  0.00    +0.000 A 
ATOM     26  C   UNL     1      12.077  13.263  19.662  0.00  0.00    +0.000 A 
ATOM     27  C   UNL     1      12.333  13.844  18.416  0.00  0.00    +0.000 A 
ATOM     28  C   UNL     1      11.622  13.456  17.285  0.00  0.00    +0.000 A 
ATOM     29  C   UNL     1      10.642  12.462  17.364  0.00  0.00    +0.000 A 
ATOM     30  C   UNL     1      10.356  11.865  18.611  0.00  0.00    +0.000 A 
ATOM     31  H   UNL     1      10.932  11.699  21.760  0.00  0.00    +0.000 HD
ENDBRANCH  20  22
ENDBRANCH  19  20
ENDBRANCH  18  19
ENDBRANCH   2  18
TORSDOF 5
ENDMDL
MODEL 3
REMARK VINA RESULT:      -7.9      3.271      8.818
REMARK  Name = 
REMARK  5 active torsions:
REMARK  status: ('A' for Active; 'I' for Inactive)
REMARK    1  A    between atoms: C_2  and  C_3
REMARK    2  A    between atoms: C_3  and  O_4
REMARK    3  A    between atoms: O_4  and  C_5
REMARK    4  A    between atoms: C_5  and  C_7
REMARK    5  A    between atoms: N_16  and  C_17
REMARK                            x       y       z     vdW  Elec       q    Type
REMARK                         _______ _______ _______ _____ _____    ______ ____
ROOT
ATOM      1  O   UNL     1       1.700   8.308  17.743  0.00  0.00    +0.000 OA
ATOM      2  C   UNL     1       2.007   8.017  18.881  0.00  0.00    +0.000 C 
ATOM      3  N   UNL     1       2.811   6.938  19.239  0.00  0.00    +0.000 N 
ATOM      4  H   UNL     1       2.817   6.658  20.222  0.00  0.00    +0.000 HD
ENDROOT
BRANCH   3   5
ATOM      5  C   UNL     1       3.487   6.091  18.309  0.00  0.00    +0.000 A 
ATOM      6  C   UNL     1       4.491   6.617  17.479  0.00  0.00    +0.000 A 
ATOM      7  C   UNL     1       5.158   5.761  16.640  0.00  0.00    +0.000 A 
ATOM      8  N   UNL     1       6.118   6.037  15.671  0.00  0.00    +0.000 N 
ATOM      9  C   UNL     1       6.476   4.834  15.049  0.00  0.00    +0.000 A 
ATOM     10  O   UNL     1       7.260   4.695  14.128  0.00  0.00    +0.000 OA
ATOM     11  N   UNL     1       5.742   3.819  15.680  0.00  0.00    +0.000 N 
ATOM     12  C   UNL     1       4.914   4.398  16.635  0.00  0.00    +0.000 A 
ATOM     13  C   UNL     1       3.939   3.825  17.411  0.00  0.00    +0.000 A 
ATOM     14  C   UNL     1       3.181   4.699  18.205  0.00  0.00    +0.000 A 
ATOM     15 BR   UNL     1       1.543   4.006  18.883  0.00  0.00    +0.000 Br
ATOM     16  H   UNL     1       6.466   6.941  15.391  0.00  0.00    +0.000 HD
ATOM     17  H   UNL     1       5.786   2.852  15.414  0.00  0.00    +0.000 HD
ENDBRANCH   3   5
BRANCH   2  18
ATOM     18  C   UNL     1       1.478   8.875  20.041  0.00  0.00    +0.000 C 
BRANCH  18  19
ATOM     19  O   UNL     1       0.191   9.428  19.832  0.00  0.00    +0.000 OA
BRANCH  19  20
ATOM     20  C   UNL     1       0.220  10.730  19.413  0.00  0.00    +0.000 C 
ATOM     21  O   UNL     1       1.245  11.390  19.302  0.00  0.00    +0.000 OA
BRANCH  20  22
ATOM     22  C   UNL     1      -1.103  11.225  19.080  0.00  0.00    +0.000 A 
ATOM     23  C   UNL     1      -1.826  12.144  19.814  0.00  0.00    +0.000 A 
ATOM     24  N   UNL     1      -3.000  12.394  19.159  0.00  0.00    +0.000 N 
ATOM     25  C   UNL     1      -3.093  11.608  18.035  0.00  0.00    +0.000 A 
ATOM     26  C   UNL     1      -4.118  11.511  17.089  0.00  0.00    +0.000 A 
ATOM     27  C   UNL     1      -3.960  10.587  16.053  0.00  0.00    +0.000 A 
ATOM     28  C   UNL     1      -2.814   9.801  15.963  0.00  0.00    +0.000 A 
ATOM     29  C   UNL     1      -1.785   9.930  16.900  0.00  0.00    +0.000 A 
ATOM     30  C   UNL     1      -1.922  10.850  17.962  0.00  0.00    +0.000 A 
ATOM     31  H   UNL     1      -3.711  13.045  19.465  0.00  0.00    +0.000 HD
ENDBRANCH  20  22
ENDBRANCH  19  20
ENDBRANCH  18  19
ENDBRANCH   2  18
TORSDOF 5
ENDMDL
MODEL 4
REMARK VINA RESULT:      -7.8      1.664      2.323
REMARK  Name = 
REMARK  5 active torsions:
REMARK  status: ('A' for Active; 'I' for Inactive)
REMARK    1  A    between atoms: C_2  and  C_3
REMARK    2  A    between atoms: C_3  and  O_4
REMARK    3  A    between atoms: O_4  and  C_5
REMARK    4  A    between atoms: C_5  and  C_7
REMARK    5  A    between atoms: N_16  and  C_17
REMARK                            x       y       z     vdW  Elec       q    Type
REMARK                         _______ _______ _______ _____ _____    ______ ____
ROOT
ATOM      1  O   UNL     1       0.763   5.431  20.484  0.00  0.00    +0.000 OA
ATOM      2  C   UNL     1       1.917   5.804  20.436  0.00  0.00    +0.000 C 
ATOM      3  N   UNL     1       2.328   7.134  20.469  0.00  0.00    +0.000 N 
ATOM      4  H   UNL     1       3.292   7.339  20.199  0.00  0.00    +0.000 HD
ENDROOT
BRANCH   3   5
ATOM      5  C   UNL     1       1.456   8.244  20.686  0.00  0.00    +0.000 A 
ATOM      6  C   UNL     1       0.802   8.395  21.921  0.00  0.00    +0.000 A 
ATOM      7  C   UNL     1       0.018   9.504  22.112  0.00  0.00    +0.000 A 
ATOM      8  N   UNL     1      -0.792   9.843  23.192  0.00  0.00    +0.000 N 
ATOM      9  C   UNL     1      -1.423  11.061  22.905  0.00  0.00    +0.000 A 
ATOM     10  O   UNL     1      -2.234  11.643  23.603  0.00  0.00    +0.000 OA
ATOM     11  N   UNL     1      -0.957  11.471  21.647  0.00  0.00    +0.000 N 
ATOM     12  C   UNL     1      -0.095  10.498  21.154  0.00  0.00    +0.000 A 
ATOM     13  C   UNL     1       0.505  10.403  19.925  0.00  0.00    +0.000 A 
ATOM     14  C   UNL     1       1.234   9.230  19.676  0.00  0.00    +0.000 A 
ATOM     15 BR   UNL     1       1.639   8.867  17.852  0.00  0.00    +0.000 Br
ATOM     16  H   UNL     1      -0.971   9.298  24.020  0.00  0.00    +0.000 HD
ATOM     17  H   UNL     1      -1.268  12.306  21.184  0.00  0.00    +0.000 HD
ENDBRANCH   3   5
BRANCH   2  18
ATOM     18  C   UNL     1       3.036   4.758  20.319  0.00  0.00    +0.000 C 
BRANCH  18  19
ATOM     19  O   UNL     1       4.210   5.212  19.671  0.00  0.00    +0.000 OA
BRANCH  19  20
ATOM     20  C   UNL     1       5.026   4.196  19.251  0.00  0.00    +0.000 C 
ATOM     21  O   UNL     1       4.938   3.041  19.646  0.00  0.00    +0.000 OA
BRANCH  20  22
ATOM     22  C   UNL     1       5.984   4.643  18.257  0.00  0.00    +0.000 A 
ATOM     23  C   UNL     1       7.144   5.346  18.517  0.00  0.00    +0.000 A 
ATOM     24  N   UNL     1       7.805   5.542  17.336  0.00  0.00    +0.000 N 
ATOM     25  C   UNL     1       7.069   5.035  16.290  0.00  0.00    +0.000 A 
ATOM     26  C   UNL     1       7.341   5.034  14.919  0.00  0.00    +0.000 A 
ATOM     27  C   UNL     1       6.384   4.472  14.069  0.00  0.00    +0.000 A 
ATOM     28  C   UNL     1       5.210   3.923  14.575  0.00  0.00    +0.000 A 
ATOM     29  C   UNL     1       4.966   3.905  15.952  0.00  0.00    +0.000 A 
ATOM     30  C   UNL     1       5.911   4.474  16.833  0.00  0.00    +0.000 A 
ATOM     31  H   UNL     1       8.694   6.013  17.236  0.00  0.00    +0.000 HD
ENDBRANCH  20  22
ENDBRANCH  19  20
ENDBRANCH  18  19
ENDBRANCH   2  18
TORSDOF 5
ENDMDL
MODEL 5
REMARK VINA RESULT:      -7.7      1.133      1.263
REMARK  Name = 
REMARK  5 active torsions:
REMARK  status: ('A' for Active; 'I' for Inactive)
REMARK    1  A    between atoms: C_2  and  C_3
REMARK    2  A    between atoms: C_3  and  O_4
REMARK    3  A    between atoms: O_4  and  C_5
REMARK    4  A    between atoms: C_5  and  C_7
REMARK    5  A    between atoms: N_16  and  C_17
REMARK                            x       y       z     vdW  Elec       q    Type
REMARK                         _______ _______ _______ _____ _____    ______ ____
ROOT
ATOM      1  O   UNL     1       0.687   5.450  20.564  0.00  0.00    +0.000 OA
ATOM      2  C   UNL     1       1.850   5.801  20.559  0.00  0.00    +0.000 C 
ATOM      3  N   UNL     1       2.285   7.123  20.603  0.00  0.00    +0.000 N 
ATOM      4  H   UNL     1       3.262   7.307  20.368  0.00  0.00    +0.000 HD
ENDROOT
BRANCH   3   5
ATOM      5  C   UNL     1       1.426   8.250  20.782  0.00  0.00    +0.000 A 
ATOM      6  C   UNL     1       0.743   8.428  21.997  0.00  0.00    +0.000 A 
ATOM      7  C   UNL     1      -0.027   9.553  22.152  0.00  0.00    +0.000 A 
ATOM      8  N   UNL     1      -0.860   9.919  23.206  0.00  0.00    +0.000 N 
ATOM      9  C   UNL     1      -1.461  11.144  22.887  0.00  0.00    +0.000 A 
ATOM     10  O   UNL     1      -2.280  11.749  23.555  0.00  0.00    +0.000 OA
ATOM     11  N   UNL     1      -0.954  11.530  21.638  0.00  0.00    +0.000 N 
ATOM     12  C   UNL     1      -0.097  10.536  21.180  0.00  0.00    +0.000 A 
ATOM     13  C   UNL     1       0.535  10.415  19.969  0.00  0.00    +0.000 A 
ATOM     14  C   UNL     1       1.249   9.227  19.754  0.00  0.00    +0.000 A 
ATOM     15 BR   UNL     1       1.697   8.834  17.947  0.00  0.00    +0.000 Br
ATOM     16  H   UNL     1      -1.070   9.388  24.036  0.00  0.00    +0.000 HD
ATOM     17  H   UNL     1      -1.237  12.364  21.155  0.00  0.00    +0.000 HD
ENDBRANCH   3   5
BRANCH   2  18
ATOM     18  C   UNL     1       2.951   4.732  20.488  0.00  0.00    +0.000 C 
BRANCH  18  19
ATOM     19  O   UNL     1       2.736   3.719  19.523  0.00  0.00    +0.000 OA
BRANCH  19  20
ATOM     20  C   UNL     1       3.894   3.157  19.058  0.00  0.00    +0.000 C 
ATOM     21  O   UNL     1       4.313   2.062  19.411  0.00  0.00    +0.000 OA
BRANCH  20  22
ATOM     22  C   UNL     1       4.548   3.995  18.071  0.00  0.00    +0.000 A 
ATOM     23  C   UNL     1       4.193   4.098  16.740  0.00  0.00    +0.000 A 
ATOM     24  N   UNL     1       5.007   5.021  16.144  0.00  0.00    +0.000 N 
ATOM     25  C   UNL     1       5.938   5.484  17.044  0.00  0.00    +0.000 A 
ATOM     26  C   UNL     1       6.974   6.406  16.870  0.00  0.00    +0.000 A 
ATOM     27  C   UNL     1       7.803   6.666  17.965  0.00  0.00    +0.000 A 
ATOM     28  C   UNL     1       7.592   6.036  19.188  0.00  0.00    +0.000 A 
ATOM     29  C   UNL     1       6.533   5.138  19.355  0.00  0.00    +0.000 A 
ATOM     30  C   UNL     1       5.686   4.850  18.263  0.00  0.00    +0.000 A 
ATOM     31  H   UNL     1       4.954   5.307  15.175  0.00  0.00    +0.000 HD
ENDBRANCH  20  22
ENDBRANCH  19  20
ENDBRANCH  18  19
ENDBRANCH   2  18
TORSDOF 5
ENDMDL
MODEL 6
REMARK VINA RESULT:      -7.6      2.846      8.527
REMARK  Name = 
REMARK  5 active torsions:
REMARK  status: ('A' for Active; 'I' for Inactive)
REMARK    1  A    between atoms: C_2  and  C_3
REMARK    2  A    between atoms: C_3  and  O_4
REMARK    3  A    between atoms: O_4  and  C_5
REMARK    4  A    between atoms: C_5  and  C_7
REMARK    5  A    between atoms: N_16  and  C_17
REMARK                            x       y       z     vdW  Elec       q    Type
REMARK                         _______ _______ _______ _____ _____    ______ ____
ROOT
ATOM      1  O   UNL     1       1.859   8.343  18.958  0.00  0.00    +0.000 OA
ATOM      2  C   UNL     1       1.821   7.897  20.086  0.00  0.00    +0.000 C 
ATOM      3  N   UNL     1       2.267   6.632  20.460  0.00  0.00    +0.000 N 
ATOM      4  H   UNL     1       1.983   6.282  21.377  0.00  0.00    +0.000 HD
ENDROOT
BRANCH   3   5
ATOM      5  C   UNL     1       2.944   5.725  19.589  0.00  0.00    +0.000 A 
ATOM      6  C   UNL     1       3.547   6.197  18.411  0.00  0.00    +0.000 A 
ATOM      7  C   UNL     1       4.237   5.305  17.631  0.00  0.00    +0.000 A 
ATOM      8  N   UNL     1       4.843   5.494  16.392  0.00  0.00    +0.000 N 
ATOM      9  C   UNL     1       5.395   4.274  15.979  0.00  0.00    +0.000 A 
ATOM     10  O   UNL     1       5.967   4.051  14.928  0.00  0.00    +0.000 OA
ATOM     11  N   UNL     1       5.142   3.350  17.003  0.00  0.00    +0.000 N 
ATOM     12  C   UNL     1       4.408   3.982  18.001  0.00  0.00    +0.000 A 
ATOM     13  C   UNL     1       3.833   3.457  19.130  0.00  0.00    +0.000 A 
ATOM     14  C   UNL     1       3.043   4.331  19.891  0.00  0.00    +0.000 A 
ATOM     15 BR   UNL     1       1.865   3.518  21.145  0.00  0.00    +0.000 Br
ATOM     16  H   UNL     1       4.843   6.330  15.829  0.00  0.00    +0.000 HD
ATOM     17  H   UNL     1       5.408   2.383  16.959  0.00  0.00    +0.000 HD
ENDBRANCH   3   5
BRANCH   2  18
ATOM     18  C   UNL     1       1.232   8.762  21.212  0.00  0.00    +0.000 C 
BRANCH  18  19
ATOM     19  O   UNL     1      -0.009   9.371  20.906  0.00  0.00    +0.000 OA
BRANCH  19  20
ATOM     20  C   UNL     1       0.080  10.725  20.728  0.00  0.00    +0.000 C 
ATOM     21  O   UNL     1       1.054  11.395  21.047  0.00  0.00    +0.000 OA
BRANCH  20  22
ATOM     22  C   UNL     1      -1.101  11.268  20.084  0.00  0.00    +0.000 A 
ATOM     23  C   UNL     1      -1.930  12.240  20.610  0.00  0.00    +0.000 A 
ATOM     24  N   UNL     1      -2.903  12.522  19.692  0.00  0.00    +0.000 N 
ATOM     25  C   UNL     1      -2.769  11.709  18.592  0.00  0.00    +0.000 A 
ATOM     26  C   UNL     1      -3.546  11.630  17.433  0.00  0.00    +0.000 A 
ATOM     27  C   UNL     1      -3.195  10.670  16.479  0.00  0.00    +0.000 A 
ATOM     28  C   UNL     1      -2.101   9.833  16.676  0.00  0.00    +0.000 A 
ATOM     29  C   UNL     1      -1.316   9.943  17.827  0.00  0.00    +0.000 A 
ATOM     30  C   UNL     1      -1.653  10.898  18.811  0.00  0.00    +0.000 A 
ATOM     31  H   UNL     1      -3.633  13.212  19.809  0.00  0.00    +0.000 HD
ENDBRANCH  20  22
ENDBRANCH  19  20
ENDBRANCH  18  19
ENDBRANCH   2  18
TORSDOF 5
ENDMDL
MODEL 7
REMARK VINA RESULT:      -7.6      3.120      4.207
REMARK  Name = 
REMARK  5 active torsions:
REMARK  status: ('A' for Active; 'I' for Inactive)
REMARK    1  A    between atoms: C_2  and  C_3
REMARK    2  A    between atoms: C_3  and  O_4
REMARK    3  A    between atoms: O_4  and  C_5
REMARK    4  A    between atoms: C_5  and  C_7
REMARK    5  A    between atoms: N_16  and  C_17
REMARK                            x       y       z     vdW  Elec       q    Type
REMARK                         _______ _______ _______ _____ _____    ______ ____
ROOT
ATOM      1  O   UNL     1       2.078  10.185  17.228  0.00  0.00    +0.000 OA
ATOM      2  C   UNL     1       1.861   9.260  17.984  0.00  0.00    +0.000 C 
ATOM      3  N   UNL     1       0.733   9.137  18.791  0.00  0.00    +0.000 N 
ATOM      4  H   UNL     1       0.762   8.444  19.542  0.00  0.00    +0.000 HD
ENDROOT
BRANCH   3   5
ATOM      5  C   UNL     1      -0.387  10.022  18.754  0.00  0.00    +0.000 A 
ATOM      6  C   UNL     1      -1.394   9.844  17.792  0.00  0.00    +0.000 A 
ATOM      7  C   UNL     1      -2.482  10.678  17.825  0.00  0.00    +0.000 A 
ATOM      8  N   UNL     1      -3.559  10.768  16.947  0.00  0.00    +0.000 N 
ATOM      9  C   UNL     1      -4.400  11.800  17.384  0.00  0.00    +0.000 A 
ATOM     10  O   UNL     1      -5.418  12.189  16.841  0.00  0.00    +0.000 OA
ATOM     11  N   UNL     1      -3.833  12.313  18.560  0.00  0.00    +0.000 N 
ATOM     12  C   UNL     1      -2.642  11.639  18.809  0.00  0.00    +0.000 A 
ATOM     13  C   UNL     1      -1.689  11.872  19.767  0.00  0.00    +0.000 A 
ATOM     14  C   UNL     1      -0.525  11.093  19.691  0.00  0.00    +0.000 A 
ATOM     15 BR   UNL     1       0.975  11.730  20.674  0.00  0.00    +0.000 Br
ATOM     16  H   UNL     1      -3.704  10.245  16.098  0.00  0.00    +0.000 HD
ATOM     17  H   UNL     1      -4.219  13.084  19.074  0.00  0.00    +0.000 HD
ENDBRANCH   3   5
BRANCH   2  18
ATOM     18  C   UNL     1       2.892   8.126  18.092  0.00  0.00    +0.000 C 
BRANCH  18  19
ATOM     19  O   UNL     1       2.489   7.029  18.892  0.00  0.00    +0.000 OA
BRANCH  19  20
ATOM     20  C   UNL     1       2.707   5.815  18.298  0.00  0.00    +0.000 C 
ATOM     21  O   UNL     1       1.835   5.156  17.749  0.00  0.00    +0.000 OA
BRANCH  20  22
ATOM     22  C   UNL     1       4.102   5.420  18.366  0.00  0.00    +0.000 A 
ATOM     23  C   UNL     1       4.811   5.165  19.524  0.00  0.00    +0.000 A 
ATOM     24  N   UNL     1       6.075   4.774  19.179  0.00  0.00    +0.000 N 
ATOM     25  C   UNL     1       6.234   4.828  17.815  0.00  0.00    +0.000 A 
ATOM     26  C   UNL     1       7.355   4.543  17.029  0.00  0.00    +0.000 A 
ATOM     27  C   UNL     1       7.241   4.721  15.647  0.00  0.00    +0.000 A 
ATOM     28  C   UNL     1       6.048   5.153  15.077  0.00  0.00    +0.000 A 
ATOM     29  C   UNL     1       4.926   5.405  15.873  0.00  0.00    +0.000 A 
ATOM     30  C   UNL     1       5.016   5.243  17.272  0.00  0.00    +0.000 A 
ATOM     31  H   UNL     1       6.801   4.507  19.831  0.00  0.00    +0.000 HD
ENDBRANCH  20  22
ENDBRANCH  19  20
ENDBRANCH  18  19
ENDBRANCH   2  18
TORSDOF 5
ENDMDL
MODEL 8
REMARK VINA RESULT:      -7.6      2.613      8.691
REMARK  Name = 
REMARK  5 active torsions:
REMARK  status: ('A' for Active; 'I' for Inactive)
REMARK    1  A    between atoms: C_2  and  C_3
REMARK    2  A    between atoms: C_3  and  O_4
REMARK    3  A    between atoms: O_4  and  C_5
REMARK    4  A    between atoms: C_5  and  C_7
REMARK    5  A    between atoms: N_16  and  C_17
REMARK                            x       y       z     vdW  Elec       q    Type
REMARK                         _______ _______ _______ _____ _____    ______ ____
ROOT
ATOM      1  O   UNL     1       1.882   7.566  18.679  0.00  0.00    +0.000 OA
ATOM      2  C   UNL     1       2.317   7.012  19.668  0.00  0.00    +0.000 C 
ATOM      3  N   UNL     1       3.229   5.960  19.657  0.00  0.00    +0.000 N 
ATOM      4  H   UNL     1       3.351   5.430  20.522  0.00  0.00    +0.000 HD
ENDROOT
BRANCH   3   5
ATOM      5  C   UNL     1       3.873   5.462  18.484  0.00  0.00    +0.000 A 
ATOM      6  C   UNL     1       5.010   6.113  17.975  0.00  0.00    +0.000 A 
ATOM      7  C   UNL     1       5.635   5.572  16.881  0.00  0.00    +0.000 A 
ATOM      8  N   UNL     1       6.708   6.059  16.141  0.00  0.00    +0.000 N 
ATOM      9  C   UNL     1       6.964   5.165  15.093  0.00  0.00    +0.000 A 
ATOM     10  O   UNL     1       7.806   5.286  14.221  0.00  0.00    +0.000 OA
ATOM     11  N   UNL     1       6.049   4.111  15.228  0.00  0.00    +0.000 N 
ATOM     12  C   UNL     1       5.218   4.381  16.310  0.00  0.00    +0.000 A 
ATOM     13  C   UNL     1       4.109   3.705  16.752  0.00  0.00    +0.000 A 
ATOM     14  C   UNL     1       3.401   4.294  17.809  0.00  0.00    +0.000 A 
ATOM     15 BR   UNL     1       1.631   3.654  18.091  0.00  0.00    +0.000 Br
ATOM     16  H   UNL     1       7.195   6.933  16.267  0.00  0.00    +0.000 HD
ATOM     17  H   UNL     1       5.992   3.338  14.591  0.00  0.00    +0.000 HD
ENDBRANCH   3   5
BRANCH   2  18
ATOM     18  C   UNL     1       1.840   7.474  21.054  0.00  0.00    +0.000 C 
BRANCH  18  19
ATOM     19  O   UNL     1       0.701   8.315  21.041  0.00  0.00    +0.000 OA
BRANCH  19  20
ATOM     20  C   UNL     1       0.863   9.460  21.773  0.00  0.00    +0.000 C 
ATOM     21  O   UNL     1       1.530   9.529  22.797  0.00  0.00    +0.000 OA
BRANCH  20  22
ATOM     22  C   UNL     1       0.179  10.591  21.172  0.00  0.00    +0.000 A 
ATOM     23  C   UNL     1       0.454  11.130  19.931  0.00  0.00    +0.000 A 
ATOM     24  N   UNL     1      -0.430  12.147  19.696  0.00  0.00    +0.000 N 
ATOM     25  C   UNL     1      -1.243  12.331  20.789  0.00  0.00    +0.000 A 
ATOM     26  C   UNL     1      -2.263  13.263  21.002  0.00  0.00    +0.000 A 
ATOM     27  C   UNL     1      -2.911  13.245  22.241  0.00  0.00    +0.000 A 
ATOM     28  C   UNL     1      -2.558  12.321  23.219  0.00  0.00    +0.000 A 
ATOM     29  C   UNL     1      -1.556  11.375  22.980  0.00  0.00    +0.000 A 
ATOM     30  C   UNL     1      -0.880  11.377  21.742  0.00  0.00    +0.000 A 
ATOM     31  H   UNL     1      -0.467  12.704  18.853  0.00  0.00    +0.000 HD
ENDBRANCH  20  22
ENDBRANCH  19  20
ENDBRANCH  18  19
ENDBRANCH   2  18
TORSDOF 5
ENDMDL
MODEL 9
REMARK VINA RESULT:      -7.5      2.719      8.308
REMARK  Name = 
REMARK  5 active torsions:
REMARK  status: ('A' for Active; 'I' for Inactive)
REMARK    1  A    between atoms: C_2  and  C_3
REMARK    2  A    between atoms: C_3  and  O_4
REMARK    3  A    between atoms: O_4  and  C_5
REMARK    4  A    between atoms: C_5  and  C_7
REMARK    5  A    between atoms: N_16  and  C_17
REMARK                            x       y       z     vdW  Elec       q    Type
REMARK                         _______ _______ _______ _____ _____    ______ ____
ROOT
ATOM      1  O   UNL     1      -0.357   7.787  21.185  0.00  0.00    +0.000 OA
ATOM      2  C   UNL     1       0.686   8.357  21.434  0.00  0.00    +0.000 C 
ATOM      3  N   UNL     1       1.944   7.938  21.011  0.00  0.00    +0.000 N 
ATOM      4  H   UNL     1       2.759   8.360  21.460  0.00  0.00    +0.000 HD
ENDROOT
BRANCH   3   5
ATOM      5  C   UNL     1       2.175   6.844  20.124  0.00  0.00    +0.000 A 
ATOM      6  C   UNL     1       2.411   5.558  20.638  0.00  0.00    +0.000 A 
ATOM      7  C   UNL     1       2.571   4.521  19.754  0.00  0.00    +0.000 A 
ATOM      8  N   UNL     1       2.896   3.190  19.996  0.00  0.00    +0.000 N 
ATOM      9  C   UNL     1       2.978   2.524  18.766  0.00  0.00    +0.000 A 
ATOM     10  O   UNL     1       3.280   1.358  18.587  0.00  0.00    +0.000 OA
ATOM     11  N   UNL     1       2.666   3.466  17.775  0.00  0.00    +0.000 N 
ATOM     12  C   UNL     1       2.444   4.696  18.386  0.00  0.00    +0.000 A 
ATOM     13  C   UNL     1       2.229   5.927  17.821  0.00  0.00    +0.000 A 
ATOM     14  C   UNL     1       2.158   7.014  18.704  0.00  0.00    +0.000 A 
ATOM     15 BR   UNL     1       2.359   8.740  17.927  0.00  0.00    +0.000 Br
ATOM     16  H   UNL     1       3.110   2.762  20.883  0.00  0.00    +0.000 HD
ATOM     17  H   UNL     1       2.673   3.264  16.792  0.00  0.00    +0.000 HD
ENDBRANCH   3   5
BRANCH   2  18
ATOM     18  C   UNL     1       0.653   9.636  22.285  0.00  0.00    +0.000 C 
BRANCH  18  19
ATOM     19  O   UNL     1      -0.539  10.393  22.176  0.00  0.00    +0.000 OA
BRANCH  19  20
ATOM     20  C   UNL     1      -0.370  11.579  21.514  0.00  0.00    +0.000 C 
ATOM     21  O   UNL     1       0.588  12.323  21.677  0.00  0.00    +0.000 OA
BRANCH  20  22
ATOM     22  C   UNL     1      -1.444  11.834  20.572  0.00  0.00    +0.000 A 
ATOM     23  C   UNL     1      -2.493  12.712  20.764  0.00  0.00    +0.000 A 
ATOM     24  N   UNL     1      -3.268  12.713  19.638  0.00  0.00    +0.000 N 
ATOM     25  C   UNL     1      -2.786  11.802  18.728  0.00  0.00    +0.000 A 
ATOM     26  C   UNL     1      -3.271  11.452  17.465  0.00  0.00    +0.000 A 
ATOM     27  C   UNL     1      -2.591  10.453  16.762  0.00  0.00    +0.000 A 
ATOM     28  C   UNL     1      -1.464   9.840  17.301  0.00  0.00    +0.000 A 
ATOM     29  C   UNL     1      -0.973  10.221  18.553  0.00  0.00    +0.000 A 
ATOM     30  C   UNL     1      -1.646  11.221  19.288  0.00  0.00    +0.000 A 
ATOM     31  H   UNL     1      -4.093  13.281  19.499  0.00  0.00    +0.000 HD
ENDBRANCH  20  22
ENDBRANCH  19  20
ENDBRANCH  18  19
ENDBRANCH   2  18
TORSDOF 5
ENDMDL
