MODEL 1
REMARK VINA RESULT:      -8.1      0.000      0.000
REMARK  Name = 
REMARK  4 active torsions:
REMARK  status: ('A' for Active; 'I' for Inactive)
REMARK    1  A    between atoms: C_2  and  C_20
REMARK    2  A    between atoms: N_3  and  C_4
REMARK    3  A    between atoms: C_9  and  N_10
REMARK    4  A    between atoms: C_11  and  C_13
REMARK                            x       y       z     vdW  Elec       q    Type
REMARK                         _______ _______ _______ _____ _____    ______ ____
ROOT
ATOM      1  C   UNL     1       1.379   9.900  18.240  0.00  0.00    +0.000 A 
ATOM      2  C   UNL     1       2.187  11.039  18.194  0.00  0.00    +0.000 A 
ATOM      3  C   UNL     1       1.671  12.294  18.492  0.00  0.00    +0.000 A 
ATOM      4  C   UNL     1       0.329  12.435  18.810  0.00  0.00    +0.000 A 
ATOM      5  F   UNL     1      -0.052  13.646  19.236  0.00  0.00    +0.000 F 
ATOM      6  C   UNL     1      -0.547  11.340  18.772  0.00  0.00    +0.000 A 
ATOM      7  C   UNL     1       0.000  10.062  18.493  0.00  0.00    +0.000 A 
ENDROOT
BRANCH   1  10
ATOM      8  O   UNL     1       1.925   7.897  20.275  0.00  0.00    +0.000 OA
ATOM      9  C   UNL     1       2.174   7.710  19.090  0.00  0.00    +0.000 C 
ATOM     10  N   UNL     1       1.919   8.597  18.050  0.00  0.00    +0.000 N 
ATOM     11  H   UNL     1       1.948   8.236  17.105  0.00  0.00    +0.000 HD
BRANCH   9  12
ATOM     12  C   UNL     1       2.737   6.378  18.750  0.00  0.00    +0.000 A 
ATOM     13  C   UNL     1       3.682   6.336  17.693  0.00  0.00    +0.000 A 
ATOM     14  C   UNL     1       4.184   5.123  17.222  0.00  0.00    +0.000 A 
ATOM     15  C   UNL     1       3.715   3.976  17.815  0.00  0.00    +0.000 A 
ATOM     16  C   UNL     1       2.794   4.009  18.842  0.00  0.00    +0.000 A 
ATOM     17  C   UNL     1       2.285   5.193  19.342  0.00  0.00    +0.000 A 
ATOM     18  O   UNL     1       2.447   2.759  19.254  0.00  0.00    +0.000 OA
ATOM     19  C   UNL     1       3.222   1.942  18.347  0.00  0.00    +0.000 C 
ATOM     20  O   UNL     1       4.061   2.710  17.463  0.00  0.00    +0.000 OA
ENDBRANCH   9  12
ENDBRANCH   1  10
BRANCH   6  21
ATOM     21  N   UNL     1      -1.946  11.428  19.035  0.00  0.00    +0.000 N 
ATOM     22  C   UNL     1      -2.940  11.541  18.069  0.00  0.00    +0.000 C 
ATOM     23  O   UNL     1      -2.780  11.442  16.858  0.00  0.00    +0.000 OA
ATOM     24  H   UNL     1      -2.238  11.230  19.981  0.00  0.00    +0.000 HD
BRANCH  22  25
ATOM     25  C   UNL     1      -4.346  11.695  18.546  0.00  0.00    +0.000 A 
ATOM     26  C   UNL     1      -4.697  12.386  19.705  0.00  0.00    +0.000 A 
ATOM     27  C   UNL     1      -6.047  12.468  20.021  0.00  0.00    +0.000 A 
ATOM     28  N   UNL     1      -7.034  11.928  19.278  0.00  0.00    +0.000 NA
ATOM     29  C   UNL     1      -6.670  11.286  18.150  0.00  0.00    +0.000 A 
ATOM     30  C   UNL     1      -5.356  11.148  17.747  0.00  0.00    +0.000 A 
ENDBRANCH  22  25
ENDBRANCH   6  21
TORSDOF 4
ENDMDL
MODEL 2
REMARK VINA RESULT:      -8.0      7.554     10.024
REMARK  Name = 
REMARK  4 active torsions:
REMARK  status: ('A' for Active; 'I' for Inactive)
REMARK    1  A    between atoms: C_2  and  C_20
REMARK    2  A    between atoms: N_3  and  C_4
REMARK    3  A    between atoms: C_9  and  N_10
REMARK    4  A    between atoms: C_11  and  C_13
REMARK                            x       y       z     vdW  Elec       q    Type
REMARK                         _______ _______ _______ _____ _____    ______ ____
ROOT
ATOM      1  C   UNL     1       6.976   6.998  16.916  0.00  0.00    +0.000 A 
ATOM      2  C   UNL     1       7.516   6.251  15.864  0.00  0.00    +0.000 A 
ATOM      3  C   UNL     1       6.942   5.048  15.475  0.00  0.00    +0.000 A 
ATOM      4  C   UNL     1       5.837   4.555  16.152  0.00  0.00    +0.000 A 
ATOM      5  F   UNL     1       5.252   3.475  15.618  0.00  0.00    +0.000 F 
ATOM      6  C   UNL     1       5.319   5.213  17.278  0.00  0.00    +0.000 A 
ATOM      7  C   UNL     1       5.899   6.453  17.644  0.00  0.00    +0.000 A 
ENDROOT
BRANCH   1  10
ATOM      8  O   UNL     1       8.751   7.685  19.114  0.00  0.00    +0.000 OA
ATOM      9  C   UNL     1       8.309   8.529  18.342  0.00  0.00    +0.000 C 
ATOM     10  N   UNL     1       7.483   8.286  17.250  0.00  0.00    +0.000 N 
ATOM     11  H   UNL     1       7.384   9.020  16.561  0.00  0.00    +0.000 HD
BRANCH   9  12
ATOM     12  C   UNL     1       8.769   9.921  18.574  0.00  0.00    +0.000 A 
ATOM     13  C   UNL     1       8.342  10.899  17.640  0.00  0.00    +0.000 A 
ATOM     14  C   UNL     1       8.808  12.211  17.703  0.00  0.00    +0.000 A 
ATOM     15  C   UNL     1       9.708  12.511  18.698  0.00  0.00    +0.000 A 
ATOM     16  C   UNL     1      10.130  11.565  19.610  0.00  0.00    +0.000 A 
ATOM     17  C   UNL     1       9.678  10.258  19.584  0.00  0.00    +0.000 A 
ATOM     18  O   UNL     1      11.044  12.072  20.482  0.00  0.00    +0.000 OA
ATOM     19  C   UNL     1      11.174  13.426  19.992  0.00  0.00    +0.000 C 
ATOM     20  O   UNL     1      10.295  13.721  18.889  0.00  0.00    +0.000 OA
ENDBRANCH   9  12
ENDBRANCH   1  10
BRANCH   6  21
ATOM     21  N   UNL     1       4.222   4.730  18.049  0.00  0.00    +0.000 N 
ATOM     22  C   UNL     1       4.313   3.813  19.090  0.00  0.00    +0.000 C 
ATOM     23  O   UNL     1       5.351   3.392  19.590  0.00  0.00    +0.000 OA
ATOM     24  H   UNL     1       3.344   5.214  17.933  0.00  0.00    +0.000 HD
BRANCH  22  25
ATOM     25  C   UNL     1       3.039   3.373  19.731  0.00  0.00    +0.000 A 
ATOM     26  C   UNL     1       2.932   3.015  21.074  0.00  0.00    +0.000 A 
ATOM     27  C   UNL     1       1.680   2.642  21.544  0.00  0.00    +0.000 A 
ATOM     28  N   UNL     1       0.565   2.612  20.787  0.00  0.00    +0.000 NA
ATOM     29  C   UNL     1       0.688   2.986  19.498  0.00  0.00    +0.000 A 
ATOM     30  C   UNL     1       1.888   3.372  18.933  0.00  0.00    +0.000 A 
ENDBRANCH  22  25
ENDBRANCH   6  21
TORSDOF 4
ENDMDL
MODEL 3
REMARK VINA RESULT:      -8.0      1.529      1.700
REMARK  Name = 
REMARK  4 active torsions:
REMARK  status: ('A' for Active; 'I' for Inactive)
REMARK    1  A    between atoms: C_2  and  C_20
REMARK    2  A    between atoms: N_3  and  C_4
REMARK    3  A    between atoms: C_9  and  N_10
REMARK    4  A    between atoms: C_11  and  C_13
REMARK                            x       y       z     vdW  Elec       q    Type
REMARK                         _______ _______ _______ _____ _____    ______ ____
ROOT
ATOM      1  C   UNL     1       0.772  10.516  18.957  0.00  0.00    +0.000 A 
ATOM      2  C   UNL     1       1.615  11.618  18.786  0.00  0.00    +0.000 A 
ATOM      3  C   UNL     1       1.096  12.894  18.607  0.00  0.00    +0.000 A 
ATOM      4  C   UNL     1      -0.277  13.084  18.562  0.00  0.00    +0.000 A 
ATOM      5  F   UNL     1      -0.696  14.356  18.545  0.00  0.00    +0.000 F 
ATOM      6  C   UNL     1      -1.165  12.000  18.626  0.00  0.00    +0.000 A 
ATOM      7  C   UNL     1      -0.620  10.709  18.837  0.00  0.00    +0.000 A 
ENDROOT
BRANCH   1  10
ATOM      8  O   UNL     1       2.388   8.815  17.240  0.00  0.00    +0.000 OA
ATOM      9  C   UNL     1       2.034   8.465  18.359  0.00  0.00    +0.000 C 
ATOM     10  N   UNL     1       1.289   9.224  19.256  0.00  0.00    +0.000 N 
ATOM     11  H   UNL     1       1.266   8.923  20.221  0.00  0.00    +0.000 HD
BRANCH   9  12
ATOM     12  C   UNL     1       2.514   7.132  18.802  0.00  0.00    +0.000 A 
ATOM     13  C   UNL     1       3.363   6.431  17.908  0.00  0.00    +0.000 A 
ATOM     14  C   UNL     1       3.777   5.127  18.179  0.00  0.00    +0.000 A 
ATOM     15  C   UNL     1       3.316   4.549  19.337  0.00  0.00    +0.000 A 
ATOM     16  C   UNL     1       2.489   5.224  20.211  0.00  0.00    +0.000 A 
ATOM     17  C   UNL     1       2.070   6.522  19.980  0.00  0.00    +0.000 A 
ATOM     18  O   UNL     1       2.130   4.451  21.272  0.00  0.00    +0.000 OA
ATOM     19  C   UNL     1       2.793   3.208  20.947  0.00  0.00    +0.000 C 
ATOM     20  O   UNL     1       3.582   3.280  19.744  0.00  0.00    +0.000 OA
ENDBRANCH   9  12
ENDBRANCH   1  10
BRANCH   6  21
ATOM     21  N   UNL     1      -2.582  12.123  18.531  0.00  0.00    +0.000 N 
ATOM     22  C   UNL     1      -3.444  12.332  19.602  0.00  0.00    +0.000 C 
ATOM     23  O   UNL     1      -3.112  12.578  20.756  0.00  0.00    +0.000 OA
ATOM     24  H   UNL     1      -2.963  12.229  17.602  0.00  0.00    +0.000 HD
BRANCH  22  25
ATOM     25  C   UNL     1      -4.908  12.362  19.309  0.00  0.00    +0.000 A 
ATOM     26  C   UNL     1      -5.883  12.628  20.269  0.00  0.00    +0.000 A 
ATOM     27  C   UNL     1      -7.208  12.642  19.855  0.00  0.00    +0.000 A 
ATOM     28  N   UNL     1      -7.607  12.422  18.586  0.00  0.00    +0.000 NA
ATOM     29  C   UNL     1      -6.645  12.191  17.672  0.00  0.00    +0.000 A 
ATOM     30  C   UNL     1      -5.300  12.154  17.981  0.00  0.00    +0.000 A 
ENDBRANCH  22  25
ENDBRANCH   6  21
TORSDOF 4
ENDMDL
MODEL 4
REMARK VINA RESULT:      -8.0      7.366      9.940
REMARK  Name = 
REMARK  4 active torsions:
REMARK  status: ('A' for Active; 'I' for Inactive)
REMARK    1  A    between atoms: C_2  and  C_20
REMARK    2  A    between atoms: N_3  and  C_4
REMARK    3  A    between atoms: C_9  and  N_10
REMARK    4  A    between atoms: C_11  and  C_13
REMARK                            x       y       z     vdW  Elec       q    Type
REMARK                         _______ _______ _______ _____ _____    ______ ____
ROOT
ATOM      1  C   UNL     1       7.061   6.613  16.808  0.00  0.00    +0.000 A 
ATOM      2  C   UNL     1       7.446   5.923  15.655  0.00  0.00    +0.000 A 
ATOM      3  C   UNL     1       6.911   4.677  15.356  0.00  0.00    +0.000 A 
ATOM      4  C   UNL     1       6.006   4.084  16.223  0.00  0.00    +0.000 A 
ATOM      5  F   UNL     1       5.421   2.961  15.787  0.00  0.00    +0.000 F 
ATOM      6  C   UNL     1       5.664   4.688  17.443  0.00  0.00    +0.000 A 
ATOM      7  C   UNL     1       6.196   5.972  17.719  0.00  0.00    +0.000 A 
ENDROOT
BRANCH   1  10
ATOM      8  O   UNL     1       8.659   7.529  19.057  0.00  0.00    +0.000 OA
ATOM      9  C   UNL     1       8.253   8.294  18.189  0.00  0.00    +0.000 C 
ATOM     10  N   UNL     1       7.513   7.938  17.068  0.00  0.00    +0.000 N 
ATOM     11  H   UNL     1       7.445   8.611  16.315  0.00  0.00    +0.000 HD
BRANCH   9  12
ATOM     12  C   UNL     1       8.662   9.713  18.336  0.00  0.00    +0.000 A 
ATOM     13  C   UNL     1       9.536  10.018  19.410  0.00  0.00    +0.000 A 
ATOM     14  C   UNL     1       9.890  11.335  19.703  0.00  0.00    +0.000 A 
ATOM     15  C   UNL     1       9.344  12.322  18.917  0.00  0.00    +0.000 A 
ATOM     16  C   UNL     1       8.491  12.033  17.871  0.00  0.00    +0.000 A 
ATOM     17  C   UNL     1       8.130  10.738  17.545  0.00  0.00    +0.000 A 
ATOM     18  O   UNL     1       8.046  13.161  17.252  0.00  0.00    +0.000 OA
ATOM     19  C   UNL     1       8.684  14.185  18.049  0.00  0.00    +0.000 C 
ATOM     20  O   UNL     1       9.543  13.655  19.077  0.00  0.00    +0.000 OA
ENDBRANCH   9  12
ENDBRANCH   1  10
BRANCH   6  21
ATOM     21  N   UNL     1       4.782   4.105  18.400  0.00  0.00    +0.000 N 
ATOM     22  C   UNL     1       3.423   4.378  18.512  0.00  0.00    +0.000 C 
ATOM     23  O   UNL     1       2.756   5.043  17.727  0.00  0.00    +0.000 OA
ATOM     24  H   UNL     1       5.143   3.321  18.924  0.00  0.00    +0.000 HD
BRANCH  22  25
ATOM     25  C   UNL     1       2.681   3.721  19.628  0.00  0.00    +0.000 A 
ATOM     26  C   UNL     1       1.293   3.743  19.751  0.00  0.00    +0.000 A 
ATOM     27  C   UNL     1       0.731   3.074  20.831  0.00  0.00    +0.000 A 
ATOM     28  N   UNL     1       1.442   2.404  21.760  0.00  0.00    +0.000 NA
ATOM     29  C   UNL     1       2.781   2.377  21.606  0.00  0.00    +0.000 A 
ATOM     30  C   UNL     1       3.436   3.011  20.568  0.00  0.00    +0.000 A 
ENDBRANCH  22  25
ENDBRANCH   6  21
TORSDOF 4
ENDMDL
MODEL 5
REMARK VINA RESULT:      -8.0      4.551     10.181
REMARK  Name = 
REMARK  4 active torsions:
REMARK  status: ('A' for Active; 'I' for Inactive)
REMARK    1  A    between atoms: C_2  and  C_20
REMARK    2  A    between atoms: N_3  and  C_4
REMARK    3  A    between atoms: C_9  and  N_10
REMARK    4  A    between atoms: C_11  and  C_13
REMARK                            x       y       z     vdW  Elec       q    Type
REMARK                         _______ _______ _______ _____ _____    ______ ____
ROOT
ATOM      1  C   UNL     1       1.978   5.317  20.603  0.00  0.00    +0.000 A 
ATOM      2  C   UNL     1       1.834   4.112  21.295  0.00  0.00    +0.000 A 
ATOM      3  C   UNL     1       2.453   2.952  20.848  0.00  0.00    +0.000 A 
ATOM      4  C   UNL     1       3.202   2.971  19.681  0.00  0.00    +0.000 A 
ATOM      5  F   UNL     1       3.891   1.857  19.404  0.00  0.00    +0.000 F 
ATOM      6  C   UNL     1       3.294   4.129  18.894  0.00  0.00    +0.000 A 
ATOM      7  C   UNL     1       2.680   5.311  19.379  0.00  0.00    +0.000 A 
ENDROOT
BRANCH   1  10
ATOM      8  O   UNL     1       2.162   7.962  19.411  0.00  0.00    +0.000 OA
ATOM      9  C   UNL     1       1.606   7.767  20.485  0.00  0.00    +0.000 C 
ATOM     10  N   UNL     1       1.446   6.536  21.111  0.00  0.00    +0.000 N 
ATOM     11  H   UNL     1       0.772   6.473  21.863  0.00  0.00    +0.000 HD
BRANCH   9  12
ATOM     12  C   UNL     1       0.995   8.960  21.124  0.00  0.00    +0.000 A 
ATOM     13  C   UNL     1       0.599   8.826  22.479  0.00  0.00    +0.000 A 
ATOM     14  C   UNL     1      -0.085   9.848  23.136  0.00  0.00    +0.000 A 
ATOM     15  C   UNL     1      -0.371  10.980  22.411  0.00  0.00    +0.000 A 
ATOM     16  C   UNL     1       0.009  11.117  21.092  0.00  0.00    +0.000 A 
ATOM     17  C   UNL     1       0.700  10.129  20.413  0.00  0.00    +0.000 A 
ATOM     18  O   UNL     1      -0.406  12.301  20.563  0.00  0.00    +0.000 OA
ATOM     19  C   UNL     1      -1.119  12.871  21.685  0.00  0.00    +0.000 C 
ATOM     20  O   UNL     1      -1.060  12.057  22.871  0.00  0.00    +0.000 OA
ENDBRANCH   9  12
ENDBRANCH   1  10
BRANCH   6  21
ATOM     21  N   UNL     1       4.002   4.198  17.658  0.00  0.00    +0.000 N 
ATOM     22  C   UNL     1       5.373   4.385  17.527  0.00  0.00    +0.000 C 
ATOM     23  O   UNL     1       6.191   4.379  18.440  0.00  0.00    +0.000 OA
ATOM     24  H   UNL     1       3.489   3.929  16.832  0.00  0.00    +0.000 HD
BRANCH  22  25
ATOM     25  C   UNL     1       5.921   4.504  16.143  0.00  0.00    +0.000 A 
ATOM     26  C   UNL     1       7.125   5.137  15.840  0.00  0.00    +0.000 A 
ATOM     27  C   UNL     1       7.524   5.159  14.510  0.00  0.00    +0.000 A 
ATOM     28  N   UNL     1       6.826   4.602  13.500  0.00  0.00    +0.000 NA
ATOM     29  C   UNL     1       5.677   3.974  13.822  0.00  0.00    +0.000 A 
ATOM     30  C   UNL     1       5.192   3.899  15.112  0.00  0.00    +0.000 A 
ENDBRANCH  22  25
ENDBRANCH   6  21
TORSDOF 4
ENDMDL
MODEL 6
REMARK VINA RESULT:      -7.9      1.038      1.899
REMARK  Name = 
REMARK  4 active torsions:
REMARK  status: ('A' for Active; 'I' for Inactive)
REMARK    1  A    between atoms: C_2  and  C_20
REMARK    2  A    between atoms: N_3  and  C_4
REMARK    3  A    between atoms: C_9  and  N_10
REMARK    4  A    between atoms: C_11  and  C_13
REMARK                            x       y       z     vdW  Elec       q    Type
REMARK                         _______ _______ _______ _____ _____    ______ ____
ROOT
ATOM      1  C   UNL     1       1.329  10.334  18.199  0.00  0.00    +0.000 A 
ATOM      2  C   UNL     1       2.066  11.496  18.442  0.00  0.00    +0.000 A 
ATOM      3  C   UNL     1       1.465  12.624  18.986  0.00  0.00    +0.000 A 
ATOM      4  C   UNL     1       0.106  12.620  19.264  0.00  0.00    +0.000 A 
ATOM      5  F   UNL     1      -0.363  13.684  19.929  0.00  0.00    +0.000 F 
ATOM      6  C   UNL     1      -0.699  11.516  18.945  0.00  0.00    +0.000 A 
ATOM      7  C   UNL     1      -0.064  10.364  18.418  0.00  0.00    +0.000 A 
ENDROOT
BRANCH   1  10
ATOM      8  O   UNL     1       1.980   7.982  19.778  0.00  0.00    +0.000 OA
ATOM      9  C   UNL     1       2.255   8.066  18.586  0.00  0.00    +0.000 C 
ATOM     10  N   UNL     1       1.954   9.136  17.751  0.00  0.00    +0.000 N 
ATOM     11  H   UNL     1       2.018   8.987  16.753  0.00  0.00    +0.000 HD
BRANCH   9  12
ATOM     12  C   UNL     1       2.907   6.874  17.988  0.00  0.00    +0.000 A 
ATOM     13  C   UNL     1       2.284   5.621  18.222  0.00  0.00    +0.000 A 
ATOM     14  C   UNL     1       2.876   4.431  17.801  0.00  0.00    +0.000 A 
ATOM     15  C   UNL     1       4.090   4.524  17.164  0.00  0.00    +0.000 A 
ATOM     16  C   UNL     1       4.703   5.738  16.933  0.00  0.00    +0.000 A 
ATOM     17  C   UNL     1       4.138   6.938  17.326  0.00  0.00    +0.000 A 
ATOM     18  O   UNL     1       5.909   5.591  16.320  0.00  0.00    +0.000 OA
ATOM     19  C   UNL     1       6.000   4.152  16.227  0.00  0.00    +0.000 C 
ATOM     20  O   UNL     1       4.828   3.473  16.720  0.00  0.00    +0.000 OA
ENDBRANCH   9  12
ENDBRANCH   1  10
BRANCH   6  21
ATOM     21  N   UNL     1      -2.108  11.470  19.156  0.00  0.00    +0.000 N 
ATOM     22  C   UNL     1      -3.073  11.569  18.161  0.00  0.00    +0.000 C 
ATOM     23  O   UNL     1      -2.864  11.570  16.952  0.00  0.00    +0.000 OA
ATOM     24  H   UNL     1      -2.416  11.182  20.073  0.00  0.00    +0.000 HD
BRANCH  22  25
ATOM     25  C   UNL     1      -4.503  11.573  18.589  0.00  0.00    +0.000 A 
ATOM     26  C   UNL     1      -5.504  10.843  17.948  0.00  0.00    +0.000 A 
ATOM     27  C   UNL     1      -6.790  10.924  18.465  0.00  0.00    +0.000 A 
ATOM     28  N   UNL     1      -7.129  11.655  19.545  0.00  0.00    +0.000 NA
ATOM     29  C   UNL     1      -6.140  12.333  20.161  0.00  0.00    +0.000 A 
ATOM     30  C   UNL     1      -4.829  12.320  19.727  0.00  0.00    +0.000 A 
ENDBRANCH  22  25
ENDBRANCH   6  21
TORSDOF 4
ENDMDL
MODEL 7
REMARK VINA RESULT:      -7.9      4.595     10.107
REMARK  Name = 
REMARK  4 active torsions:
REMARK  status: ('A' for Active; 'I' for Inactive)
REMARK    1  A    between atoms: C_2  and  C_20
REMARK    2  A    between atoms: N_3  and  C_4
REMARK    3  A    between atoms: C_9  and  N_10
REMARK    4  A    between atoms: C_11  and  C_13
REMARK                            x       y       z     vdW  Elec       q    Type
REMARK                         _______ _______ _______ _____ _____    ______ ____
ROOT
ATOM      1  C   UNL     1       2.129   5.109  20.482  0.00  0.00    +0.000 A 
ATOM      2  C   UNL     1       2.189   4.037  21.378  0.00  0.00    +0.000 A 
ATOM      3  C   UNL     1       2.983   2.929  21.113  0.00  0.00    +0.000 A 
ATOM      4  C   UNL     1       3.706   2.859  19.931  0.00  0.00    +0.000 A 
ATOM      5  F   UNL     1       4.563   1.836  19.825  0.00  0.00    +0.000 F 
ATOM      6  C   UNL     1       3.601   3.860  18.954  0.00  0.00    +0.000 A 
ATOM      7  C   UNL     1       2.809   4.997  19.252  0.00  0.00    +0.000 A 
ENDROOT
BRANCH   1  10
ATOM      8  O   UNL     1       2.500   7.752  19.328  0.00  0.00    +0.000 OA
ATOM      9  C   UNL     1       1.676   7.533  20.209  0.00  0.00    +0.000 C 
ATOM     10  N   UNL     1       1.412   6.299  20.794  0.00  0.00    +0.000 N 
ATOM     11  H   UNL     1       0.558   6.204  21.328  0.00  0.00    +0.000 HD
BRANCH   9  12
ATOM     12  C   UNL     1       0.849   8.694  20.624  0.00  0.00    +0.000 A 
ATOM     13  C   UNL     1       0.626   9.700  19.649  0.00  0.00    +0.000 A 
ATOM     14  C   UNL     1      -0.040  10.882  19.970  0.00  0.00    +0.000 A 
ATOM     15  C   UNL     1      -0.457  11.035  21.271  0.00  0.00    +0.000 A 
ATOM     16  C   UNL     1      -0.242  10.062  22.225  0.00  0.00    +0.000 A 
ATOM     17  C   UNL     1       0.403   8.873  21.939  0.00  0.00    +0.000 A 
ATOM     18  O   UNL     1      -0.707  10.439  23.448  0.00  0.00    +0.000 OA
ATOM     19  C   UNL     1      -1.201  11.767  23.160  0.00  0.00    +0.000 C 
ATOM     20  O   UNL     1      -1.085  12.130  21.771  0.00  0.00    +0.000 OA
ENDBRANCH   9  12
ENDBRANCH   1  10
BRANCH   6  21
ATOM     21  N   UNL     1       4.274   3.820  17.698  0.00  0.00    +0.000 N 
ATOM     22  C   UNL     1       5.290   4.683  17.303  0.00  0.00    +0.000 C 
ATOM     23  O   UNL     1       5.851   5.509  18.016  0.00  0.00    +0.000 OA
ATOM     24  H   UNL     1       4.109   3.006  17.125  0.00  0.00    +0.000 HD
BRANCH  22  25
ATOM     25  C   UNL     1       5.822   4.529  15.917  0.00  0.00    +0.000 A 
ATOM     26  C   UNL     1       5.148   3.853  14.901  0.00  0.00    +0.000 A 
ATOM     27  C   UNL     1       5.752   3.801  13.652  0.00  0.00    +0.000 A 
ATOM     28  N   UNL     1       6.940   4.367  13.360  0.00  0.00    +0.000 NA
ATOM     29  C   UNL     1       7.561   5.035  14.352  0.00  0.00    +0.000 A 
ATOM     30  C   UNL     1       7.047   5.144  15.629  0.00  0.00    +0.000 A 
ENDBRANCH  22  25
ENDBRANCH   6  21
TORSDOF 4
ENDMDL
MODEL 8
REMARK VINA RESULT:      -7.9      7.363      9.838
REMARK  Name = 
REMARK  4 active torsions:
REMARK  status: ('A' for Active; 'I' for Inactive)
REMARK    1  A    between atoms: C_2  and  C_20
REMARK    2  A    between atoms: N_3  and  C_4
REMARK    3  A    between atoms: C_9  and  N_10
REMARK    4  A    between atoms: C_11  and  C_13
REMARK                            x       y       z     vdW  Elec       q    Type
REMARK                         _______ _______ _______ _____ _____    ______ ____
ROOT
ATOM      1  C   UNL     1       7.062   6.800  16.867  0.00  0.00    +0.000 A 
ATOM      2  C   UNL     1       7.538   6.136  15.733  0.00  0.00    +0.000 A 
ATOM      3  C   UNL     1       7.016   4.906  15.353  0.00  0.00    +0.000 A 
ATOM      4  C   UNL     1       6.029   4.305  16.120  0.00  0.00    +0.000 A 
ATOM      5  F   UNL     1       5.470   3.203  15.603  0.00  0.00    +0.000 F 
ATOM      6  C   UNL     1       5.588   4.881  17.321  0.00  0.00    +0.000 A 
ATOM      7  C   UNL     1       6.111   6.148  17.679  0.00  0.00    +0.000 A 
ENDROOT
BRANCH   1  10
ATOM      8  O   UNL     1       8.740   7.580  19.109  0.00  0.00    +0.000 OA
ATOM      9  C   UNL     1       8.288   8.397  18.316  0.00  0.00    +0.000 C 
ATOM     10  N   UNL     1       7.506   8.111  17.202  0.00  0.00    +0.000 N 
ATOM     11  H   UNL     1       7.398   8.834  16.504  0.00  0.00    +0.000 HD
BRANCH   9  12
ATOM     12  C   UNL     1       8.684   9.809  18.547  0.00  0.00    +0.000 A 
ATOM     13  C   UNL     1       8.215  10.765  17.610  0.00  0.00    +0.000 A 
ATOM     14  C   UNL     1       8.621  12.097  17.673  0.00  0.00    +0.000 A 
ATOM     15  C   UNL     1       9.505  12.439  18.669  0.00  0.00    +0.000 A 
ATOM     16  C   UNL     1       9.968  11.515  19.582  0.00  0.00    +0.000 A 
ATOM     17  C   UNL     1       9.575  10.188  19.558  0.00  0.00    +0.000 A 
ATOM     18  O   UNL     1      10.856  12.063  20.456  0.00  0.00    +0.000 OA
ATOM     19  C   UNL     1      10.926  13.421  19.964  0.00  0.00    +0.000 C 
ATOM     20  O   UNL     1      10.037  13.674  18.859  0.00  0.00    +0.000 OA
ENDBRANCH   9  12
ENDBRANCH   1  10
BRANCH   6  21
ATOM     21  N   UNL     1       4.618   4.287  18.180  0.00  0.00    +0.000 N 
ATOM     22  C   UNL     1       3.322   4.753  18.373  0.00  0.00    +0.000 C 
ATOM     23  O   UNL     1       2.778   5.650  17.738  0.00  0.00    +0.000 OA
ATOM     24  H   UNL     1       4.841   3.372  18.545  0.00  0.00    +0.000 HD
BRANCH  22  25
ATOM     25  C   UNL     1       2.476   4.036  19.372  0.00  0.00    +0.000 A 
ATOM     26  C   UNL     1       1.386   3.237  19.030  0.00  0.00    +0.000 A 
ATOM     27  C   UNL     1       0.696   2.612  20.060  0.00  0.00    +0.000 A 
ATOM     28  N   UNL     1       1.018   2.725  21.365  0.00  0.00    +0.000 NA
ATOM     29  C   UNL     1       2.091   3.483  21.668  0.00  0.00    +0.000 A 
ATOM     30  C   UNL     1       2.842   4.147  20.718  0.00  0.00    +0.000 A 
ENDBRANCH  22  25
ENDBRANCH   6  21
TORSDOF 4
ENDMDL
MODEL 9
REMARK VINA RESULT:      -7.8      1.157      1.465
REMARK  Name = 
REMARK  4 active torsions:
REMARK  status: ('A' for Active; 'I' for Inactive)
REMARK    1  A    between atoms: C_2  and  C_20
REMARK    2  A    between atoms: N_3  and  C_4
REMARK    3  A    between atoms: C_9  and  N_10
REMARK    4  A    between atoms: C_11  and  C_13
REMARK                            x       y       z     vdW  Elec       q    Type
REMARK                         _______ _______ _______ _____ _____    ______ ____
ROOT
ATOM      1  C   UNL     1       0.986  10.250  19.079  0.00  0.00    +0.000 A 
ATOM      2  C   UNL     1       1.742  11.377  18.746  0.00  0.00    +0.000 A 
ATOM      3  C   UNL     1       1.150  12.629  18.640  0.00  0.00    +0.000 A 
ATOM      4  C   UNL     1      -0.216  12.770  18.835  0.00  0.00    +0.000 A 
ATOM      5  F   UNL     1      -0.680  14.026  18.870  0.00  0.00    +0.000 F 
ATOM      6  C   UNL     1      -1.036  11.657  19.070  0.00  0.00    +0.000 A 
ATOM      7  C   UNL     1      -0.412  10.391  19.203  0.00  0.00    +0.000 A 
ENDROOT
BRANCH   1  10
ATOM      8  O   UNL     1       2.349   8.574  17.134  0.00  0.00    +0.000 OA
ATOM      9  C   UNL     1       2.206   8.235  18.303  0.00  0.00    +0.000 C 
ATOM     10  N   UNL     1       1.596   8.984  19.304  0.00  0.00    +0.000 N 
ATOM     11  H   UNL     1       1.751   8.703  20.263  0.00  0.00    +0.000 HD
BRANCH   9  12
ATOM     12  C   UNL     1       2.807   6.930  18.676  0.00  0.00    +0.000 A 
ATOM     13  C   UNL     1       3.866   6.458  17.858  0.00  0.00    +0.000 A 
ATOM     14  C   UNL     1       4.422   5.195  18.054  0.00  0.00    +0.000 A 
ATOM     15  C   UNL     1       3.891   4.423  19.060  0.00  0.00    +0.000 A 
ATOM     16  C   UNL     1       2.860   4.874  19.859  0.00  0.00    +0.000 A 
ATOM     17  C   UNL     1       2.294   6.126  19.701  0.00  0.00    +0.000 A 
ATOM     18  O   UNL     1       2.472   3.936  20.765  0.00  0.00    +0.000 OA
ATOM     19  C   UNL     1       3.347   2.838  20.421  0.00  0.00    +0.000 C 
ATOM     20  O   UNL     1       4.279   3.159  19.370  0.00  0.00    +0.000 OA
ENDBRANCH   9  12
ENDBRANCH   1  10
BRANCH   6  21
ATOM     21  N   UNL     1      -2.451  11.728  19.224  0.00  0.00    +0.000 N 
ATOM     22  C   UNL     1      -3.376  11.675  18.188  0.00  0.00    +0.000 C 
ATOM     23  O   UNL     1      -3.128  11.421  17.014  0.00  0.00    +0.000 OA
ATOM     24  H   UNL     1      -2.805  11.648  20.166  0.00  0.00    +0.000 HD
BRANCH  22  25
ATOM     25  C   UNL     1      -4.816  11.839  18.543  0.00  0.00    +0.000 A 
ATOM     26  C   UNL     1      -5.867  11.501  17.691  0.00  0.00    +0.000 A 
ATOM     27  C   UNL     1      -7.161  11.690  18.158  0.00  0.00    +0.000 A 
ATOM     28  N   UNL     1      -7.463  12.171  19.380  0.00  0.00    +0.000 NA
ATOM     29  C   UNL     1      -6.431  12.468  20.195  0.00  0.00    +0.000 A 
ATOM     30  C   UNL     1      -5.108  12.319  19.826  0.00  0.00    +0.000 A 
ENDBRANCH  22  25
ENDBRANCH   6  21
TORSDOF 4
ENDMDL
