MODEL 1
REMARK VINA RESULT:      -9.0      0.000      0.000
REMARK  Name = 
REMARK  4 active torsions:
REMARK  status: ('A' for Active; 'I' for Inactive)
REMARK    1  A    between atoms: C_1  and  N_2
REMARK    2  A    between atoms: C_4  and  C_5
REMARK    3  A    between atoms: C_5  and  C_6
REMARK    4  A    between atoms: C_10  and  N_11
REMARK                            x       y       z     vdW  Elec       q    Type
REMARK                         _______ _______ _______ _____ _____    ______ ____
ROOT
ATOM      1  C   UNL     1       4.999   6.142  17.929  0.00  0.00    +0.000 A 
ATOM      2  C   UNL     1       4.575   7.320  17.281  0.00  0.00    +0.000 A 
ATOM      3  C   UNL     1       3.272   7.799  17.396  0.00  0.00    +0.000 A 
ATOM      4  C   UNL     1       2.324   7.057  18.079  0.00  0.00    +0.000 A 
ATOM      5  C   UNL     1       2.651   5.759  18.486  0.00  0.00    +0.000 A 
ATOM      6  C   UNL     1       3.997   5.396  18.579  0.00  0.00    +0.000 A 
ENDROOT
BRANCH   5   7
ATOM      7  N   UNL     1       1.689   4.682  18.265  0.00  0.00    +0.000 N 
ATOM      8  C   UNL     1       1.123   4.233  19.569  0.00  0.00    +0.000 C 
ATOM      9  C   UNL     1       2.075   3.145  19.945  0.00  0.00    +0.000 A 
ATOM     10  C   UNL     1       2.656   2.879  21.166  0.00  0.00    +0.000 A 
ATOM     11  F   UNL     1       2.246   3.523  22.266  0.00  0.00    +0.000 F 
ATOM     12  C   UNL     1       3.781   2.058  21.218  0.00  0.00    +0.000 A 
ATOM     13  C   UNL     1       4.286   1.501  20.038  0.00  0.00    +0.000 A 
ATOM     14  F   UNL     1       5.417   0.789  20.092  0.00  0.00    +0.000 F 
ATOM     15  C   UNL     1       3.710   1.757  18.797  0.00  0.00    +0.000 A 
ATOM     16  C   UNL     1       2.617   2.602  18.782  0.00  0.00    +0.000 A 
ATOM     17  C   UNL     1       2.223   3.509  17.664  0.00  0.00    +0.000 C 
ATOM     18  O   UNL     1       2.538   3.314  16.501  0.00  0.00    +0.000 OA
ENDBRANCH   5   7
BRANCH   1  19
ATOM     19  C   UNL     1       6.522   5.654  17.847  0.00  0.00    +0.000 C 
ATOM     20  C   UNL     1       7.619   6.609  18.395  0.00  0.00    +0.000 C 
ATOM     21  O   UNL     1       7.756   5.837  19.608  0.00  0.00    +0.000 OA
ATOM     22  C   UNL     1       7.032   4.741  19.001  0.00  0.00    +0.000 C 
BRANCH  19  26
ATOM     23  C   UNL     1       5.216   4.328  13.785  0.00  0.00    +0.000 C 
ATOM     24  N   UNL     1       6.463   3.958  14.468  0.00  0.00    +0.000 NA
ATOM     25  C   UNL     1       6.237   3.811  15.906  0.00  0.00    +0.000 C 
ATOM     26  C   UNL     1       6.761   5.117  16.406  0.00  0.00    +0.000 C 
ATOM     27  N   UNL     1       7.467   5.756  15.527  0.00  0.00    +0.000 NA
ATOM     28  N   UNL     1       7.350   5.096  14.353  0.00  0.00    +0.000 N 
ATOM     29  H   UNL     1       8.257   4.878  13.927  0.00  0.00    +0.000 HD
ENDBRANCH  19  26
ENDBRANCH   1  19
TORSDOF 3
ENDMDL
MODEL 2
REMARK VINA RESULT:      -8.3      4.415      6.711
REMARK  Name = 
REMARK  4 active torsions:
REMARK  status: ('A' for Active; 'I' for Inactive)
REMARK    1  A    between atoms: C_1  and  N_2
REMARK    2  A    between atoms: C_4  and  C_5
REMARK    3  A    between atoms: C_5  and  C_6
REMARK    4  A    between atoms: C_10  and  N_11
REMARK                            x       y       z     vdW  Elec       q    Type
REMARK                         _______ _______ _______ _____ _____    ______ ____
ROOT
ATOM      1  C   UNL     1       1.391   9.215  19.049  0.00  0.00    +0.000 A 
ATOM      2  C   UNL     1       2.187   9.596  17.949  0.00  0.00    +0.000 A 
ATOM      3  C   UNL     1       2.966   8.679  17.247  0.00  0.00    +0.000 A 
ATOM      4  C   UNL     1       3.054   7.371  17.690  0.00  0.00    +0.000 A 
ATOM      5  C   UNL     1       2.502   7.042  18.932  0.00  0.00    +0.000 A 
ATOM      6  C   UNL     1       1.540   7.886  19.491  0.00  0.00    +0.000 A 
ENDROOT
BRANCH   5   7
ATOM      7  N   UNL     1       3.273   6.214  19.856  0.00  0.00    +0.000 N 
ATOM      8  C   UNL     1       4.258   5.393  19.097  0.00  0.00    +0.000 C 
ATOM      9  C   UNL     1       3.469   4.153  18.833  0.00  0.00    +0.000 A 
ATOM     10  C   UNL     1       3.365   3.416  17.673  0.00  0.00    +0.000 A 
ATOM     11  F   UNL     1       4.173   3.668  16.636  0.00  0.00    +0.000 F 
ATOM     12  C   UNL     1       2.306   2.522  17.529  0.00  0.00    +0.000 A 
ATOM     13  C   UNL     1       1.382   2.370  18.570  0.00  0.00    +0.000 A 
ATOM     14  F   UNL     1       0.322   1.576  18.382  0.00  0.00    +0.000 F 
ATOM     15  C   UNL     1       1.474   3.104  19.749  0.00  0.00    +0.000 A 
ATOM     16  C   UNL     1       2.518   4.004  19.840  0.00  0.00    +0.000 A 
ATOM     17  C   UNL     1       2.511   5.282  20.612  0.00  0.00    +0.000 C 
ATOM     18  O   UNL     1       1.785   5.479  21.573  0.00  0.00    +0.000 OA
ENDBRANCH   5   7
BRANCH   1  19
ATOM     19  C   UNL     1       0.442  10.270  19.791  0.00  0.00    +0.000 C 
ATOM     20  C   UNL     1      -0.296   9.801  21.077  0.00  0.00    +0.000 C 
ATOM     21  O   UNL     1       0.637  10.503  21.928  0.00  0.00    +0.000 OA
ATOM     22  C   UNL     1       1.125  11.251  20.789  0.00  0.00    +0.000 C 
BRANCH  19  26
ATOM     23  C   UNL     1      -3.474  11.414  17.971  0.00  0.00    +0.000 C 
ATOM     24  N   UNL     1      -2.192  11.270  17.269  0.00  0.00    +0.000 NA
ATOM     25  C   UNL     1      -1.413  10.173  17.843  0.00  0.00    +0.000 C 
ATOM     26  C   UNL     1      -0.458  10.930  18.706  0.00  0.00    +0.000 C 
ATOM     27  N   UNL     1      -0.425  12.199  18.442  0.00  0.00    +0.000 NA
ATOM     28  N   UNL     1      -1.423  12.459  17.569  0.00  0.00    +0.000 N 
ATOM     29  H   UNL     1      -1.102  12.969  16.738  0.00  0.00    +0.000 HD
ENDBRANCH  19  26
ENDBRANCH   1  19
TORSDOF 3
ENDMDL
MODEL 3
REMARK VINA RESULT:      -7.9      4.367      6.652
REMARK  Name = 
REMARK  4 active torsions:
REMARK  status: ('A' for Active; 'I' for Inactive)
REMARK    1  A    between atoms: C_1  and  N_2
REMARK    2  A    between atoms: C_4  and  C_5
REMARK    3  A    between atoms: C_5  and  C_6
REMARK    4  A    between atoms: C_10  and  N_11
REMARK                            x       y       z     vdW  Elec       q    Type
REMARK                         _______ _______ _______ _____ _____    ______ ____
ROOT
ATOM      1  C   UNL     1       2.489   5.853  18.966  0.00  0.00    +0.000 A 
ATOM      2  C   UNL     1       2.283   6.643  17.816  0.00  0.00    +0.000 A 
ATOM      3  C   UNL     1       2.078   8.019  17.892  0.00  0.00    +0.000 A 
ATOM      4  C   UNL     1       1.969   8.631  19.128  0.00  0.00    +0.000 A 
ATOM      5  C   UNL     1       1.889   7.829  20.272  0.00  0.00    +0.000 A 
ATOM      6  C   UNL     1       2.330   6.505  20.204  0.00  0.00    +0.000 A 
ENDROOT
BRANCH   5   7
ATOM      7  N   UNL     1       0.890   8.142  21.291  0.00  0.00    +0.000 N 
ATOM      8  C   UNL     1      -0.443   8.329  20.652  0.00  0.00    +0.000 C 
ATOM      9  C   UNL     1      -0.436   9.797  20.379  0.00  0.00    +0.000 A 
ATOM     10  C   UNL     1      -0.835  10.476  19.247  0.00  0.00    +0.000 A 
ATOM     11  F   UNL     1      -1.489   9.837  18.270  0.00  0.00    +0.000 F 
ATOM     12  C   UNL     1      -0.408  11.789  19.057  0.00  0.00    +0.000 A 
ATOM     13  C   UNL     1       0.396  12.403  20.024  0.00  0.00    +0.000 A 
ATOM     14  F   UNL     1       0.871  13.630  19.785  0.00  0.00    +0.000 F 
ATOM     15  C   UNL     1       0.806  11.733  21.173  0.00  0.00    +0.000 A 
ATOM     16  C   UNL     1       0.390  10.423  21.310  0.00  0.00    +0.000 A 
ATOM     17  C   UNL     1       1.127   9.337  22.022  0.00  0.00    +0.000 C 
ATOM     18  O   UNL     1       1.936   9.549  22.911  0.00  0.00    +0.000 OA
ENDBRANCH   5   7
BRANCH   1  19
ATOM     19  C   UNL     1       2.801   4.287  18.850  0.00  0.00    +0.000 C 
ATOM     20  C   UNL     1       2.403   3.379  20.048  0.00  0.00    +0.000 C 
ATOM     21  O   UNL     1       1.236   2.887  19.352  0.00  0.00    +0.000 OA
ATOM     22  C   UNL     1       1.750   3.412  18.104  0.00  0.00    +0.000 C 
BRANCH  19  26
ATOM     23  C   UNL     1       6.491   5.673  16.748  0.00  0.00    +0.000 C 
ATOM     24  N   UNL     1       6.117   4.281  17.031  0.00  0.00    +0.000 NA
ATOM     25  C   UNL     1       4.668   4.107  16.919  0.00  0.00    +0.000 C 
ATOM     26  C   UNL     1       4.271   4.140  18.358  0.00  0.00    +0.000 C 
ATOM     27  N   UNL     1       5.272   4.004  19.170  0.00  0.00    +0.000 NA
ATOM     28  N   UNL     1       6.403   4.054  18.432  0.00  0.00    +0.000 N 
ATOM     29  H   UNL     1       7.028   3.259  18.607  0.00  0.00    +0.000 HD
ENDBRANCH  19  26
ENDBRANCH   1  19
TORSDOF 3
ENDMDL
MODEL 4
REMARK VINA RESULT:      -7.8      0.999      1.120
REMARK  Name = 
REMARK  4 active torsions:
REMARK  status: ('A' for Active; 'I' for Inactive)
REMARK    1  A    between atoms: C_1  and  N_2
REMARK    2  A    between atoms: C_4  and  C_5
REMARK    3  A    between atoms: C_5  and  C_6
REMARK    4  A    between atoms: C_10  and  N_11
REMARK                            x       y       z     vdW  Elec       q    Type
REMARK                         _______ _______ _______ _____ _____    ______ ____
ROOT
ATOM      1  C   UNL     1       4.788   6.046  18.216  0.00  0.00    +0.000 A 
ATOM      2  C   UNL     1       4.492   7.072  17.296  0.00  0.00    +0.000 A 
ATOM      3  C   UNL     1       3.283   7.764  17.325  0.00  0.00    +0.000 A 
ATOM      4  C   UNL     1       2.291   7.379  18.209  0.00  0.00    +0.000 A 
ATOM      5  C   UNL     1       2.457   6.192  18.931  0.00  0.00    +0.000 A 
ATOM      6  C   UNL     1       3.740   5.657  19.071  0.00  0.00    +0.000 A 
ENDROOT
BRANCH   5   7
ATOM      7  N   UNL     1       1.337   5.260  19.033  0.00  0.00    +0.000 N 
ATOM      8  C   UNL     1       1.474   4.436  20.267  0.00  0.00    +0.000 C 
ATOM      9  C   UNL     1       2.247   3.265  19.757  0.00  0.00    +0.000 A 
ATOM     10  C   UNL     1       3.322   2.616  20.325  0.00  0.00    +0.000 A 
ATOM     11  F   UNL     1       3.692   2.890  21.582  0.00  0.00    +0.000 F 
ATOM     12  C   UNL     1       4.119   1.796  19.527  0.00  0.00    +0.000 A 
ATOM     13  C   UNL     1       3.802   1.627  18.175  0.00  0.00    +0.000 A 
ATOM     14  F   UNL     1       4.626   0.911  17.403  0.00  0.00    +0.000 F 
ATOM     15  C   UNL     1       2.719   2.273  17.586  0.00  0.00    +0.000 A 
ATOM     16  C   UNL     1       1.973   3.103  18.400  0.00  0.00    +0.000 A 
ATOM     17  C   UNL     1       1.231   4.324  17.968  0.00  0.00    +0.000 C 
ATOM     18  O   UNL     1       0.837   4.497  16.826  0.00  0.00    +0.000 OA
ENDBRANCH   5   7
BRANCH   1  19
ATOM     19  C   UNL     1       6.215   5.319  18.214  0.00  0.00    +0.000 C 
ATOM     20  C   UNL     1       7.380   6.007  18.982  0.00  0.00    +0.000 C 
ATOM     21  O   UNL     1       7.255   5.091  20.092  0.00  0.00    +0.000 OA
ATOM     22  C   UNL     1       6.441   4.209  19.282  0.00  0.00    +0.000 C 
BRANCH  19  26
ATOM     23  C   UNL     1       5.142   4.505  13.954  0.00  0.00    +0.000 C 
ATOM     24  N   UNL     1       6.308   3.980  14.678  0.00  0.00    +0.000 NA
ATOM     25  C   UNL     1       5.964   3.706  16.074  0.00  0.00    +0.000 C 
ATOM     26  C   UNL     1       6.529   4.915  16.744  0.00  0.00    +0.000 C 
ATOM     27  N   UNL     1       7.339   5.588  15.988  0.00  0.00    +0.000 NA
ATOM     28  N   UNL     1       7.270   5.060  14.747  0.00  0.00    +0.000 N 
ATOM     29  H   UNL     1       8.192   4.821  14.363  0.00  0.00    +0.000 HD
ENDBRANCH  19  26
ENDBRANCH   1  19
TORSDOF 3
ENDMDL
MODEL 5
REMARK VINA RESULT:      -7.7      5.142      7.455
REMARK  Name = 
REMARK  4 active torsions:
REMARK  status: ('A' for Active; 'I' for Inactive)
REMARK    1  A    between atoms: C_1  and  N_2
REMARK    2  A    between atoms: C_4  and  C_5
REMARK    3  A    between atoms: C_5  and  C_6
REMARK    4  A    between atoms: C_10  and  N_11
REMARK                            x       y       z     vdW  Elec       q    Type
REMARK                         _______ _______ _______ _____ _____    ______ ____
ROOT
ATOM      1  C   UNL     1       2.192   6.902  19.314  0.00  0.00    +0.000 A 
ATOM      2  C   UNL     1       2.274   7.473  18.027  0.00  0.00    +0.000 A 
ATOM      3  C   UNL     1       2.015   8.822  17.800  0.00  0.00    +0.000 A 
ATOM      4  C   UNL     1       1.564   9.620  18.837  0.00  0.00    +0.000 A 
ATOM      5  C   UNL     1       1.208   9.014  20.047  0.00  0.00    +0.000 A 
ATOM      6  C   UNL     1       1.691   7.735  20.332  0.00  0.00    +0.000 A 
ENDROOT
BRANCH   5   7
ATOM      7  N   UNL     1      -0.034   9.414  20.703  0.00  0.00    +0.000 N 
ATOM      8  C   UNL     1      -0.942  10.065  19.716  0.00  0.00    +0.000 C 
ATOM      9  C   UNL     1      -0.548  11.498  19.853  0.00  0.00    +0.000 A 
ATOM     10  C   UNL     1      -0.328  12.439  18.871  0.00  0.00    +0.000 A 
ATOM     11  F   UNL     1      -0.649  12.178  17.598  0.00  0.00    +0.000 F 
ATOM     12  C   UNL     1       0.381  13.598  19.186  0.00  0.00    +0.000 A 
ATOM     13  C   UNL     1       0.835  13.797  20.495  0.00  0.00    +0.000 A 
ATOM     14  F   UNL     1       1.589  14.869  20.762  0.00  0.00    +0.000 F 
ATOM     15  C   UNL     1       0.619  12.858  21.500  0.00  0.00    +0.000 A 
ATOM     16  C   UNL     1      -0.057  11.708  21.141  0.00  0.00    +0.000 A 
ATOM     17  C   UNL     1       0.116  10.359  21.755  0.00  0.00    +0.000 C 
ATOM     18  O   UNL     1       0.529  10.189  22.891  0.00  0.00    +0.000 OA
ENDBRANCH   5   7
BRANCH   1  19
ATOM     19  C   UNL     1       2.570   5.366  19.564  0.00  0.00    +0.000 C 
ATOM     20  C   UNL     1       2.293   4.772  20.974  0.00  0.00    +0.000 C 
ATOM     21  O   UNL     1       1.110   4.087  20.507  0.00  0.00    +0.000 OA
ATOM     22  C   UNL     1       1.517   4.302  19.135  0.00  0.00    +0.000 C 
BRANCH  19  26
ATOM     23  C   UNL     1       5.820   5.774  16.526  0.00  0.00    +0.000 C 
ATOM     24  N   UNL     1       5.722   4.744  17.568  0.00  0.00    +0.000 NA
ATOM     25  C   UNL     1       4.325   4.365  17.784  0.00  0.00    +0.000 C 
ATOM     26  C   UNL     1       4.012   5.147  19.017  0.00  0.00    +0.000 C 
ATOM     27  N   UNL     1       5.066   5.607  19.614  0.00  0.00    +0.000 NA
ATOM     28  N   UNL     1       6.125   5.372  18.808  0.00  0.00    +0.000 N 
ATOM     29  H   UNL     1       6.893   4.891  19.289  0.00  0.00    +0.000 HD
ENDBRANCH  19  26
ENDBRANCH   1  19
TORSDOF 3
ENDMDL
MODEL 6
REMARK VINA RESULT:      -7.5      8.561     11.931
REMARK  Name = 
REMARK  4 active torsions:
REMARK  status: ('A' for Active; 'I' for Inactive)
REMARK    1  A    between atoms: C_1  and  N_2
REMARK    2  A    between atoms: C_4  and  C_5
REMARK    3  A    between atoms: C_5  and  C_6
REMARK    4  A    between atoms: C_10  and  N_11
REMARK                            x       y       z     vdW  Elec       q    Type
REMARK                         _______ _______ _______ _____ _____    ______ ____
ROOT
ATOM      1  C   UNL     1      -4.345  11.681  18.190  0.00  0.00    +0.000 A 
ATOM      2  C   UNL     1      -4.172  11.138  16.900  0.00  0.00    +0.000 A 
ATOM      3  C   UNL     1      -2.991  10.505  16.517  0.00  0.00    +0.000 A 
ATOM      4  C   UNL     1      -1.908  10.490  17.379  0.00  0.00    +0.000 A 
ATOM      5  C   UNL     1      -1.964  11.263  18.544  0.00  0.00    +0.000 A 
ATOM      6  C   UNL     1      -3.209  11.681  19.021  0.00  0.00    +0.000 A 
ENDROOT
BRANCH   5   7
ATOM      7  N   UNL     1      -0.807  12.073  18.915  0.00  0.00    +0.000 N 
ATOM      8  C   UNL     1       0.444  11.283  18.731  0.00  0.00    +0.000 C 
ATOM      9  C   UNL     1       0.599  10.658  20.078  0.00  0.00    +0.000 A 
ATOM     10  C   UNL     1       0.934   9.362  20.405  0.00  0.00    +0.000 A 
ATOM     11  F   UNL     1       1.361   8.514  19.461  0.00  0.00    +0.000 F 
ATOM     12  C   UNL     1       0.667   8.895  21.691  0.00  0.00    +0.000 A 
ATOM     13  C   UNL     1       0.089   9.753  22.633  0.00  0.00    +0.000 A 
ATOM     14  F   UNL     1      -0.243   9.266  23.834  0.00  0.00    +0.000 F 
ATOM     15  C   UNL     1      -0.253  11.066  22.321  0.00  0.00    +0.000 A 
ATOM     16  C   UNL     1      -0.005  11.481  21.027  0.00  0.00    +0.000 A 
ATOM     17  C   UNL     1      -0.782  12.506  20.268  0.00  0.00    +0.000 C 
ATOM     18  O   UNL     1      -1.430  13.388  20.807  0.00  0.00    +0.000 OA
ENDBRANCH   5   7
BRANCH   1  19
ATOM     19  C   UNL     1      -5.739  12.333  18.634  0.00  0.00    +0.000 C 
ATOM     20  C   UNL     1      -6.309  13.487  17.761  0.00  0.00    +0.000 C 
ATOM     21  O   UNL     1      -7.269  12.607  17.136  0.00  0.00    +0.000 OA
ATOM     22  C   UNL     1      -7.036  11.612  18.162  0.00  0.00    +0.000 C 
BRANCH  19  26
ATOM     23  C   UNL     1      -6.726  14.606  22.350  0.00  0.00    +0.000 C 
ATOM     24  N   UNL     1      -5.534  13.780  22.121  0.00  0.00    +0.000 NA
ATOM     25  C   UNL     1      -5.092  13.892  20.731  0.00  0.00    +0.000 C 
ATOM     26  C   UNL     1      -5.648  12.629  20.159  0.00  0.00    +0.000 C 
ATOM     27  N   UNL     1      -6.026  11.780  21.063  0.00  0.00    +0.000 NA
ATOM     28  N   UNL     1      -5.954  12.402  22.260  0.00  0.00    +0.000 N 
ATOM     29  H   UNL     1      -5.417  11.870  22.954  0.00  0.00    +0.000 HD
ENDBRANCH  19  26
ENDBRANCH   1  19
TORSDOF 3
ENDMDL
MODEL 7
REMARK VINA RESULT:      -7.5      4.394      6.814
REMARK  Name = 
REMARK  4 active torsions:
REMARK  status: ('A' for Active; 'I' for Inactive)
REMARK    1  A    between atoms: C_1  and  N_2
REMARK    2  A    between atoms: C_4  and  C_5
REMARK    3  A    between atoms: C_5  and  C_6
REMARK    4  A    between atoms: C_10  and  N_11
REMARK                            x       y       z     vdW  Elec       q    Type
REMARK                         _______ _______ _______ _____ _____    ______ ____
ROOT
ATOM      1  C   UNL     1       1.189   8.803  19.784  0.00  0.00    +0.000 A 
ATOM      2  C   UNL     1       1.778   9.428  18.666  0.00  0.00    +0.000 A 
ATOM      3  C   UNL     1       2.536   8.718  17.737  0.00  0.00    +0.000 A 
ATOM      4  C   UNL     1       2.815   7.381  17.956  0.00  0.00    +0.000 A 
ATOM      5  C   UNL     1       2.481   6.817  19.192  0.00  0.00    +0.000 A 
ATOM      6  C   UNL     1       1.530   7.453  19.992  0.00  0.00    +0.000 A 
ENDROOT
BRANCH   5   7
ATOM      7  N   UNL     1       3.454   5.964  19.870  0.00  0.00    +0.000 N 
ATOM      8  C   UNL     1       4.339   5.309  18.867  0.00  0.00    +0.000 C 
ATOM      9  C   UNL     1       3.596   4.042  18.599  0.00  0.00    +0.000 A 
ATOM     10  C   UNL     1       3.335   3.422  17.396  0.00  0.00    +0.000 A 
ATOM     11  F   UNL     1       3.930   3.844  16.274  0.00  0.00    +0.000 F 
ATOM     12  C   UNL     1       2.325   2.463  17.331  0.00  0.00    +0.000 A 
ATOM     13  C   UNL     1       1.612   2.130  18.488  0.00  0.00    +0.000 A 
ATOM     14  F   UNL     1       0.588   1.275  18.392  0.00  0.00    +0.000 F 
ATOM     15  C   UNL     1       1.864   2.744  19.711  0.00  0.00    +0.000 A 
ATOM     16  C   UNL     1       2.849   3.713  19.728  0.00  0.00    +0.000 A 
ATOM     17  C   UNL     1       2.898   4.900  20.631  0.00  0.00    +0.000 C 
ATOM     18  O   UNL     1       2.343   4.938  21.718  0.00  0.00    +0.000 OA
ENDBRANCH   5   7
BRANCH   1  19
ATOM     19  C   UNL     1       0.256   9.624  20.795  0.00  0.00    +0.000 C 
ATOM     20  C   UNL     1      -0.483   8.826  21.907  0.00  0.00    +0.000 C 
ATOM     21  O   UNL     1       0.462   9.255  22.912  0.00  0.00    +0.000 OA
ATOM     22  C   UNL     1       0.955  10.283  22.021  0.00  0.00    +0.000 C 
BRANCH  19  26
ATOM     23  C   UNL     1      -0.503  13.180  18.200  0.00  0.00    +0.000 C 
ATOM     24  N   UNL     1      -1.492  12.468  19.020  0.00  0.00    +0.000 NA
ATOM     25  C   UNL     1      -0.886  12.004  20.268  0.00  0.00    +0.000 C 
ATOM     26  C   UNL     1      -0.639  10.567  19.941  0.00  0.00    +0.000 C 
ATOM     27  N   UNL     1      -1.273  10.167  18.883  0.00  0.00    +0.000 NA
ATOM     28  N   UNL     1      -1.825  11.255  18.304  0.00  0.00    +0.000 N 
ATOM     29  H   UNL     1      -2.829  11.142  18.118  0.00  0.00    +0.000 HD
ENDBRANCH  19  26
ENDBRANCH   1  19
TORSDOF 3
ENDMDL
MODEL 8
REMARK VINA RESULT:      -7.4      4.209      6.399
REMARK  Name = 
REMARK  4 active torsions:
REMARK  status: ('A' for Active; 'I' for Inactive)
REMARK    1  A    between atoms: C_1  and  N_2
REMARK    2  A    between atoms: C_4  and  C_5
REMARK    3  A    between atoms: C_5  and  C_6
REMARK    4  A    between atoms: C_10  and  N_11
REMARK                            x       y       z     vdW  Elec       q    Type
REMARK                         _______ _______ _______ _____ _____    ______ ____
ROOT
ATOM      1  C   UNL     1       1.164   8.892  19.494  0.00  0.00    +0.000 A 
ATOM      2  C   UNL     1       0.986   8.185  20.701  0.00  0.00    +0.000 A 
ATOM      3  C   UNL     1       1.734   7.052  21.012  0.00  0.00    +0.000 A 
ATOM      4  C   UNL     1       2.611   6.530  20.077  0.00  0.00    +0.000 A 
ATOM      5  C   UNL     1       2.596   7.047  18.777  0.00  0.00    +0.000 A 
ATOM      6  C   UNL     1       2.034   8.306  18.555  0.00  0.00    +0.000 A 
ENDROOT
BRANCH   5   7
ATOM      7  N   UNL     1       2.619   6.124  17.645  0.00  0.00    +0.000 N 
ATOM      8  C   UNL     1       1.496   5.150  17.763  0.00  0.00    +0.000 C 
ATOM      9  C   UNL     1       2.144   4.043  18.526  0.00  0.00    +0.000 A 
ATOM     10  C   UNL     1       1.655   3.314  19.589  0.00  0.00    +0.000 A 
ATOM     11  F   UNL     1       0.371   3.424  19.952  0.00  0.00    +0.000 F 
ATOM     12  C   UNL     1       2.544   2.591  20.382  0.00  0.00    +0.000 A 
ATOM     13  C   UNL     1       3.909   2.596  20.075  0.00  0.00    +0.000 A 
ATOM     14  F   UNL     1       4.759   1.972  20.897  0.00  0.00    +0.000 F 
ATOM     15  C   UNL     1       4.419   3.324  19.004  0.00  0.00    +0.000 A 
ATOM     16  C   UNL     1       3.512   4.055  18.261  0.00  0.00    +0.000 A 
ATOM     17  C   UNL     1       3.793   5.330  17.538  0.00  0.00    +0.000 C 
ATOM     18  O   UNL     1       4.907   5.650  17.154  0.00  0.00    +0.000 OA
ENDBRANCH   5   7
BRANCH   1  19
ATOM     19  C   UNL     1       0.348  10.237  19.193  0.00  0.00    +0.000 C 
ATOM     20  C   UNL     1      -0.435  10.324  17.853  0.00  0.00    +0.000 C 
ATOM     21  O   UNL     1      -1.694  10.071  18.515  0.00  0.00    +0.000 OA
ATOM     22  C   UNL     1      -1.083  10.343  19.798  0.00  0.00    +0.000 C 
BRANCH  19  26
ATOM     23  C   UNL     1       1.785  14.441  18.723  0.00  0.00    +0.000 C 
ATOM     24  N   UNL     1       2.578  13.291  19.178  0.00  0.00    +0.000 NA
ATOM     25  C   UNL     1       2.175  12.077  18.469  0.00  0.00    +0.000 C 
ATOM     26  C   UNL     1       1.298  11.433  19.493  0.00  0.00    +0.000 C 
ATOM     27  N   UNL     1       1.425  11.950  20.674  0.00  0.00    +0.000 NA
ATOM     28  N   UNL     1       2.202  13.050  20.555  0.00  0.00    +0.000 N 
ATOM     29  H   UNL     1       2.992  13.053  21.211  0.00  0.00    +0.000 HD
ENDBRANCH  19  26
ENDBRANCH   1  19
TORSDOF 3
ENDMDL
MODEL 9
REMARK VINA RESULT:      -7.4      3.895      6.248
REMARK  Name = 
REMARK  4 active torsions:
REMARK  status: ('A' for Active; 'I' for Inactive)
REMARK    1  A    between atoms: C_1  and  N_2
REMARK    2  A    between atoms: C_4  and  C_5
REMARK    3  A    between atoms: C_5  and  C_6
REMARK    4  A    between atoms: C_10  and  N_11
REMARK                            x       y       z     vdW  Elec       q    Type
REMARK                         _______ _______ _______ _____ _____    ______ ____
ROOT
ATOM      1  C   UNL     1       1.412   8.990  19.411  0.00  0.00    +0.000 A 
ATOM      2  C   UNL     1       1.079   8.332  20.612  0.00  0.00    +0.000 A 
ATOM      3  C   UNL     1       1.661   7.121  20.977  0.00  0.00    +0.000 A 
ATOM      4  C   UNL     1       2.519   6.478  20.101  0.00  0.00    +0.000 A 
ATOM      5  C   UNL     1       2.643   6.971  18.798  0.00  0.00    +0.000 A 
ATOM      6  C   UNL     1       2.256   8.286  18.531  0.00  0.00    +0.000 A 
ENDROOT
BRANCH   5   7
ATOM      7  N   UNL     1       2.616   6.033  17.679  0.00  0.00    +0.000 N 
ATOM      8  C   UNL     1       1.483   5.079  17.845  0.00  0.00    +0.000 C 
ATOM      9  C   UNL     1       2.138   3.971  18.602  0.00  0.00    +0.000 A 
ATOM     10  C   UNL     1       1.672   3.264  19.690  0.00  0.00    +0.000 A 
ATOM     11  F   UNL     1       0.403   3.398  20.091  0.00  0.00    +0.000 F 
ATOM     12  C   UNL     1       2.575   2.538  20.464  0.00  0.00    +0.000 A 
ATOM     13  C   UNL     1       3.930   2.518  20.113  0.00  0.00    +0.000 A 
ATOM     14  F   UNL     1       4.797   1.891  20.916  0.00  0.00    +0.000 F 
ATOM     15  C   UNL     1       4.417   3.224  19.017  0.00  0.00    +0.000 A 
ATOM     16  C   UNL     1       3.497   3.959  18.294  0.00  0.00    +0.000 A 
ATOM     17  C   UNL     1       3.774   5.220  17.544  0.00  0.00    +0.000 C 
ATOM     18  O   UNL     1       4.880   5.518  17.122  0.00  0.00    +0.000 OA
ENDBRANCH   5   7
BRANCH   1  19
ATOM     19  C   UNL     1       0.789  10.421  19.049  0.00  0.00    +0.000 C 
ATOM     20  C   UNL     1       0.839  11.529  20.139  0.00  0.00    +0.000 C 
ATOM     21  O   UNL     1       1.947  12.188  19.489  0.00  0.00    +0.000 OA
ATOM     22  C   UNL     1       1.710  11.418  18.287  0.00  0.00    +0.000 C 
BRANCH  19  26
ATOM     23  C   UNL     1      -3.219  11.684  17.533  0.00  0.00    +0.000 C 
ATOM     24  N   UNL     1      -2.842  10.342  17.996  0.00  0.00    +0.000 NA
ATOM     25  C   UNL     1      -1.902  10.430  19.114  0.00  0.00    +0.000 C 
ATOM     26  C   UNL     1      -0.609  10.171  18.413  0.00  0.00    +0.000 C 
ATOM     27  N   UNL     1      -0.761   9.684  17.221  0.00  0.00    +0.000 NA
ATOM     28  N   UNL     1      -2.079   9.736  16.926  0.00  0.00    +0.000 N 
ATOM     29  H   UNL     1      -2.451   8.834  16.606  0.00  0.00    +0.000 HD
ENDBRANCH  19  26
ENDBRANCH   1  19
TORSDOF 3
ENDMDL
