MODEL 1
REMARK VINA RESULT:      -9.3      0.000      0.000
REMARK  Name = 
REMARK  4 active torsions:
REMARK  status: ('A' for Active; 'I' for Inactive)
REMARK    1  A    between atoms: C_1  and  C_2
REMARK    2  A    between atoms: C_8  and  C_10
REMARK    3  A    between atoms: C_14  and  S_15
REMARK    4  A    between atoms: S_15  and  N_18
REMARK                            x       y       z     vdW  Elec       q    Type
REMARK                         _______ _______ _______ _____ _____    ______ ____
ROOT
ATOM      1  C   UNL     1       6.789   5.993  17.042  0.00  0.00    +0.000 A 
ATOM      2  C   UNL     1       7.230   5.578  15.772  0.00  0.00    +0.000 A 
ATOM      3  C   UNL     1       6.530   4.600  15.064  0.00  0.00    +0.000 A 
ATOM      4  C   UNL     1       5.407   3.999  15.641  0.00  0.00    +0.000 A 
ATOM      5  C   UNL     1       4.983   4.391  16.918  0.00  0.00    +0.000 A 
ATOM      6  C   UNL     1       5.646   5.412  17.611  0.00  0.00    +0.000 A 
ENDROOT
BRANCH   1  14
ATOM      7  C   UNL     1       8.803  13.044  17.495  0.00  0.00    +0.000 C 
ATOM      8  C   UNL     1       8.844  11.667  18.090  0.00  0.00    +0.000 A 
ATOM      9  C   UNL     1       9.468  11.445  19.315  0.00  0.00    +0.000 A 
ATOM     10  C   UNL     1       9.471  10.158  19.825  0.00  0.00    +0.000 A 
ATOM     11  N   UNL     1       8.899   9.109  19.205  0.00  0.00    +0.000 NA
ATOM     12  C   UNL     1       8.298   9.312  18.021  0.00  0.00    +0.000 A 
ATOM     13  N   UNL     1       7.671   8.244  17.355  0.00  0.00    +0.000 N 
ATOM     14  C   UNL     1       7.650   6.939  17.814  0.00  0.00    +0.000 C 
ATOM     15  O   UNL     1       8.245   6.478  18.780  0.00  0.00    +0.000 OA
ATOM     16  C   UNL     1       8.249  10.579  17.436  0.00  0.00    +0.000 A 
ATOM     17  H   UNL     1       7.230   8.458  16.474  0.00  0.00    +0.000 HD
ENDBRANCH   1  14
BRANCH   5  18
ATOM     18  S   UNL     1       3.655   3.492  17.730  0.00  0.00    +0.000 S 
ATOM     19  O   UNL     1       2.433   4.049  17.205  0.00  0.00    +0.000 OA
ATOM     20  O   UNL     1       3.948   2.079  17.577  0.00  0.00    +0.000 OA
BRANCH  18  21
ATOM     21  N   UNL     1       3.790   3.862  19.421  0.00  0.00    +0.000 N 
ATOM     22  C   UNL     1       3.762   2.668  20.328  0.00  0.00    +0.000 C 
ATOM     23  C   UNL     1       2.515   2.452  21.156  0.00  0.00    +0.000 C 
ATOM     24  C   UNL     1       1.690   3.660  21.509  0.00  0.00    +0.000 C 
ATOM     25  C   UNL     1       1.965   4.910  20.751  0.00  0.00    +0.000 A 
ATOM     26  C   UNL     1       1.129   6.007  21.055  0.00  0.00    +0.000 A 
ATOM     27  C   UNL     1       1.347   7.254  20.491  0.00  0.00    +0.000 A 
ATOM     28  C   UNL     1       2.427   7.416  19.629  0.00  0.00    +0.000 A 
ATOM     29  C   UNL     1       3.248   6.320  19.302  0.00  0.00    +0.000 A 
ATOM     30  C   UNL     1       3.014   5.038  19.834  0.00  0.00    +0.000 A 
ENDBRANCH  18  21
ENDBRANCH   5  18
TORSDOF 3
ENDMDL
MODEL 2
REMARK VINA RESULT:      -8.8      6.012      9.724
REMARK  Name = 
REMARK  4 active torsions:
REMARK  status: ('A' for Active; 'I' for Inactive)
REMARK    1  A    between atoms: C_1  and  C_2
REMARK    2  A    between atoms: C_8  and  C_10
REMARK    3  A    between atoms: C_14  and  S_15
REMARK    4  A    between atoms: S_15  and  N_18
REMARK                            x       y       z     vdW  Elec       q    Type
REMARK                         _______ _______ _______ _____ _____    ______ ____
ROOT
ATOM      1  C   UNL     1       0.675   9.308  20.938  0.00  0.00    +0.000 A 
ATOM      2  C   UNL     1      -0.054   8.960  22.090  0.00  0.00    +0.000 A 
ATOM      3  C   UNL     1      -0.674   9.946  22.861  0.00  0.00    +0.000 A 
ATOM      4  C   UNL     1      -0.533  11.291  22.506  0.00  0.00    +0.000 A 
ATOM      5  C   UNL     1       0.216  11.641  21.374  0.00  0.00    +0.000 A 
ATOM      6  C   UNL     1       0.793  10.655  20.564  0.00  0.00    +0.000 A 
ENDROOT
BRANCH   1  14
ATOM      7  C   UNL     1       2.721   2.271  21.459  0.00  0.00    +0.000 C 
ATOM      8  C   UNL     1       2.653   3.520  20.629  0.00  0.00    +0.000 A 
ATOM      9  C   UNL     1       3.093   3.515  19.308  0.00  0.00    +0.000 A 
ATOM     10  C   UNL     1       3.001   4.690  18.582  0.00  0.00    +0.000 A 
ATOM     11  N   UNL     1       2.506   5.838  19.082  0.00  0.00    +0.000 NA
ATOM     12  C   UNL     1       2.084   5.854  20.357  0.00  0.00    +0.000 A 
ATOM     13  N   UNL     1       1.540   7.029  20.906  0.00  0.00    +0.000 N 
ATOM     14  C   UNL     1       1.432   8.233  20.230  0.00  0.00    +0.000 C 
ATOM     15  O   UNL     1       1.875   8.508  19.123  0.00  0.00    +0.000 OA
ATOM     16  C   UNL     1       2.140   4.712  21.159  0.00  0.00    +0.000 A 
ATOM     17  H   UNL     1       1.234   6.980  21.865  0.00  0.00    +0.000 HD
ENDBRANCH   1  14
BRANCH   5  18
ATOM     18  S   UNL     1       0.547  13.373  21.027  0.00  0.00    +0.000 S 
ATOM     19  O   UNL     1       0.857  13.971  22.301  0.00  0.00    +0.000 OA
ATOM     20  O   UNL     1       1.510  13.408  19.942  0.00  0.00    +0.000 OA
BRANCH  18  21
ATOM     21  N   UNL     1      -0.938  14.031  20.414  0.00  0.00    +0.000 N 
ATOM     22  C   UNL     1      -1.747  14.795  21.421  0.00  0.00    +0.000 C 
ATOM     23  C   UNL     1      -3.017  14.150  21.927  0.00  0.00    +0.000 C 
ATOM     24  C   UNL     1      -3.710  13.163  21.027  0.00  0.00    +0.000 C 
ATOM     25  C   UNL     1      -2.935  12.647  19.867  0.00  0.00    +0.000 A 
ATOM     26  C   UNL     1      -3.585  11.672  19.080  0.00  0.00    +0.000 A 
ATOM     27  C   UNL     1      -3.009  11.187  17.917  0.00  0.00    +0.000 A 
ATOM     28  C   UNL     1      -1.777  11.697  17.520  0.00  0.00    +0.000 A 
ATOM     29  C   UNL     1      -1.112  12.651  18.314  0.00  0.00    +0.000 A 
ATOM     30  C   UNL     1      -1.665  13.122  19.519  0.00  0.00    +0.000 A 
ENDBRANCH  18  21
ENDBRANCH   5  18
TORSDOF 3
ENDMDL
MODEL 3
REMARK VINA RESULT:      -8.8      2.007      3.528
REMARK  Name = 
REMARK  4 active torsions:
REMARK  status: ('A' for Active; 'I' for Inactive)
REMARK    1  A    between atoms: C_1  and  C_2
REMARK    2  A    between atoms: C_8  and  C_10
REMARK    3  A    between atoms: C_14  and  S_15
REMARK    4  A    between atoms: S_15  and  N_18
REMARK                            x       y       z     vdW  Elec       q    Type
REMARK                         _______ _______ _______ _____ _____    ______ ____
ROOT
ATOM      1  C   UNL     1       7.742   7.600  17.883  0.00  0.00    +0.000 A 
ATOM      2  C   UNL     1       8.283   6.887  18.969  0.00  0.00    +0.000 A 
ATOM      3  C   UNL     1       8.041   5.519  19.110  0.00  0.00    +0.000 A 
ATOM      4  C   UNL     1       7.219   4.864  18.188  0.00  0.00    +0.000 A 
ATOM      5  C   UNL     1       6.656   5.579  17.122  0.00  0.00    +0.000 A 
ATOM      6  C   UNL     1       6.941   6.939  16.942  0.00  0.00    +0.000 A 
ENDROOT
BRANCH   1  14
ATOM      7  C   UNL     1      12.333  12.997  19.825  0.00  0.00    +0.000 C 
ATOM      8  C   UNL     1      11.085  12.586  19.100  0.00  0.00    +0.000 A 
ATOM      9  C   UNL     1      10.358  13.516  18.361  0.00  0.00    +0.000 A 
ATOM     10  C   UNL     1       9.219  13.084  17.703  0.00  0.00    +0.000 A 
ATOM     11  N   UNL     1       8.776  11.812  17.735  0.00  0.00    +0.000 NA
ATOM     12  C   UNL     1       9.468  10.909  18.449  0.00  0.00    +0.000 A 
ATOM     13  N   UNL     1       9.048   9.568  18.486  0.00  0.00    +0.000 N 
ATOM     14  C   UNL     1       7.915   9.083  17.856  0.00  0.00    +0.000 C 
ATOM     15  O   UNL     1       7.052   9.728  17.275  0.00  0.00    +0.000 OA
ATOM     16  C   UNL     1      10.629  11.261  19.142  0.00  0.00    +0.000 A 
ATOM     17  H   UNL     1       9.611   8.934  19.033  0.00  0.00    +0.000 HD
ENDBRANCH   1  14
BRANCH   5  18
ATOM     18  S   UNL     1       5.458   4.778  16.047  0.00  0.00    +0.000 S 
ATOM     19  O   UNL     1       5.418   5.578  14.849  0.00  0.00    +0.000 OA
ATOM     20  O   UNL     1       5.821   3.374  15.986  0.00  0.00    +0.000 OA
BRANCH  18  21
ATOM     21  N   UNL     1       3.934   4.878  16.872  0.00  0.00    +0.000 N 
ATOM     22  C   UNL     1       3.515   6.268  17.249  0.00  0.00    +0.000 C 
ATOM     23  C   UNL     1       3.576   6.641  18.713  0.00  0.00    +0.000 C 
ATOM     24  C   UNL     1       3.440   5.535  19.724  0.00  0.00    +0.000 C 
ATOM     25  C   UNL     1       3.591   4.142  19.226  0.00  0.00    +0.000 A 
ATOM     26  C   UNL     1       3.527   3.129  20.207  0.00  0.00    +0.000 A 
ATOM     27  C   UNL     1       3.554   1.789  19.859  0.00  0.00    +0.000 A 
ATOM     28  C   UNL     1       3.624   1.451  18.511  0.00  0.00    +0.000 A 
ATOM     29  C   UNL     1       3.714   2.456  17.530  0.00  0.00    +0.000 A 
ATOM     30  C   UNL     1       3.730   3.821  17.871  0.00  0.00    +0.000 A 
ENDBRANCH  18  21
ENDBRANCH   5  18
TORSDOF 3
ENDMDL
MODEL 4
REMARK VINA RESULT:      -8.7      4.033      6.252
REMARK  Name = 
REMARK  4 active torsions:
REMARK  status: ('A' for Active; 'I' for Inactive)
REMARK    1  A    between atoms: C_1  and  C_2
REMARK    2  A    between atoms: C_8  and  C_10
REMARK    3  A    between atoms: C_14  and  S_15
REMARK    4  A    between atoms: S_15  and  N_18
REMARK                            x       y       z     vdW  Elec       q    Type
REMARK                         _______ _______ _______ _____ _____    ______ ____
ROOT
ATOM      1  C   UNL     1       2.424   7.459  19.338  0.00  0.00    +0.000 A 
ATOM      2  C   UNL     1       2.513   8.227  18.162  0.00  0.00    +0.000 A 
ATOM      3  C   UNL     1       3.359   7.835  17.123  0.00  0.00    +0.000 A 
ATOM      4  C   UNL     1       4.154   6.695  17.271  0.00  0.00    +0.000 A 
ATOM      5  C   UNL     1       4.087   5.945  18.454  0.00  0.00    +0.000 A 
ATOM      6  C   UNL     1       3.199   6.299  19.477  0.00  0.00    +0.000 A 
ENDROOT
BRANCH   1  14
ATOM      7  C   UNL     1      -0.682  13.592  21.930  0.00  0.00    +0.000 C 
ATOM      8  C   UNL     1      -0.498  12.107  22.052  0.00  0.00    +0.000 A 
ATOM      9  C   UNL     1      -1.198  11.386  23.017  0.00  0.00    +0.000 A 
ATOM     10  C   UNL     1      -0.999  10.017  23.083  0.00  0.00    +0.000 A 
ATOM     11  N   UNL     1      -0.170   9.343  22.263  0.00  0.00    +0.000 NA
ATOM     12  C   UNL     1       0.512  10.031  21.333  0.00  0.00    +0.000 A 
ATOM     13  N   UNL     1       1.369   9.358  20.445  0.00  0.00    +0.000 N 
ATOM     14  C   UNL     1       1.612   7.996  20.471  0.00  0.00    +0.000 C 
ATOM     15  O   UNL     1       1.230   7.186  21.306  0.00  0.00    +0.000 OA
ATOM     16  C   UNL     1       0.370  11.414  21.197  0.00  0.00    +0.000 A 
ATOM     17  H   UNL     1       1.850   9.926  19.764  0.00  0.00    +0.000 HD
ENDBRANCH   1  14
BRANCH   5  18
ATOM     18  S   UNL     1       5.239   4.590  18.715  0.00  0.00    +0.000 S 
ATOM     19  O   UNL     1       6.216   4.704  17.661  0.00  0.00    +0.000 OA
ATOM     20  O   UNL     1       5.646   4.646  20.107  0.00  0.00    +0.000 OA
BRANCH  18  21
ATOM     21  N   UNL     1       4.320   3.133  18.508  0.00  0.00    +0.000 N 
ATOM     22  C   UNL     1       3.956   2.817  17.087  0.00  0.00    +0.000 C 
ATOM     23  C   UNL     1       2.510   2.997  16.683  0.00  0.00    +0.000 C 
ATOM     24  C   UNL     1       1.461   2.868  17.754  0.00  0.00    +0.000 C 
ATOM     25  C   UNL     1       1.928   2.909  19.165  0.00  0.00    +0.000 A 
ATOM     26  C   UNL     1       0.916   2.855  20.148  0.00  0.00    +0.000 A 
ATOM     27  C   UNL     1       1.227   2.785  21.496  0.00  0.00    +0.000 A 
ATOM     28  C   UNL     1       2.567   2.745  21.871  0.00  0.00    +0.000 A 
ATOM     29  C   UNL     1       3.580   2.824  20.896  0.00  0.00    +0.000 A 
ATOM     30  C   UNL     1       3.280   2.938  19.527  0.00  0.00    +0.000 A 
ENDBRANCH  18  21
ENDBRANCH   5  18
TORSDOF 3
ENDMDL
MODEL 5
REMARK VINA RESULT:      -8.7      5.893      9.101
REMARK  Name = 
REMARK  4 active torsions:
REMARK  status: ('A' for Active; 'I' for Inactive)
REMARK    1  A    between atoms: C_1  and  C_2
REMARK    2  A    between atoms: C_8  and  C_10
REMARK    3  A    between atoms: C_14  and  S_15
REMARK    4  A    between atoms: S_15  and  N_18
REMARK                            x       y       z     vdW  Elec       q    Type
REMARK                         _______ _______ _______ _____ _____    ______ ____
ROOT
ATOM      1  C   UNL     1       0.603   9.098  21.136  0.00  0.00    +0.000 A 
ATOM      2  C   UNL     1      -0.214   9.003  22.278  0.00  0.00    +0.000 A 
ATOM      3  C   UNL     1      -0.757  10.152  22.857  0.00  0.00    +0.000 A 
ATOM      4  C   UNL     1      -0.451  11.407  22.322  0.00  0.00    +0.000 A 
ATOM      5  C   UNL     1       0.386  11.504  21.202  0.00  0.00    +0.000 A 
ATOM      6  C   UNL     1       0.888  10.353  20.581  0.00  0.00    +0.000 A 
ENDROOT
BRANCH   1  14
ATOM      7  C   UNL     1       5.098   6.547  15.915  0.00  0.00    +0.000 C 
ATOM      8  C   UNL     1       4.345   6.285  17.186  0.00  0.00    +0.000 A 
ATOM      9  C   UNL     1       4.475   5.066  17.846  0.00  0.00    +0.000 A 
ATOM     10  C   UNL     1       3.765   4.878  19.020  0.00  0.00    +0.000 A 
ATOM     11  N   UNL     1       2.958   5.810  19.561  0.00  0.00    +0.000 NA
ATOM     12  C   UNL     1       2.823   6.987  18.929  0.00  0.00    +0.000 A 
ATOM     13  N   UNL     1       2.007   7.993  19.477  0.00  0.00    +0.000 N 
ATOM     14  C   UNL     1       1.270   7.856  20.641  0.00  0.00    +0.000 C 
ATOM     15  O   UNL     1       1.113   6.843  21.309  0.00  0.00    +0.000 OA
ATOM     16  C   UNL     1       3.504   7.260  17.741  0.00  0.00    +0.000 A 
ATOM     17  H   UNL     1       1.949   8.858  18.962  0.00  0.00    +0.000 HD
ENDBRANCH   1  14
BRANCH   5  18
ATOM     18  S   UNL     1       0.924  13.121  20.630  0.00  0.00    +0.000 S 
ATOM     19  O   UNL     1       1.435  13.794  21.798  0.00  0.00    +0.000 OA
ATOM     20  O   UNL     1       1.775  12.898  19.476  0.00  0.00    +0.000 OA
BRANCH  18  21
ATOM     21  N   UNL     1      -0.505  13.929  20.065  0.00  0.00    +0.000 N 
ATOM     22  C   UNL     1      -1.092  14.914  21.031  0.00  0.00    +0.000 C 
ATOM     23  C   UNL     1      -2.386  14.531  21.715  0.00  0.00    +0.000 C 
ATOM     24  C   UNL     1      -3.298  13.570  21.002  0.00  0.00    +0.000 C 
ATOM     25  C   UNL     1      -2.723  12.817  19.856  0.00  0.00    +0.000 A 
ATOM     26  C   UNL     1      -3.581  11.874  19.250  0.00  0.00    +0.000 A 
ATOM     27  C   UNL     1      -3.198  11.181  18.113  0.00  0.00    +0.000 A 
ATOM     28  C   UNL     1      -1.951  11.448  17.557  0.00  0.00    +0.000 A 
ATOM     29  C   UNL     1      -1.081  12.370  18.172  0.00  0.00    +0.000 A 
ATOM     30  C   UNL     1      -1.439  13.049  19.350  0.00  0.00    +0.000 A 
ENDBRANCH  18  21
ENDBRANCH   5  18
TORSDOF 3
ENDMDL
MODEL 6
REMARK VINA RESULT:      -8.6      4.939      8.048
REMARK  Name = 
REMARK  4 active torsions:
REMARK  status: ('A' for Active; 'I' for Inactive)
REMARK    1  A    between atoms: C_1  and  C_2
REMARK    2  A    between atoms: C_8  and  C_10
REMARK    3  A    between atoms: C_14  and  S_15
REMARK    4  A    between atoms: S_15  and  N_18
REMARK                            x       y       z     vdW  Elec       q    Type
REMARK                         _______ _______ _______ _____ _____    ______ ____
ROOT
ATOM      1  C   UNL     1       0.869   9.621  19.992  0.00  0.00    +0.000 A 
ATOM      2  C   UNL     1       1.269  10.320  18.838  0.00  0.00    +0.000 A 
ATOM      3  C   UNL     1       2.027   9.685  17.853  0.00  0.00    +0.000 A 
ATOM      4  C   UNL     1       2.426   8.357  18.036  0.00  0.00    +0.000 A 
ATOM      5  C   UNL     1       2.052   7.669  19.198  0.00  0.00    +0.000 A 
ATOM      6  C   UNL     1       1.244   8.281  20.164  0.00  0.00    +0.000 A 
ENDROOT
BRANCH   1  14
ATOM      7  C   UNL     1      -4.587  14.379  21.251  0.00  0.00    +0.000 C 
ATOM      8  C   UNL     1      -3.534  13.469  21.815  0.00  0.00    +0.000 A 
ATOM      9  C   UNL     1      -3.425  13.282  23.190  0.00  0.00    +0.000 A 
ATOM     10  C   UNL     1      -2.443  12.427  23.660  0.00  0.00    +0.000 A 
ATOM     11  N   UNL     1      -1.589  11.762  22.859  0.00  0.00    +0.000 NA
ATOM     12  C   UNL     1      -1.683  11.939  21.531  0.00  0.00    +0.000 A 
ATOM     13  N   UNL     1      -0.823  11.244  20.663  0.00  0.00    +0.000 N 
ATOM     14  C   UNL     1       0.181  10.385  21.076  0.00  0.00    +0.000 C 
ATOM     15  O   UNL     1       0.556  10.174  22.221  0.00  0.00    +0.000 OA
ATOM     16  C   UNL     1      -2.646  12.784  20.974  0.00  0.00    +0.000 A 
ATOM     17  H   UNL     1      -0.945  11.412  19.676  0.00  0.00    +0.000 HD
ENDBRANCH   1  14
BRANCH   5  18
ATOM     18  S   UNL     1       2.718   6.030  19.514  0.00  0.00    +0.000 S 
ATOM     19  O   UNL     1       4.126   6.224  19.756  0.00  0.00    +0.000 OA
ATOM     20  O   UNL     1       1.873   5.420  20.525  0.00  0.00    +0.000 OA
BRANCH  18  21
ATOM     21  N   UNL     1       2.491   5.130  18.048  0.00  0.00    +0.000 N 
ATOM     22  C   UNL     1       1.575   3.949  18.173  0.00  0.00    +0.000 C 
ATOM     23  C   UNL     1       2.202   2.573  18.134  0.00  0.00    +0.000 C 
ATOM     24  C   UNL     1       3.503   2.416  17.394  0.00  0.00    +0.000 C 
ATOM     25  C   UNL     1       4.237   3.662  17.048  0.00  0.00    +0.000 A 
ATOM     26  C   UNL     1       5.487   3.482  16.416  0.00  0.00    +0.000 A 
ATOM     27  C   UNL     1       6.221   4.563  15.955  0.00  0.00    +0.000 A 
ATOM     28  C   UNL     1       5.693   5.841  16.105  0.00  0.00    +0.000 A 
ATOM     29  C   UNL     1       4.459   6.029  16.758  0.00  0.00    +0.000 A 
ATOM     30  C   UNL     1       3.722   4.945  17.269  0.00  0.00    +0.000 A 
ENDBRANCH  18  21
ENDBRANCH   5  18
TORSDOF 3
ENDMDL
MODEL 7
REMARK VINA RESULT:      -8.6      1.929      2.714
REMARK  Name = 
REMARK  4 active torsions:
REMARK  status: ('A' for Active; 'I' for Inactive)
REMARK    1  A    between atoms: C_1  and  C_2
REMARK    2  A    between atoms: C_8  and  C_10
REMARK    3  A    between atoms: C_14  and  S_15
REMARK    4  A    between atoms: S_15  and  N_18
REMARK                            x       y       z     vdW  Elec       q    Type
REMARK                         _______ _______ _______ _____ _____    ______ ____
ROOT
ATOM      1  C   UNL     1       7.594   7.580  17.979  0.00  0.00    +0.000 A 
ATOM      2  C   UNL     1       8.400   6.838  18.862  0.00  0.00    +0.000 A 
ATOM      3  C   UNL     1       8.127   5.490  19.107  0.00  0.00    +0.000 A 
ATOM      4  C   UNL     1       7.020   4.888  18.501  0.00  0.00    +0.000 A 
ATOM      5  C   UNL     1       6.200   5.634  17.643  0.00  0.00    +0.000 A 
ATOM      6  C   UNL     1       6.500   6.970  17.349  0.00  0.00    +0.000 A 
ENDROOT
BRANCH   1  14
ATOM      7  C   UNL     1      12.333  12.883  19.822  0.00  0.00    +0.000 C 
ATOM      8  C   UNL     1      11.109  12.479  19.052  0.00  0.00    +0.000 A 
ATOM      9  C   UNL     1      10.475  13.387  18.208  0.00  0.00    +0.000 A 
ATOM     10  C   UNL     1       9.354  12.962  17.513  0.00  0.00    +0.000 A 
ATOM     11  N   UNL     1       8.847  11.718  17.605  0.00  0.00    +0.000 NA
ATOM     12  C   UNL     1       9.450  10.838  18.420  0.00  0.00    +0.000 A 
ATOM     13  N   UNL     1       8.962   9.523  18.524  0.00  0.00    +0.000 N 
ATOM     14  C   UNL     1       7.843   9.048  17.861  0.00  0.00    +0.000 C 
ATOM     15  O   UNL     1       7.049   9.689  17.185  0.00  0.00    +0.000 OA
ATOM     16  C   UNL     1      10.585  11.183  19.157  0.00  0.00    +0.000 A 
ATOM     17  H   UNL     1       9.459   8.905  19.146  0.00  0.00    +0.000 HD
ENDBRANCH   1  14
BRANCH   5  18
ATOM     18  S   UNL     1       4.680   4.911  17.014  0.00  0.00    +0.000 S 
ATOM     19  O   UNL     1       3.729   5.993  16.964  0.00  0.00    +0.000 OA
ATOM     20  O   UNL     1       5.029   4.179  15.810  0.00  0.00    +0.000 OA
BRANCH  18  21
ATOM     21  N   UNL     1       4.180   3.743  18.196  0.00  0.00    +0.000 N 
ATOM     22  C   UNL     1       3.995   2.352  17.664  0.00  0.00    +0.000 C 
ATOM     23  C   UNL     1       2.578   1.840  17.533  0.00  0.00    +0.000 C 
ATOM     24  C   UNL     1       1.535   2.418  18.451  0.00  0.00    +0.000 C 
ATOM     25  C   UNL     1       1.892   3.667  19.175  0.00  0.00    +0.000 A 
ATOM     26  C   UNL     1       0.871   4.224  19.976  0.00  0.00    +0.000 A 
ATOM     27  C   UNL     1       1.108   5.329  20.777  0.00  0.00    +0.000 A 
ATOM     28  C   UNL     1       2.388   5.875  20.799  0.00  0.00    +0.000 A 
ATOM     29  C   UNL     1       3.403   5.339  19.983  0.00  0.00    +0.000 A 
ATOM     30  C   UNL     1       3.166   4.244  19.133  0.00  0.00    +0.000 A 
ENDBRANCH  18  21
ENDBRANCH   5  18
TORSDOF 3
ENDMDL
MODEL 8
REMARK VINA RESULT:      -8.4      6.196      9.315
REMARK  Name = 
REMARK  4 active torsions:
REMARK  status: ('A' for Active; 'I' for Inactive)
REMARK    1  A    between atoms: C_1  and  C_2
REMARK    2  A    between atoms: C_8  and  C_10
REMARK    3  A    between atoms: C_14  and  S_15
REMARK    4  A    between atoms: S_15  and  N_18
REMARK                            x       y       z     vdW  Elec       q    Type
REMARK                         _______ _______ _______ _____ _____    ______ ____
ROOT
ATOM      1  C   UNL     1       1.061   8.934  20.100  0.00  0.00    +0.000 A 
ATOM      2  C   UNL     1       1.204   9.018  21.498  0.00  0.00    +0.000 A 
ATOM      3  C   UNL     1       0.393   9.878  22.242  0.00  0.00    +0.000 A 
ATOM      4  C   UNL     1      -0.537  10.690  21.587  0.00  0.00    +0.000 A 
ATOM      5  C   UNL     1      -0.661  10.627  20.192  0.00  0.00    +0.000 A 
ATOM      6  C   UNL     1       0.109   9.727  19.445  0.00  0.00    +0.000 A 
ENDROOT
BRANCH   1  14
ATOM      7  C   UNL     1       4.349   2.364  19.998  0.00  0.00    +0.000 C 
ATOM      8  C   UNL     1       4.097   3.673  19.308  0.00  0.00    +0.000 A 
ATOM      9  C   UNL     1       4.603   3.909  18.032  0.00  0.00    +0.000 A 
ATOM     10  C   UNL     1       4.335   5.129  17.436  0.00  0.00    +0.000 A 
ATOM     11  N   UNL     1       3.608   6.101  18.020  0.00  0.00    +0.000 NA
ATOM     12  C   UNL     1       3.119   5.884  19.252  0.00  0.00    +0.000 A 
ATOM     13  N   UNL     1       2.336   6.867  19.884  0.00  0.00    +0.000 N 
ATOM     14  C   UNL     1       2.044   8.106  19.339  0.00  0.00    +0.000 C 
ATOM     15  O   UNL     1       2.489   8.590  18.307  0.00  0.00    +0.000 OA
ATOM     16  C   UNL     1       3.342   4.681  19.925  0.00  0.00    +0.000 A 
ATOM     17  H   UNL     1       1.991   6.646  20.805  0.00  0.00    +0.000 HD
ENDBRANCH   1  14
BRANCH   5  18
ATOM     18  S   UNL     1      -1.724  11.800  19.339  0.00  0.00    +0.000 S 
ATOM     19  O   UNL     1      -2.227  12.681  20.363  0.00  0.00    +0.000 OA
ATOM     20  O   UNL     1      -0.959  12.326  18.223  0.00  0.00    +0.000 OA
BRANCH  18  21
ATOM     21  N   UNL     1      -3.027  10.867  18.673  0.00  0.00    +0.000 N 
ATOM     22  C   UNL     1      -2.624   9.912  17.589  0.00  0.00    +0.000 C 
ATOM     23  C   UNL     1      -3.029  10.254  16.173  0.00  0.00    +0.000 C 
ATOM     24  C   UNL     1      -4.254  11.106  15.980  0.00  0.00    +0.000 C 
ATOM     25  C   UNL     1      -4.776  11.818  17.177  0.00  0.00    +0.000 A 
ATOM     26  C   UNL     1      -5.885  12.663  16.953  0.00  0.00    +0.000 A 
ATOM     27  C   UNL     1      -6.524  13.303  18.002  0.00  0.00    +0.000 A 
ATOM     28  C   UNL     1      -6.067  13.081  19.297  0.00  0.00    +0.000 A 
ATOM     29  C   UNL     1      -4.946  12.259  19.524  0.00  0.00    +0.000 A 
ATOM     30  C   UNL     1      -4.261  11.636  18.465  0.00  0.00    +0.000 A 
ENDBRANCH  18  21
ENDBRANCH   5  18
TORSDOF 3
ENDMDL
MODEL 9
REMARK VINA RESULT:      -8.4      3.429      7.004
REMARK  Name = 
REMARK  4 active torsions:
REMARK  status: ('A' for Active; 'I' for Inactive)
REMARK    1  A    between atoms: C_1  and  C_2
REMARK    2  A    between atoms: C_8  and  C_10
REMARK    3  A    between atoms: C_14  and  S_15
REMARK    4  A    between atoms: S_15  and  N_18
REMARK                            x       y       z     vdW  Elec       q    Type
REMARK                         _______ _______ _______ _____ _____    ______ ____
ROOT
ATOM      1  C   UNL     1       2.153   7.631  19.271  0.00  0.00    +0.000 A 
ATOM      2  C   UNL     1       2.675   8.466  18.265  0.00  0.00    +0.000 A 
ATOM      3  C   UNL     1       3.418   7.927  17.213  0.00  0.00    +0.000 A 
ATOM      4  C   UNL     1       3.680   6.554  17.184  0.00  0.00    +0.000 A 
ATOM      5  C   UNL     1       3.185   5.726  18.200  0.00  0.00    +0.000 A 
ATOM      6  C   UNL     1       2.391   6.250  19.228  0.00  0.00    +0.000 A 
ENDROOT
BRANCH   1  14
ATOM      7  C   UNL     1      -1.759  13.512  21.294  0.00  0.00    +0.000 C 
ATOM      8  C   UNL     1      -1.195  12.170  21.660  0.00  0.00    +0.000 A 
ATOM      9  C   UNL     1      -1.480  11.597  22.896  0.00  0.00    +0.000 A 
ATOM     10  C   UNL     1      -0.942  10.353  23.182  0.00  0.00    +0.000 A 
ATOM     11  N   UNL     1      -0.161   9.665  22.328  0.00  0.00    +0.000 NA
ATOM     12  C   UNL     1       0.123  10.212  21.135  0.00  0.00    +0.000 A 
ATOM     13  N   UNL     1       0.917   9.512  20.209  0.00  0.00    +0.000 N 
ATOM     14  C   UNL     1       1.487   8.272  20.444  0.00  0.00    +0.000 C 
ATOM     15  O   UNL     1       1.496   7.644  21.494  0.00  0.00    +0.000 OA
ATOM     16  C   UNL     1      -0.379  11.462  20.766  0.00  0.00    +0.000 A 
ATOM     17  H   UNL     1       1.091   9.969  19.327  0.00  0.00    +0.000 HD
ENDBRANCH   1  14
BRANCH   5  18
ATOM     18  S   UNL     1       3.676   3.998  18.259  0.00  0.00    +0.000 S 
ATOM     19  O   UNL     1       3.252   3.518  19.550  0.00  0.00    +0.000 OA
ATOM     20  O   UNL     1       3.182   3.378  17.043  0.00  0.00    +0.000 OA
BRANCH  18  21
ATOM     21  N   UNL     1       5.410   3.989  18.169  0.00  0.00    +0.000 N 
ATOM     22  C   UNL     1       6.100   4.667  19.316  0.00  0.00    +0.000 C 
ATOM     23  C   UNL     1       6.756   6.001  19.043  0.00  0.00    +0.000 C 
ATOM     24  C   UNL     1       7.222   6.280  17.639  0.00  0.00    +0.000 C 
ATOM     25  C   UNL     1       6.713   5.382  16.569  0.00  0.00    +0.000 A 
ATOM     26  C   UNL     1       7.111   5.708  15.254  0.00  0.00    +0.000 A 
ATOM     27  C   UNL     1       6.785   4.894  14.182  0.00  0.00    +0.000 A 
ATOM     28  C   UNL     1       6.070   3.725  14.425  0.00  0.00    +0.000 A 
ATOM     29  C   UNL     1       5.648   3.408  15.730  0.00  0.00    +0.000 A 
ATOM     30  C   UNL     1       5.935   4.246  16.823  0.00  0.00    +0.000 A 
ENDBRANCH  18  21
ENDBRANCH   5  18
TORSDOF 3
ENDMDL
