MODEL 1
REMARK VINA RESULT:      -8.7      0.000      0.000
REMARK  Name = 
REMARK  6 active torsions:
REMARK  status: ('A' for Active; 'I' for Inactive)
REMARK    1  A    between atoms: C_1  and  C_2
REMARK    2  A    between atoms: C_4  and  C_5
REMARK    3  A    between atoms: C_13  and  S_14
REMARK    4  A    between atoms: S_14  and  N_17
REMARK    5  A    between atoms: N_17  and  C_18
REMARK    6  A    between atoms: N_17  and  C_19
REMARK                            x       y       z     vdW  Elec       q    Type
REMARK                         _______ _______ _______ _____ _____    ______ ____
ROOT
ATOM      1  C   UNL     1       1.667   9.351  18.272  0.00  0.00    +0.000 C 
ATOM      2  O   UNL     1       2.133   9.554  17.154  0.00  0.00    +0.000 OA
ATOM      3  N   UNL     1       1.899   8.186  19.019  0.00  0.00    +0.000 N 
ATOM      4  C   UNL     1       1.207   7.776  20.259  0.00  0.00    +0.000 C 
ATOM      5  C   UNL     1       1.868   6.510  20.794  0.00  0.00    +0.000 C 
ATOM      6  C   UNL     1       2.800   6.166  19.685  0.00  0.00    +0.000 A 
ATOM      7  C   UNL     1       3.608   5.038  19.628  0.00  0.00    +0.000 A 
ATOM      8  C   UNL     1       4.464   4.898  18.542  0.00  0.00    +0.000 A 
ATOM      9  C   UNL     1       4.483   5.885  17.541  0.00  0.00    +0.000 A 
ATOM     10  C   UNL     1       3.680   7.041  17.620  0.00  0.00    +0.000 A 
ATOM     11  C   UNL     1       2.819   7.156  18.699  0.00  0.00    +0.000 A 
ENDROOT
BRANCH   1  15
ATOM     12  C   UNL     1       1.360  13.498  21.034  0.00  0.00    +0.000 C 
ATOM     13  C   UNL     1       0.709  12.433  20.205  0.00  0.00    +0.000 A 
ATOM     14  C   UNL     1       1.408  11.310  19.805  0.00  0.00    +0.000 A 
ATOM     15  C   UNL     1       0.824  10.434  18.887  0.00  0.00    +0.000 A 
ATOM     16  C   UNL     1      -0.547  10.599  18.543  0.00  0.00    +0.000 A 
ATOM     17  C   UNL     1      -1.318   9.719  17.738  0.00  0.00    +0.000 A 
ATOM     18  C   UNL     1      -2.668   9.964  17.475  0.00  0.00    +0.000 A 
ATOM     19  C   UNL     1      -3.272  11.102  17.986  0.00  0.00    +0.000 A 
ATOM     20  C   UNL     1      -2.524  11.981  18.767  0.00  0.00    +0.000 A 
ATOM     21  C   UNL     1      -1.188  11.748  19.061  0.00  0.00    +0.000 A 
ATOM     22  N   UNL     1      -0.566  12.653  19.832  0.00  0.00    +0.000 NA
ENDBRANCH   1  15
BRANCH   9  23
ATOM     23  S   UNL     1       5.574   5.667  16.147  0.00  0.00    +0.000 S 
ATOM     24  O   UNL     1       5.415   4.307  15.680  0.00  0.00    +0.000 OA
ATOM     25  O   UNL     1       5.372   6.788  15.251  0.00  0.00    +0.000 OA
BRANCH  23  26
ATOM     26  N   UNL     1       7.117   5.817  16.854  0.00  0.00    +0.000 NA
ATOM     27  C   UNL     1       7.413   7.074  17.559  0.00  0.00    +0.000 C 
ATOM     28  C   UNL     1       7.629   4.623  17.553  0.00  0.00    +0.000 C 
ENDBRANCH  23  26
ENDBRANCH   9  23
TORSDOF 3
ENDMDL
MODEL 2
REMARK VINA RESULT:      -8.6      0.833      1.092
REMARK  Name = 
REMARK  6 active torsions:
REMARK  status: ('A' for Active; 'I' for Inactive)
REMARK    1  A    between atoms: C_1  and  C_2
REMARK    2  A    between atoms: C_4  and  C_5
REMARK    3  A    between atoms: C_13  and  S_14
REMARK    4  A    between atoms: S_14  and  N_17
REMARK    5  A    between atoms: N_17  and  C_18
REMARK    6  A    between atoms: N_17  and  C_19
REMARK                            x       y       z     vdW  Elec       q    Type
REMARK                         _______ _______ _______ _____ _____    ______ ____
ROOT
ATOM      1  C   UNL     1       1.461   9.610  18.428  0.00  0.00    +0.000 C 
ATOM      2  O   UNL     1       2.017   9.928  17.380  0.00  0.00    +0.000 OA
ATOM      3  N   UNL     1       1.699   8.407  19.109  0.00  0.00    +0.000 N 
ATOM      4  C   UNL     1       0.920   7.860  20.240  0.00  0.00    +0.000 C 
ATOM      5  C   UNL     1       1.612   6.599  20.748  0.00  0.00    +0.000 C 
ATOM      6  C   UNL     1       2.668   6.401  19.717  0.00  0.00    +0.000 A 
ATOM      7  C   UNL     1       3.554   5.332  19.663  0.00  0.00    +0.000 A 
ATOM      8  C   UNL     1       4.518   5.330  18.662  0.00  0.00    +0.000 A 
ATOM      9  C   UNL     1       4.566   6.391  17.741  0.00  0.00    +0.000 A 
ATOM     10  C   UNL     1       3.681   7.486  17.821  0.00  0.00    +0.000 A 
ATOM     11  C   UNL     1       2.714   7.464  18.811  0.00  0.00    +0.000 A 
ENDROOT
BRANCH   1  15
ATOM     12  C   UNL     1       0.611  13.540  21.386  0.00  0.00    +0.000 C 
ATOM     13  C   UNL     1       0.113  12.486  20.445  0.00  0.00    +0.000 A 
ATOM     14  C   UNL     1       0.928  11.445  20.042  0.00  0.00    +0.000 A 
ATOM     15  C   UNL     1       0.489  10.588  19.029  0.00  0.00    +0.000 A 
ATOM     16  C   UNL     1      -0.858  10.675  18.580  0.00  0.00    +0.000 A 
ATOM     17  C   UNL     1      -1.491   9.794  17.664  0.00  0.00    +0.000 A 
ATOM     18  C   UNL     1      -2.831   9.956  17.302  0.00  0.00    +0.000 A 
ATOM     19  C   UNL     1      -3.560  11.012  17.824  0.00  0.00    +0.000 A 
ATOM     20  C   UNL     1      -2.948  11.893  18.714  0.00  0.00    +0.000 A 
ATOM     21  C   UNL     1      -1.626  11.739  19.106  0.00  0.00    +0.000 A 
ATOM     22  N   UNL     1      -1.141  12.636  19.978  0.00  0.00    +0.000 NA
ENDBRANCH   1  15
BRANCH   9  23
ATOM     23  S   UNL     1       5.799   6.350  16.453  0.00  0.00    +0.000 S 
ATOM     24  O   UNL     1       5.116   6.547  15.193  0.00  0.00    +0.000 OA
ATOM     25  O   UNL     1       6.884   7.224  16.854  0.00  0.00    +0.000 OA
BRANCH  23  26
ATOM     26  N   UNL     1       6.354   4.741  16.519  0.00  0.00    +0.000 NA
ATOM     27  C   UNL     1       6.281   3.954  15.277  0.00  0.00    +0.000 C 
ATOM     28  C   UNL     1       7.599   4.514  17.279  0.00  0.00    +0.000 C 
ENDBRANCH  23  26
ENDBRANCH   9  23
TORSDOF 3
ENDMDL
MODEL 3
REMARK VINA RESULT:      -8.0      1.598      1.998
REMARK  Name = 
REMARK  6 active torsions:
REMARK  status: ('A' for Active; 'I' for Inactive)
REMARK    1  A    between atoms: C_1  and  C_2
REMARK    2  A    between atoms: C_4  and  C_5
REMARK    3  A    between atoms: C_13  and  S_14
REMARK    4  A    between atoms: S_14  and  N_17
REMARK    5  A    between atoms: N_17  and  C_18
REMARK    6  A    between atoms: N_17  and  C_19
REMARK                            x       y       z     vdW  Elec       q    Type
REMARK                         _______ _______ _______ _____ _____    ______ ____
ROOT
ATOM      1  C   UNL     1       2.019   8.072  19.281  0.00  0.00    +0.000 C 
ATOM      2  O   UNL     1       2.594   8.669  18.374  0.00  0.00    +0.000 OA
ATOM      3  N   UNL     1       2.273   6.736  19.626  0.00  0.00    +0.000 N 
ATOM      4  C   UNL     1       1.479   5.893  20.545  0.00  0.00    +0.000 C 
ATOM      5  C   UNL     1       2.193   4.556  20.722  0.00  0.00    +0.000 C 
ATOM      6  C   UNL     1       3.281   4.660  19.712  0.00  0.00    +0.000 A 
ATOM      7  C   UNL     1       4.198   3.662  19.405  0.00  0.00    +0.000 A 
ATOM      8  C   UNL     1       5.188   3.946  18.472  0.00  0.00    +0.000 A 
ATOM      9  C   UNL     1       5.231   5.215  17.867  0.00  0.00    +0.000 A 
ATOM     10  C   UNL     1       4.314   6.231  18.206  0.00  0.00    +0.000 A 
ATOM     11  C   UNL     1       3.321   5.927  19.122  0.00  0.00    +0.000 A 
ENDROOT
BRANCH   1  15
ATOM     12  C   UNL     1       0.282   9.502  23.737  0.00  0.00    +0.000 C 
ATOM     13  C   UNL     1       0.202   9.518  22.241  0.00  0.00    +0.000 A 
ATOM     14  C   UNL     1       0.975   8.666  21.474  0.00  0.00    +0.000 A 
ATOM     15  C   UNL     1       1.005   8.836  20.088  0.00  0.00    +0.000 A 
ATOM     16  C   UNL     1       0.090   9.738  19.477  0.00  0.00    +0.000 A 
ATOM     17  C   UNL     1      -0.097   9.920  18.081  0.00  0.00    +0.000 A 
ATOM     18  C   UNL     1      -1.040  10.822  17.582  0.00  0.00    +0.000 A 
ATOM     19  C   UNL     1      -1.797  11.580  18.461  0.00  0.00    +0.000 A 
ATOM     20  C   UNL     1      -1.615  11.422  19.833  0.00  0.00    +0.000 A 
ATOM     21  C   UNL     1      -0.701  10.516  20.353  0.00  0.00    +0.000 A 
ATOM     22  N   UNL     1      -0.616  10.434  21.689  0.00  0.00    +0.000 NA
ENDBRANCH   1  15
BRANCH   9  23
ATOM     23  S   UNL     1       6.498   5.542  16.657  0.00  0.00    +0.000 S 
ATOM     24  O   UNL     1       7.087   4.273  16.291  0.00  0.00    +0.000 OA
ATOM     25  O   UNL     1       5.929   6.415  15.649  0.00  0.00    +0.000 OA
BRANCH  23  26
ATOM     26  N   UNL     1       7.646   6.431  17.549  0.00  0.00    +0.000 NA
ATOM     27  C   UNL     1       7.600   7.897  17.429  0.00  0.00    +0.000 C 
ATOM     28  C   UNL     1       7.897   5.967  18.927  0.00  0.00    +0.000 C 
ENDBRANCH  23  26
ENDBRANCH   9  23
TORSDOF 3
ENDMDL
MODEL 4
REMARK VINA RESULT:      -7.9      2.886      7.806
REMARK  Name = 
REMARK  6 active torsions:
REMARK  status: ('A' for Active; 'I' for Inactive)
REMARK    1  A    between atoms: C_1  and  C_2
REMARK    2  A    between atoms: C_4  and  C_5
REMARK    3  A    between atoms: C_13  and  S_14
REMARK    4  A    between atoms: S_14  and  N_17
REMARK    5  A    between atoms: N_17  and  C_18
REMARK    6  A    between atoms: N_17  and  C_19
REMARK                            x       y       z     vdW  Elec       q    Type
REMARK                         _______ _______ _______ _____ _____    ______ ____
ROOT
ATOM      1  C   UNL     1       2.535   8.113  17.997  0.00  0.00    +0.000 C 
ATOM      2  O   UNL     1       2.298   8.903  17.087  0.00  0.00    +0.000 OA
ATOM      3  N   UNL     1       1.981   8.205  19.282  0.00  0.00    +0.000 N 
ATOM      4  C   UNL     1       2.382   7.433  20.478  0.00  0.00    +0.000 C 
ATOM      5  C   UNL     1       1.426   7.766  21.619  0.00  0.00    +0.000 C 
ATOM      6  C   UNL     1       0.635   8.883  21.033  0.00  0.00    +0.000 A 
ATOM      7  C   UNL     1      -0.345   9.614  21.693  0.00  0.00    +0.000 A 
ATOM      8  C   UNL     1      -1.028  10.590  20.978  0.00  0.00    +0.000 A 
ATOM      9  C   UNL     1      -0.709  10.814  19.626  0.00  0.00    +0.000 A 
ATOM     10  C   UNL     1       0.267  10.048  18.956  0.00  0.00    +0.000 A 
ATOM     11  C   UNL     1       0.953   9.092  19.687  0.00  0.00    +0.000 A 
ENDROOT
BRANCH   1  15
ATOM     12  C   UNL     1       7.158   6.400  17.210  0.00  0.00    +0.000 C 
ATOM     13  C   UNL     1       5.685   6.162  17.339  0.00  0.00    +0.000 A 
ATOM     14  C   UNL     1       4.792   7.215  17.398  0.00  0.00    +0.000 A 
ATOM     15  C   UNL     1       3.452   6.958  17.698  0.00  0.00    +0.000 A 
ATOM     16  C   UNL     1       2.993   5.611  17.733  0.00  0.00    +0.000 A 
ATOM     17  C   UNL     1       1.645   5.192  17.887  0.00  0.00    +0.000 A 
ATOM     18  C   UNL     1       1.297   3.839  17.889  0.00  0.00    +0.000 A 
ATOM     19  C   UNL     1       2.285   2.876  17.763  0.00  0.00    +0.000 A 
ATOM     20  C   UNL     1       3.613   3.272  17.624  0.00  0.00    +0.000 A 
ATOM     21  C   UNL     1       3.982   4.609  17.597  0.00  0.00    +0.000 A 
ATOM     22  N   UNL     1       5.287   4.880  17.445  0.00  0.00    +0.000 NA
ENDBRANCH   1  15
BRANCH   9  23
ATOM     23  S   UNL     1      -1.585  12.089  18.741  0.00  0.00    +0.000 S 
ATOM     24  O   UNL     1      -2.285  12.893  19.719  0.00  0.00    +0.000 OA
ATOM     25  O   UNL     1      -0.656  12.696  17.808  0.00  0.00    +0.000 OA
BRANCH  23  26
ATOM     26  N   UNL     1      -2.736  11.202  17.850  0.00  0.00    +0.000 NA
ATOM     27  C   UNL     1      -4.155  11.502  18.100  0.00  0.00    +0.000 C 
ATOM     28  C   UNL     1      -2.428  10.990  16.423  0.00  0.00    +0.000 C 
ENDBRANCH  23  26
ENDBRANCH   9  23
TORSDOF 3
ENDMDL
MODEL 5
REMARK VINA RESULT:      -7.9      2.736      7.928
REMARK  Name = 
REMARK  6 active torsions:
REMARK  status: ('A' for Active; 'I' for Inactive)
REMARK    1  A    between atoms: C_1  and  C_2
REMARK    2  A    between atoms: C_4  and  C_5
REMARK    3  A    between atoms: C_13  and  S_14
REMARK    4  A    between atoms: S_14  and  N_17
REMARK    5  A    between atoms: N_17  and  C_18
REMARK    6  A    between atoms: N_17  and  C_19
REMARK                            x       y       z     vdW  Elec       q    Type
REMARK                         _______ _______ _______ _____ _____    ______ ____
ROOT
ATOM      1  C   UNL     1       2.742   7.865  17.939  0.00  0.00    +0.000 C 
ATOM      2  O   UNL     1       2.596   8.704  17.054  0.00  0.00    +0.000 OA
ATOM      3  N   UNL     1       2.133   7.941  19.201  0.00  0.00    +0.000 N 
ATOM      4  C   UNL     1       2.430   7.101  20.380  0.00  0.00    +0.000 C 
ATOM      5  C   UNL     1       1.442   7.446  21.490  0.00  0.00    +0.000 C 
ATOM      6  C   UNL     1       0.748   8.631  20.916  0.00  0.00    +0.000 A 
ATOM      7  C   UNL     1      -0.218   9.394  21.560  0.00  0.00    +0.000 A 
ATOM      8  C   UNL     1      -0.807  10.437  20.856  0.00  0.00    +0.000 A 
ATOM      9  C   UNL     1      -0.412  10.693  19.531  0.00  0.00    +0.000 A 
ATOM     10  C   UNL     1       0.549   9.896  18.875  0.00  0.00    +0.000 A 
ATOM     11  C   UNL     1       1.141   8.873  19.596  0.00  0.00    +0.000 A 
ENDROOT
BRANCH   1  15
ATOM     12  C   UNL     1       7.270   5.951  17.068  0.00  0.00    +0.000 C 
ATOM     13  C   UNL     1       5.791   5.776  17.234  0.00  0.00    +0.000 A 
ATOM     14  C   UNL     1       4.945   6.867  17.300  0.00  0.00    +0.000 A 
ATOM     15  C   UNL     1       3.603   6.670  17.635  0.00  0.00    +0.000 A 
ATOM     16  C   UNL     1       3.089   5.344  17.699  0.00  0.00    +0.000 A 
ATOM     17  C   UNL     1       1.729   4.984  17.890  0.00  0.00    +0.000 A 
ATOM     18  C   UNL     1       1.325   3.647  17.918  0.00  0.00    +0.000 A 
ATOM     19  C   UNL     1       2.268   2.641  17.782  0.00  0.00    +0.000 A 
ATOM     20  C   UNL     1       3.609   2.980  17.607  0.00  0.00    +0.000 A 
ATOM     21  C   UNL     1       4.032   4.300  17.553  0.00  0.00    +0.000 A 
ATOM     22  N   UNL     1       5.343   4.514  17.367  0.00  0.00    +0.000 NA
ENDBRANCH   1  15
BRANCH   9  23
ATOM     23  S   UNL     1      -1.168  12.053  18.661  0.00  0.00    +0.000 S 
ATOM     24  O   UNL     1      -0.141  13.046  18.431  0.00  0.00    +0.000 OA
ATOM     25  O   UNL     1      -1.928  11.501  17.557  0.00  0.00    +0.000 OA
BRANCH  23  26
ATOM     26  N   UNL     1      -2.264  12.669  19.811  0.00  0.00    +0.000 NA
ATOM     27  C   UNL     1      -1.980  14.005  20.360  0.00  0.00    +0.000 C 
ATOM     28  C   UNL     1      -3.695  12.448  19.527  0.00  0.00    +0.000 C 
ENDBRANCH  23  26
ENDBRANCH   9  23
TORSDOF 3
ENDMDL
MODEL 6
REMARK VINA RESULT:      -7.7      2.967      8.026
REMARK  Name = 
REMARK  6 active torsions:
REMARK  status: ('A' for Active; 'I' for Inactive)
REMARK    1  A    between atoms: C_1  and  C_2
REMARK    2  A    between atoms: C_4  and  C_5
REMARK    3  A    between atoms: C_13  and  S_14
REMARK    4  A    between atoms: S_14  and  N_17
REMARK    5  A    between atoms: N_17  and  C_18
REMARK    6  A    between atoms: N_17  and  C_19
REMARK                            x       y       z     vdW  Elec       q    Type
REMARK                         _______ _______ _______ _____ _____    ______ ____
ROOT
ATOM      1  C   UNL     1       2.457   7.715  18.262  0.00  0.00    +0.000 C 
ATOM      2  O   UNL     1       2.703   8.492  17.344  0.00  0.00    +0.000 OA
ATOM      3  N   UNL     1       1.868   8.096  19.477  0.00  0.00    +0.000 N 
ATOM      4  C   UNL     1       1.744   7.272  20.699  0.00  0.00    +0.000 C 
ATOM      5  C   UNL     1       0.923   8.043  21.728  0.00  0.00    +0.000 C 
ATOM      6  C   UNL     1       0.791   9.373  21.073  0.00  0.00    +0.000 A 
ATOM      7  C   UNL     1       0.182  10.491  21.627  0.00  0.00    +0.000 A 
ATOM      8  C   UNL     1       0.096  11.643  20.854  0.00  0.00    +0.000 A 
ATOM      9  C   UNL     1       0.626  11.647  19.552  0.00  0.00    +0.000 A 
ATOM     10  C   UNL     1       1.218  10.499  18.986  0.00  0.00    +0.000 A 
ATOM     11  C   UNL     1       1.314   9.366  19.776  0.00  0.00    +0.000 A 
ENDROOT
BRANCH   1  15
ATOM     12  C   UNL     1       1.022   2.936  18.430  0.00  0.00    +0.000 C 
ATOM     13  C   UNL     1       2.059   3.976  18.130  0.00  0.00    +0.000 A 
ATOM     14  C   UNL     1       1.880   5.294  18.508  0.00  0.00    +0.000 A 
ATOM     15  C   UNL     1       2.780   6.260  18.053  0.00  0.00    +0.000 A 
ATOM     16  C   UNL     1       3.969   5.848  17.390  0.00  0.00    +0.000 A 
ATOM     17  C   UNL     1       5.040   6.691  16.992  0.00  0.00    +0.000 A 
ATOM     18  C   UNL     1       6.177   6.180  16.360  0.00  0.00    +0.000 A 
ATOM     19  C   UNL     1       6.260   4.824  16.089  0.00  0.00    +0.000 A 
ATOM     20  C   UNL     1       5.211   3.986  16.461  0.00  0.00    +0.000 A 
ATOM     21  C   UNL     1       4.082   4.466  17.110  0.00  0.00    +0.000 A 
ATOM     22  N   UNL     1       3.138   3.570  17.435  0.00  0.00    +0.000 NA
ENDBRANCH   1  15
BRANCH   9  23
ATOM     23  S   UNL     1       0.522  13.146  18.591  0.00  0.00    +0.000 S 
ATOM     24  O   UNL     1       1.778  13.299  17.889  0.00  0.00    +0.000 OA
ATOM     25  O   UNL     1      -0.734  13.120  17.869  0.00  0.00    +0.000 OA
BRANCH  23  26
ATOM     26  N   UNL     1       0.426  14.352  19.791  0.00  0.00    +0.000 NA
ATOM     27  C   UNL     1       1.668  15.069  20.123  0.00  0.00    +0.000 C 
ATOM     28  C   UNL     1      -0.757  15.232  19.733  0.00  0.00    +0.000 C 
ENDBRANCH  23  26
ENDBRANCH   9  23
TORSDOF 3
ENDMDL
MODEL 7
REMARK VINA RESULT:      -7.7      1.943      3.119
REMARK  Name = 
REMARK  6 active torsions:
REMARK  status: ('A' for Active; 'I' for Inactive)
REMARK    1  A    between atoms: C_1  and  C_2
REMARK    2  A    between atoms: C_4  and  C_5
REMARK    3  A    between atoms: C_13  and  S_14
REMARK    4  A    between atoms: S_14  and  N_17
REMARK    5  A    between atoms: N_17  and  C_18
REMARK    6  A    between atoms: N_17  and  C_19
REMARK                            x       y       z     vdW  Elec       q    Type
REMARK                         _______ _______ _______ _____ _____    ______ ____
ROOT
ATOM      1  C   UNL     1       2.234   8.247  18.216  0.00  0.00    +0.000 C 
ATOM      2  O   UNL     1       2.938   8.716  17.326  0.00  0.00    +0.000 OA
ATOM      3  N   UNL     1       2.442   6.987  18.798  0.00  0.00    +0.000 N 
ATOM      4  C   UNL     1       1.522   6.268  19.706  0.00  0.00    +0.000 C 
ATOM      5  C   UNL     1       2.210   4.996  20.193  0.00  0.00    +0.000 C 
ATOM      6  C   UNL     1       3.440   4.980  19.355  0.00  0.00    +0.000 A 
ATOM      7  C   UNL     1       4.401   3.976  19.347  0.00  0.00    +0.000 A 
ATOM      8  C   UNL     1       5.520   4.146  18.542  0.00  0.00    +0.000 A 
ATOM      9  C   UNL     1       5.647   5.309  17.762  0.00  0.00    +0.000 A 
ATOM     10  C   UNL     1       4.681   6.336  17.797  0.00  0.00    +0.000 A 
ATOM     11  C   UNL     1       3.561   6.144  18.589  0.00  0.00    +0.000 A 
ENDROOT
BRANCH   1  15
ATOM     12  C   UNL     1      -1.987  10.763  17.337  0.00  0.00    +0.000 C 
ATOM     13  C   UNL     1      -0.931  10.280  18.284  0.00  0.00    +0.000 A 
ATOM     14  C   UNL     1       0.230   9.689  17.820  0.00  0.00    +0.000 A 
ATOM     15  C   UNL     1       1.102   9.092  18.733  0.00  0.00    +0.000 A 
ATOM     16  C   UNL     1       0.889   9.282  20.127  0.00  0.00    +0.000 A 
ATOM     17  C   UNL     1       1.755   8.860  21.170  0.00  0.00    +0.000 A 
ATOM     18  C   UNL     1       1.460   9.114  22.512  0.00  0.00    +0.000 A 
ATOM     19  C   UNL     1       0.286   9.771  22.845  0.00  0.00    +0.000 A 
ATOM     20  C   UNL     1      -0.580  10.180  21.832  0.00  0.00    +0.000 A 
ATOM     21  C   UNL     1      -0.298   9.959  20.492  0.00  0.00    +0.000 A 
ATOM     22  N   UNL     1      -1.194  10.405  19.599  0.00  0.00    +0.000 NA
ENDBRANCH   1  15
BRANCH   9  23
ATOM     23  S   UNL     1       7.083   5.489  16.721  0.00  0.00    +0.000 S 
ATOM     24  O   UNL     1       7.519   6.865  16.817  0.00  0.00    +0.000 OA
ATOM     25  O   UNL     1       7.988   4.400  17.028  0.00  0.00    +0.000 OA
BRANCH  23  26
ATOM     26  N   UNL     1       6.447   5.233  15.161  0.00  0.00    +0.000 NA
ATOM     27  C   UNL     1       7.397   5.253  14.037  0.00  0.00    +0.000 C 
ATOM     28  C   UNL     1       5.427   4.173  15.042  0.00  0.00    +0.000 C 
ENDBRANCH  23  26
ENDBRANCH   9  23
TORSDOF 3
ENDMDL
MODEL 8
REMARK VINA RESULT:      -7.6      2.785      3.582
REMARK  Name = 
REMARK  6 active torsions:
REMARK  status: ('A' for Active; 'I' for Inactive)
REMARK    1  A    between atoms: C_1  and  C_2
REMARK    2  A    between atoms: C_4  and  C_5
REMARK    3  A    between atoms: C_13  and  S_14
REMARK    4  A    between atoms: S_14  and  N_17
REMARK    5  A    between atoms: N_17  and  C_18
REMARK    6  A    between atoms: N_17  and  C_19
REMARK                            x       y       z     vdW  Elec       q    Type
REMARK                         _______ _______ _______ _____ _____    ______ ____
ROOT
ATOM      1  C   UNL     1       0.996   8.756  20.237  0.00  0.00    +0.000 C 
ATOM      2  O   UNL     1       0.669   8.078  21.207  0.00  0.00    +0.000 OA
ATOM      3  N   UNL     1       1.898   8.331  19.250  0.00  0.00    +0.000 N 
ATOM      4  C   UNL     1       2.503   9.160  18.186  0.00  0.00    +0.000 C 
ATOM      5  C   UNL     1       3.318   8.258  17.265  0.00  0.00    +0.000 C 
ATOM      6  C   UNL     1       3.276   6.963  17.999  0.00  0.00    +0.000 A 
ATOM      7  C   UNL     1       3.934   5.798  17.624  0.00  0.00    +0.000 A 
ATOM      8  C   UNL     1       3.742   4.659  18.395  0.00  0.00    +0.000 A 
ATOM      9  C   UNL     1       2.902   4.715  19.521  0.00  0.00    +0.000 A 
ATOM     10  C   UNL     1       2.215   5.893  19.879  0.00  0.00    +0.000 A 
ATOM     11  C   UNL     1       2.433   7.026  19.112  0.00  0.00    +0.000 A 
ENDROOT
BRANCH   1  15
ATOM     12  C   UNL     1       0.785  13.562  21.569  0.00  0.00    +0.000 C 
ATOM     13  C   UNL     1       0.294  12.419  20.735  0.00  0.00    +0.000 A 
ATOM     14  C   UNL     1       0.697  11.121  20.992  0.00  0.00    +0.000 A 
ATOM     15  C   UNL     1       0.363  10.112  20.085  0.00  0.00    +0.000 A 
ATOM     16  C   UNL     1      -0.552  10.396  19.033  0.00  0.00    +0.000 A 
ATOM     17  C   UNL     1      -1.093   9.453  18.120  0.00  0.00    +0.000 A 
ATOM     18  C   UNL     1      -2.003   9.835  17.130  0.00  0.00    +0.000 A 
ATOM     19  C   UNL     1      -2.373  11.165  17.013  0.00  0.00    +0.000 A 
ATOM     20  C   UNL     1      -1.839  12.104  17.894  0.00  0.00    +0.000 A 
ATOM     21  C   UNL     1      -0.952  11.746  18.899  0.00  0.00    +0.000 A 
ATOM     22  N   UNL     1      -0.510  12.727  19.700  0.00  0.00    +0.000 NA
ENDBRANCH   1  15
BRANCH   9  23
ATOM     23  S   UNL     1       2.692   3.243  20.506  0.00  0.00    +0.000 S 
ATOM     24  O   UNL     1       4.012   2.754  20.842  0.00  0.00    +0.000 OA
ATOM     25  O   UNL     1       1.724   3.540  21.542  0.00  0.00    +0.000 OA
BRANCH  23  26
ATOM     26  N   UNL     1       1.981   2.155  19.403  0.00  0.00    +0.000 NA
ATOM     27  C   UNL     1       0.714   2.568  18.778  0.00  0.00    +0.000 C 
ATOM     28  C   UNL     1       2.903   1.486  18.465  0.00  0.00    +0.000 C 
ENDBRANCH  23  26
ENDBRANCH   9  23
TORSDOF 3
ENDMDL
MODEL 9
REMARK VINA RESULT:      -7.6      1.717      2.902
REMARK  Name = 
REMARK  6 active torsions:
REMARK  status: ('A' for Active; 'I' for Inactive)
REMARK    1  A    between atoms: C_1  and  C_2
REMARK    2  A    between atoms: C_4  and  C_5
REMARK    3  A    between atoms: C_13  and  S_14
REMARK    4  A    between atoms: S_14  and  N_17
REMARK    5  A    between atoms: N_17  and  C_18
REMARK    6  A    between atoms: N_17  and  C_19
REMARK                            x       y       z     vdW  Elec       q    Type
REMARK                         _______ _______ _______ _____ _____    ______ ____
ROOT
ATOM      1  C   UNL     1       2.243   8.234  18.236  0.00  0.00    +0.000 C 
ATOM      2  O   UNL     1       3.023   8.757  17.445  0.00  0.00    +0.000 OA
ATOM      3  N   UNL     1       2.368   6.918  18.707  0.00  0.00    +0.000 N 
ATOM      4  C   UNL     1       1.364   6.154  19.478  0.00  0.00    +0.000 C 
ATOM      5  C   UNL     1       1.973   4.817  19.886  0.00  0.00    +0.000 C 
ATOM      6  C   UNL     1       3.259   4.831  19.135  0.00  0.00    +0.000 A 
ATOM      7  C   UNL     1       4.185   3.796  19.097  0.00  0.00    +0.000 A 
ATOM      8  C   UNL     1       5.363   3.996  18.389  0.00  0.00    +0.000 A 
ATOM      9  C   UNL     1       5.582   5.221  17.735  0.00  0.00    +0.000 A 
ATOM     10  C   UNL     1       4.650   6.277  17.803  0.00  0.00    +0.000 A 
ATOM     11  C   UNL     1       3.472   6.055  18.495  0.00  0.00    +0.000 A 
ENDROOT
BRANCH   1  15
ATOM     12  C   UNL     1      -1.977  10.751  17.355  0.00  0.00    +0.000 C 
ATOM     13  C   UNL     1      -0.927  10.259  18.304  0.00  0.00    +0.000 A 
ATOM     14  C   UNL     1       0.238   9.676  17.842  0.00  0.00    +0.000 A 
ATOM     15  C   UNL     1       1.105   9.071  18.755  0.00  0.00    +0.000 A 
ATOM     16  C   UNL     1       0.881   9.245  20.149  0.00  0.00    +0.000 A 
ATOM     17  C   UNL     1       1.740   8.813  21.193  0.00  0.00    +0.000 A 
ATOM     18  C   UNL     1       1.435   9.051  22.536  0.00  0.00    +0.000 A 
ATOM     19  C   UNL     1       0.257   9.702  22.867  0.00  0.00    +0.000 A 
ATOM     20  C   UNL     1      -0.602  10.120  21.853  0.00  0.00    +0.000 A 
ATOM     21  C   UNL     1      -0.310   9.915  20.512  0.00  0.00    +0.000 A 
ATOM     22  N   UNL     1      -1.200  10.369  19.617  0.00  0.00    +0.000 NA
ENDBRANCH   1  15
BRANCH   9  23
ATOM     23  S   UNL     1       7.094   5.441  16.814  0.00  0.00    +0.000 S 
ATOM     24  O   UNL     1       7.811   4.186  16.853  0.00  0.00    +0.000 OA
ATOM     25  O   UNL     1       6.753   6.063  15.550  0.00  0.00    +0.000 OA
BRANCH  23  26
ATOM     26  N   UNL     1       7.943   6.576  17.759  0.00  0.00    +0.000 NA
ATOM     27  C   UNL     1       7.654   8.000  17.519  0.00  0.00    +0.000 C 
ATOM     28  C   UNL     1       8.096   6.247  19.189  0.00  0.00    +0.000 C 
ENDBRANCH  23  26
ENDBRANCH   9  23
TORSDOF 3
ENDMDL
