MODEL 1
REMARK VINA RESULT:      -9.8      0.000      0.000
REMARK  Name = 
REMARK  9 active torsions:
REMARK  status: ('A' for Active; 'I' for Inactive)
REMARK    1  A    between atoms: C_1  and  C_2
REMARK    2  A    between atoms: N_4  and  C_5
REMARK    3  A    between atoms: C_5  and  C_6
REMARK    4  A    between atoms: C_10  and  C_11
REMARK    5  A    between atoms: N_17  and  C_18
REMARK    6  A    between atoms: C_22  and  C_23
REMARK    7  A    between atoms: C_23  and  C_24
REMARK    8  A    between atoms: C_24  and  C_25
REMARK    9  A    between atoms: N_29  and  C_30
REMARK                            x       y       z     vdW  Elec       q    Type
REMARK                         _______ _______ _______ _____ _____    ______ ____
ROOT
ATOM      1  C   UNL     1      -0.609  10.982  19.254  0.00  0.00    +0.000 A 
ATOM      2  C   UNL     1       0.346  10.283  18.507  0.00  0.00    +0.000 A 
ATOM      3  C   UNL     1       1.047   9.282  19.139  0.00  0.00    +0.000 A 
ATOM      4  C   UNL     1       0.905   8.987  20.488  0.00  0.00    +0.000 A 
ATOM      5  C   UNL     1       0.052   9.743  21.287  0.00  0.00    +0.000 A 
ATOM      6  C   UNL     1      -0.729  10.728  20.642  0.00  0.00    +0.000 A 
ATOM      7  C   UNL     1       1.724   7.778  20.811  0.00  0.00    +0.000 C 
ATOM      8  N   UNL     1       2.323   7.424  19.529  0.00  0.00    +0.000 N 
ATOM      9  C   UNL     1       1.943   8.306  18.521  0.00  0.00    +0.000 C 
ATOM     10  O   UNL     1       2.200   8.332  17.331  0.00  0.00    +0.000 OA
ENDROOT
BRANCH   8  11
ATOM     11  C   UNL     1       3.156   6.291  19.364  0.00  0.00    +0.000 A 
ATOM     12  C   UNL     1       2.712   5.004  19.678  0.00  0.00    +0.000 A 
ATOM     13  C   UNL     1       3.539   3.900  19.493  0.00  0.00    +0.000 A 
ATOM     14  C   UNL     1       4.841   4.075  19.031  0.00  0.00    +0.000 A 
ATOM     15  C   UNL     1       5.358   5.353  18.749  0.00  0.00    +0.000 A 
ATOM     16  C   UNL     1       4.466   6.437  18.888  0.00  0.00    +0.000 A 
BRANCH  15  17
ATOM     17  C   UNL     1       6.884   5.578  18.333  0.00  0.00    +0.000 C 
ATOM     18  C   UNL     1       7.331   6.987  17.841  0.00  0.00    +0.000 C 
ATOM     19  O   UNL     1       8.496   6.943  18.712  0.00  0.00    +0.000 OA
ATOM     20  C   UNL     1       7.846   5.923  19.507  0.00  0.00    +0.000 C 
BRANCH  17  21
ATOM     21  C   UNL     1       7.408   4.429  17.453  0.00  0.00    +0.000 C 
BRANCH  21  22
ATOM     22  C   UNL     1       7.080   4.604  16.005  0.00  0.00    +0.000 A 
ATOM     23  N   UNL     1       7.706   5.399  15.158  0.00  0.00    +0.000 NA
ATOM     24  N   UNL     1       7.120   5.262  13.922  0.00  0.00    +0.000 NA
ATOM     25  C   UNL     1       6.152   4.385  14.036  0.00  0.00    +0.000 A 
ATOM     26  N   UNL     1       6.073   3.959  15.329  0.00  0.00    +0.000 N 
ATOM     27  C   UNL     1       5.116   3.015  15.836  0.00  0.00    +0.000 C 
ENDBRANCH  21  22
ENDBRANCH  17  21
ENDBRANCH  15  17
ENDBRANCH   8  11
BRANCH   5  28
ATOM     28  C   UNL     1      -0.071   9.528  22.774  0.00  0.00    +0.000 C 
ATOM     29  F   UNL     1       1.128   9.389  23.403  0.00  0.00    +0.000 F 
ATOM     30  F   UNL     1      -0.695  10.569  23.391  0.00  0.00    +0.000 F 
ATOM     31  F   UNL     1      -0.789   8.416  23.087  0.00  0.00    +0.000 F 
ENDBRANCH   5  28
BRANCH   1  32
ATOM     32  C   UNL     1      -1.565  11.909  18.530  0.00  0.00    +0.000 C 
BRANCH  32  36
ATOM     33  C   UNL     1      -3.560  10.187  14.310  0.00  0.00    +0.000 C 
ATOM     34  C   UNL     1      -3.791  10.350  15.808  0.00  0.00    +0.000 C 
ATOM     35  C   UNL     1      -2.529  10.927  16.486  0.00  0.00    +0.000 C 
ATOM     36  N   UNL     1      -2.719  11.205  17.931  0.00  0.00    +0.000 NA
ATOM     37  C   UNL     1      -3.932  12.042  18.083  0.00  0.00    +0.000 C 
ATOM     38  C   UNL     1      -5.154  11.416  17.392  0.00  0.00    +0.000 C 
ATOM     39  O   UNL     1      -4.912  11.226  15.993  0.00  0.00    +0.000 OA
ENDBRANCH  32  36
ENDBRANCH   1  32
TORSDOF 7
ENDMDL
MODEL 2
REMARK VINA RESULT:      -9.7      1.561      2.636
REMARK  Name = 
REMARK  9 active torsions:
REMARK  status: ('A' for Active; 'I' for Inactive)
REMARK    1  A    between atoms: C_1  and  C_2
REMARK    2  A    between atoms: N_4  and  C_5
REMARK    3  A    between atoms: C_5  and  C_6
REMARK    4  A    between atoms: C_10  and  C_11
REMARK    5  A    between atoms: N_17  and  C_18
REMARK    6  A    between atoms: C_22  and  C_23
REMARK    7  A    between atoms: C_23  and  C_24
REMARK    8  A    between atoms: C_24  and  C_25
REMARK    9  A    between atoms: N_29  and  C_30
REMARK                            x       y       z     vdW  Elec       q    Type
REMARK                         _______ _______ _______ _____ _____    ______ ____
ROOT
ATOM      1  C   UNL     1      -0.098  11.325  19.268  0.00  0.00    +0.000 A 
ATOM      2  C   UNL     1       0.810  10.561  18.528  0.00  0.00    +0.000 A 
ATOM      3  C   UNL     1       1.298   9.409  19.103  0.00  0.00    +0.000 A 
ATOM      4  C   UNL     1       0.991   9.017  20.399  0.00  0.00    +0.000 A 
ATOM      5  C   UNL     1       0.186   9.817  21.204  0.00  0.00    +0.000 A 
ATOM      6  C   UNL     1      -0.382  10.966  20.607  0.00  0.00    +0.000 A 
ATOM      7  C   UNL     1       1.592   7.672  20.656  0.00  0.00    +0.000 C 
ATOM      8  N   UNL     1       2.250   7.350  19.393  0.00  0.00    +0.000 N 
ATOM      9  C   UNL     1       2.097   8.369  18.458  0.00  0.00    +0.000 C 
ATOM     10  O   UNL     1       2.463   8.465  17.300  0.00  0.00    +0.000 OA
ENDROOT
BRANCH   8  11
ATOM     11  C   UNL     1       2.921   6.123  19.176  0.00  0.00    +0.000 A 
ATOM     12  C   UNL     1       2.799   5.053  20.066  0.00  0.00    +0.000 A 
ATOM     13  C   UNL     1       3.453   3.848  19.826  0.00  0.00    +0.000 A 
ATOM     14  C   UNL     1       4.276   3.713  18.712  0.00  0.00    +0.000 A 
ATOM     15  C   UNL     1       4.477   4.774  17.810  0.00  0.00    +0.000 A 
ATOM     16  C   UNL     1       3.745   5.955  18.054  0.00  0.00    +0.000 A 
BRANCH  15  17
ATOM     17  C   UNL     1       5.510   4.671  16.595  0.00  0.00    +0.000 C 
ATOM     18  C   UNL     1       5.246   3.628  15.468  0.00  0.00    +0.000 C 
ATOM     19  O   UNL     1       5.509   4.633  14.449  0.00  0.00    +0.000 OA
ATOM     20  C   UNL     1       5.262   5.671  15.428  0.00  0.00    +0.000 C 
BRANCH  17  21
ATOM     21  C   UNL     1       6.968   4.681  17.087  0.00  0.00    +0.000 C 
BRANCH  21  22
ATOM     22  C   UNL     1       7.456   6.049  17.444  0.00  0.00    +0.000 A 
ATOM     23  N   UNL     1       7.530   7.084  16.629  0.00  0.00    +0.000 NA
ATOM     24  N   UNL     1       8.008   8.160  17.338  0.00  0.00    +0.000 NA
ATOM     25  C   UNL     1       8.215   7.764  18.570  0.00  0.00    +0.000 A 
ATOM     26  N   UNL     1       7.904   6.441  18.682  0.00  0.00    +0.000 N 
ATOM     27  C   UNL     1       8.027   5.656  19.879  0.00  0.00    +0.000 C 
ENDBRANCH  21  22
ENDBRANCH  17  21
ENDBRANCH  15  17
ENDBRANCH   8  11
BRANCH   5  28
ATOM     28  C   UNL     1      -0.104   9.488  22.646  0.00  0.00    +0.000 C 
ATOM     29  F   UNL     1       1.016   9.276  23.390  0.00  0.00    +0.000 F 
ATOM     30  F   UNL     1      -0.781  10.488  23.273  0.00  0.00    +0.000 F 
ATOM     31  F   UNL     1      -0.865   8.369  22.787  0.00  0.00    +0.000 F 
ENDBRANCH   5  28
BRANCH   1  32
ATOM     32  C   UNL     1      -0.838  12.451  18.573  0.00  0.00    +0.000 C 
BRANCH  32  36
ATOM     33  C   UNL     1      -5.693  11.513  19.135  0.00  0.00    +0.000 C 
ATOM     34  C   UNL     1      -4.535  11.478  18.143  0.00  0.00    +0.000 C 
ATOM     35  C   UNL     1      -3.269  12.098  18.773  0.00  0.00    +0.000 C 
ATOM     36  N   UNL     1      -2.075  12.006  17.897  0.00  0.00    +0.000 NA
ATOM     37  C   UNL     1      -1.921  10.593  17.478  0.00  0.00    +0.000 C 
ATOM     38  C   UNL     1      -3.209  10.032  16.857  0.00  0.00    +0.000 C 
ATOM     39  O   UNL     1      -4.302  10.110  17.780  0.00  0.00    +0.000 OA
ENDBRANCH  32  36
ENDBRANCH   1  32
TORSDOF 7
ENDMDL
MODEL 3
REMARK VINA RESULT:      -9.2      2.664      3.984
REMARK  Name = 
REMARK  9 active torsions:
REMARK  status: ('A' for Active; 'I' for Inactive)
REMARK    1  A    between atoms: C_1  and  C_2
REMARK    2  A    between atoms: N_4  and  C_5
REMARK    3  A    between atoms: C_5  and  C_6
REMARK    4  A    between atoms: C_10  and  C_11
REMARK    5  A    between atoms: N_17  and  C_18
REMARK    6  A    between atoms: C_22  and  C_23
REMARK    7  A    between atoms: C_23  and  C_24
REMARK    8  A    between atoms: C_24  and  C_25
REMARK    9  A    between atoms: N_29  and  C_30
REMARK                            x       y       z     vdW  Elec       q    Type
REMARK                         _______ _______ _______ _____ _____    ______ ____
ROOT
ATOM      1  C   UNL     1       0.193  11.575  19.274  0.00  0.00    +0.000 A 
ATOM      2  C   UNL     1       1.055  10.771  18.519  0.00  0.00    +0.000 A 
ATOM      3  C   UNL     1       1.426   9.556  19.047  0.00  0.00    +0.000 A 
ATOM      4  C   UNL     1       1.049   9.129  20.313  0.00  0.00    +0.000 A 
ATOM      5  C   UNL     1       0.291   9.956  21.137  0.00  0.00    +0.000 A 
ATOM      6  C   UNL     1      -0.159  11.176  20.586  0.00  0.00    +0.000 A 
ATOM      7  C   UNL     1       1.526   7.726  20.516  0.00  0.00    +0.000 C 
ATOM      8  N   UNL     1       2.191   7.410  19.256  0.00  0.00    +0.000 N 
ATOM      9  C   UNL     1       2.152   8.483  18.369  0.00  0.00    +0.000 C 
ATOM     10  O   UNL     1       2.559   8.603  17.228  0.00  0.00    +0.000 OA
ENDROOT
BRANCH   8  11
ATOM     11  C   UNL     1       2.762   6.142  18.993  0.00  0.00    +0.000 A 
ATOM     12  C   UNL     1       2.442   5.021  19.763  0.00  0.00    +0.000 A 
ATOM     13  C   UNL     1       3.001   3.778  19.478  0.00  0.00    +0.000 A 
ATOM     14  C   UNL     1       3.923   3.650  18.444  0.00  0.00    +0.000 A 
ATOM     15  C   UNL     1       4.321   4.755  17.669  0.00  0.00    +0.000 A 
ATOM     16  C   UNL     1       3.683   5.982  17.948  0.00  0.00    +0.000 A 
BRANCH  15  17
ATOM     17  C   UNL     1       5.465   4.645  16.559  0.00  0.00    +0.000 C 
ATOM     18  C   UNL     1       5.298   3.612  15.405  0.00  0.00    +0.000 C 
ATOM     19  O   UNL     1       5.671   4.619  14.423  0.00  0.00    +0.000 OA
ATOM     20  C   UNL     1       5.342   5.654  15.380  0.00  0.00    +0.000 C 
BRANCH  17  21
ATOM     21  C   UNL     1       6.869   4.635  17.189  0.00  0.00    +0.000 C 
BRANCH  21  22
ATOM     22  C   UNL     1       7.388   6.006  17.485  0.00  0.00    +0.000 A 
ATOM     23  N   UNL     1       7.414   7.023  16.645  0.00  0.00    +0.000 NA
ATOM     24  N   UNL     1       7.946   8.110  17.298  0.00  0.00    +0.000 NA
ATOM     25  C   UNL     1       8.231   7.738  18.522  0.00  0.00    +0.000 A 
ATOM     26  N   UNL     1       7.919   6.420  18.682  0.00  0.00    +0.000 N 
ATOM     27  C   UNL     1       8.116   5.659  19.884  0.00  0.00    +0.000 C 
ENDBRANCH  21  22
ENDBRANCH  17  21
ENDBRANCH  15  17
ENDBRANCH   8  11
BRANCH   5  28
ATOM     28  C   UNL     1      -0.068   9.583  22.553  0.00  0.00    +0.000 C 
ATOM     29  F   UNL     1       1.011   9.266  23.321  0.00  0.00    +0.000 F 
ATOM     30  F   UNL     1      -0.701  10.596  23.204  0.00  0.00    +0.000 F 
ATOM     31  F   UNL     1      -0.902   8.510  22.619  0.00  0.00    +0.000 F 
ENDBRANCH   5  28
BRANCH   1  32
ATOM     32  C   UNL     1      -0.428  12.792  18.619  0.00  0.00    +0.000 C 
BRANCH  32  36
ATOM     33  C   UNL     1       4.104  14.824  18.320  0.00  0.00    +0.000 C 
ATOM     34  C   UNL     1       2.655  15.090  18.711  0.00  0.00    +0.000 C 
ATOM     35  C   UNL     1       1.772  13.872  18.363  0.00  0.00    +0.000 C 
ATOM     36  N   UNL     1       0.364  14.025  18.809  0.00  0.00    +0.000 NA
ATOM     37  C   UNL     1       0.375  14.382  20.246  0.00  0.00    +0.000 C 
ATOM     38  C   UNL     1       1.265  15.601  20.532  0.00  0.00    +0.000 C 
ATOM     39  O   UNL     1       2.616  15.358  20.120  0.00  0.00    +0.000 OA
ENDBRANCH  32  36
ENDBRANCH   1  32
TORSDOF 7
ENDMDL
MODEL 4
REMARK VINA RESULT:      -9.0      2.728      9.179
REMARK  Name = 
REMARK  9 active torsions:
REMARK  status: ('A' for Active; 'I' for Inactive)
REMARK    1  A    between atoms: C_1  and  C_2
REMARK    2  A    between atoms: N_4  and  C_5
REMARK    3  A    between atoms: C_5  and  C_6
REMARK    4  A    between atoms: C_10  and  C_11
REMARK    5  A    between atoms: N_17  and  C_18
REMARK    6  A    between atoms: C_22  and  C_23
REMARK    7  A    between atoms: C_23  and  C_24
REMARK    8  A    between atoms: C_24  and  C_25
REMARK    9  A    between atoms: N_29  and  C_30
REMARK                            x       y       z     vdW  Elec       q    Type
REMARK                         _______ _______ _______ _____ _____    ______ ____
ROOT
ATOM      1  C   UNL     1       3.613   4.059  18.027  0.00  0.00    +0.000 A 
ATOM      2  C   UNL     1       3.144   5.363  17.832  0.00  0.00    +0.000 A 
ATOM      3  C   UNL     1       2.455   5.959  18.863  0.00  0.00    +0.000 A 
ATOM      4  C   UNL     1       2.142   5.305  20.048  0.00  0.00    +0.000 A 
ATOM      5  C   UNL     1       2.489   3.969  20.226  0.00  0.00    +0.000 A 
ATOM      6  C   UNL     1       3.259   3.363  19.208  0.00  0.00    +0.000 A 
ATOM      7  C   UNL     1       1.498   6.277  20.984  0.00  0.00    +0.000 C 
ATOM      8  N   UNL     1       1.487   7.522  20.224  0.00  0.00    +0.000 N 
ATOM      9  C   UNL     1       2.043   7.358  18.958  0.00  0.00    +0.000 C 
ATOM     10  O   UNL     1       2.242   8.150  18.055  0.00  0.00    +0.000 OA
ENDROOT
BRANCH   8  11
ATOM     11  C   UNL     1       0.995   8.737  20.759  0.00  0.00    +0.000 A 
ATOM     12  C   UNL     1       0.320   8.778  21.981  0.00  0.00    +0.000 A 
ATOM     13  C   UNL     1      -0.142   9.985  22.500  0.00  0.00    +0.000 A 
ATOM     14  C   UNL     1       0.028  11.163  21.778  0.00  0.00    +0.000 A 
ATOM     15  C   UNL     1       0.655  11.172  20.518  0.00  0.00    +0.000 A 
ATOM     16  C   UNL     1       1.165   9.940  20.060  0.00  0.00    +0.000 A 
BRANCH  15  17
ATOM     17  C   UNL     1       0.750  12.496  19.628  0.00  0.00    +0.000 C 
ATOM     18  C   UNL     1       0.633  13.884  20.326  0.00  0.00    +0.000 C 
ATOM     19  O   UNL     1       1.794  14.371  19.596  0.00  0.00    +0.000 OA
ATOM     20  C   UNL     1       2.195  13.002  19.347  0.00  0.00    +0.000 C 
BRANCH  17  21
ATOM     21  C   UNL     1      -0.099  12.383  18.350  0.00  0.00    +0.000 C 
BRANCH  21  22
ATOM     22  C   UNL     1      -1.544  12.118  18.628  0.00  0.00    +0.000 A 
ATOM     23  N   UNL     1      -2.306  12.785  19.474  0.00  0.00    +0.000 NA
ATOM     24  N   UNL     1      -3.573  12.252  19.429  0.00  0.00    +0.000 NA
ATOM     25  C   UNL     1      -3.561  11.274  18.555  0.00  0.00    +0.000 A 
ATOM     26  N   UNL     1      -2.306  11.137  18.041  0.00  0.00    +0.000 N 
ATOM     27  C   UNL     1      -1.907  10.153  17.074  0.00  0.00    +0.000 C 
ENDBRANCH  21  22
ENDBRANCH  17  21
ENDBRANCH  15  17
ENDBRANCH   8  11
BRANCH   5  28
ATOM     28  C   UNL     1       2.094   3.184  21.451  0.00  0.00    +0.000 C 
ATOM     29  F   UNL     1       0.774   2.856  21.483  0.00  0.00    +0.000 F 
ATOM     30  F   UNL     1       2.770   2.006  21.543  0.00  0.00    +0.000 F 
ATOM     31  F   UNL     1       2.342   3.855  22.608  0.00  0.00    +0.000 F 
ENDBRANCH   5  28
BRANCH   1  32
ATOM     32  C   UNL     1       4.581   3.474  17.019  0.00  0.00    +0.000 C 
BRANCH  32  36
ATOM     33  C   UNL     1       7.122   4.396  12.842  0.00  0.00    +0.000 C 
ATOM     34  C   UNL     1       6.633   5.007  14.150  0.00  0.00    +0.000 C 
ATOM     35  C   UNL     1       5.732   4.007  14.907  0.00  0.00    +0.000 C 
ATOM     36  N   UNL     1       5.302   4.502  16.238  0.00  0.00    +0.000 NA
ATOM     37  C   UNL     1       6.511   4.922  16.985  0.00  0.00    +0.000 C 
ATOM     38  C   UNL     1       7.365   5.917  16.185  0.00  0.00    +0.000 C 
ATOM     39  O   UNL     1       7.783   5.350  14.937  0.00  0.00    +0.000 OA
ENDBRANCH  32  36
ENDBRANCH   1  32
TORSDOF 7
ENDMDL
MODEL 5
REMARK VINA RESULT:      -8.9      3.534      9.235
REMARK  Name = 
REMARK  9 active torsions:
REMARK  status: ('A' for Active; 'I' for Inactive)
REMARK    1  A    between atoms: C_1  and  C_2
REMARK    2  A    between atoms: N_4  and  C_5
REMARK    3  A    between atoms: C_5  and  C_6
REMARK    4  A    between atoms: C_10  and  C_11
REMARK    5  A    between atoms: N_17  and  C_18
REMARK    6  A    between atoms: C_22  and  C_23
REMARK    7  A    between atoms: C_23  and  C_24
REMARK    8  A    between atoms: C_24  and  C_25
REMARK    9  A    between atoms: N_29  and  C_30
REMARK                            x       y       z     vdW  Elec       q    Type
REMARK                         _______ _______ _______ _____ _____    ______ ____
ROOT
ATOM      1  C   UNL     1       3.665   4.064  18.020  0.00  0.00    +0.000 A 
ATOM      2  C   UNL     1       3.209   5.372  17.823  0.00  0.00    +0.000 A 
ATOM      3  C   UNL     1       2.508   5.968  18.845  0.00  0.00    +0.000 A 
ATOM      4  C   UNL     1       2.170   5.311  20.021  0.00  0.00    +0.000 A 
ATOM      5  C   UNL     1       2.505   3.972  20.199  0.00  0.00    +0.000 A 
ATOM      6  C   UNL     1       3.287   3.365  19.191  0.00  0.00    +0.000 A 
ATOM      7  C   UNL     1       1.517   6.283  20.951  0.00  0.00    +0.000 C 
ATOM      8  N   UNL     1       1.528   7.532  20.197  0.00  0.00    +0.000 N 
ATOM      9  C   UNL     1       2.103   7.370  18.939  0.00  0.00    +0.000 C 
ATOM     10  O   UNL     1       2.323   8.164  18.043  0.00  0.00    +0.000 OA
ENDROOT
BRANCH   8  11
ATOM     11  C   UNL     1       1.036   8.748  20.729  0.00  0.00    +0.000 A 
ATOM     12  C   UNL     1       0.419   8.802  21.982  0.00  0.00    +0.000 A 
ATOM     13  C   UNL     1      -0.044  10.010  22.496  0.00  0.00    +0.000 A 
ATOM     14  C   UNL     1       0.065  11.175  21.742  0.00  0.00    +0.000 A 
ATOM     15  C   UNL     1       0.630  11.170  20.453  0.00  0.00    +0.000 A 
ATOM     16  C   UNL     1       1.144   9.938  19.997  0.00  0.00    +0.000 A 
BRANCH  15  17
ATOM     17  C   UNL     1       0.652  12.475  19.531  0.00  0.00    +0.000 C 
ATOM     18  C   UNL     1      -0.372  12.590  18.363  0.00  0.00    +0.000 C 
ATOM     19  O   UNL     1      -0.699  13.952  18.757  0.00  0.00    +0.000 OA
ATOM     20  C   UNL     1      -0.163  13.684  20.075  0.00  0.00    +0.000 C 
BRANCH  17  21
ATOM     21  C   UNL     1       2.086  12.858  19.126  0.00  0.00    +0.000 C 
BRANCH  21  22
ATOM     22  C   UNL     1       2.782  13.692  20.153  0.00  0.00    +0.000 A 
ATOM     23  N   UNL     1       2.888  13.412  21.438  0.00  0.00    +0.000 NA
ATOM     24  N   UNL     1       3.615  14.411  22.041  0.00  0.00    +0.000 NA
ATOM     25  C   UNL     1       3.942  15.279  21.114  0.00  0.00    +0.000 A 
ATOM     26  N   UNL     1       3.425  14.883  19.917  0.00  0.00    +0.000 N 
ATOM     27  C   UNL     1       3.557  15.597  18.677  0.00  0.00    +0.000 C 
ENDBRANCH  21  22
ENDBRANCH  17  21
ENDBRANCH  15  17
ENDBRANCH   8  11
BRANCH   5  28
ATOM     28  C   UNL     1       2.083   3.184  21.413  0.00  0.00    +0.000 C 
ATOM     29  F   UNL     1       2.347   3.817  22.589  0.00  0.00    +0.000 F 
ATOM     30  F   UNL     1       0.746   2.932  21.420  0.00  0.00    +0.000 F 
ATOM     31  F   UNL     1       2.698   1.973  21.493  0.00  0.00    +0.000 F 
ENDBRANCH   5  28
BRANCH   1  32
ATOM     32  C   UNL     1       4.646   3.477  17.025  0.00  0.00    +0.000 C 
BRANCH  32  36
ATOM     33  C   UNL     1       7.137   4.353  12.808  0.00  0.00    +0.000 C 
ATOM     34  C   UNL     1       6.644   4.985  14.105  0.00  0.00    +0.000 C 
ATOM     35  C   UNL     1       5.771   3.984  14.892  0.00  0.00    +0.000 C 
ATOM     36  N   UNL     1       5.339   4.501  16.215  0.00  0.00    +0.000 NA
ATOM     37  C   UNL     1       6.544   4.965  16.941  0.00  0.00    +0.000 C 
ATOM     38  C   UNL     1       7.370   5.959  16.112  0.00  0.00    +0.000 C 
ATOM     39  O   UNL     1       7.791   5.372  14.875  0.00  0.00    +0.000 OA
ENDBRANCH  32  36
ENDBRANCH   1  32
TORSDOF 7
ENDMDL
MODEL 6
REMARK VINA RESULT:      -8.8      2.778      9.348
REMARK  Name = 
REMARK  9 active torsions:
REMARK  status: ('A' for Active; 'I' for Inactive)
REMARK    1  A    between atoms: C_1  and  C_2
REMARK    2  A    between atoms: N_4  and  C_5
REMARK    3  A    between atoms: C_5  and  C_6
REMARK    4  A    between atoms: C_10  and  C_11
REMARK    5  A    between atoms: N_17  and  C_18
REMARK    6  A    between atoms: C_22  and  C_23
REMARK    7  A    between atoms: C_23  and  C_24
REMARK    8  A    between atoms: C_24  and  C_25
REMARK    9  A    between atoms: N_29  and  C_30
REMARK                            x       y       z     vdW  Elec       q    Type
REMARK                         _______ _______ _______ _____ _____    ______ ____
ROOT
ATOM      1  C   UNL     1       4.269   4.393  18.414  0.00  0.00    +0.000 A 
ATOM      2  C   UNL     1       3.801   5.685  18.154  0.00  0.00    +0.000 A 
ATOM      3  C   UNL     1       2.857   6.210  19.007  0.00  0.00    +0.000 A 
ATOM      4  C   UNL     1       2.300   5.494  20.059  0.00  0.00    +0.000 A 
ATOM      5  C   UNL     1       2.656   4.166  20.271  0.00  0.00    +0.000 A 
ATOM      6  C   UNL     1       3.675   3.633  19.450  0.00  0.00    +0.000 A 
ATOM      7  C   UNL     1       1.404   6.399  20.843  0.00  0.00    +0.000 C 
ATOM      8  N   UNL     1       1.518   7.675  20.144  0.00  0.00    +0.000 N 
ATOM      9  C   UNL     1       2.369   7.587  19.045  0.00  0.00    +0.000 C 
ATOM     10  O   UNL     1       2.742   8.424  18.243  0.00  0.00    +0.000 OA
ENDROOT
BRANCH   8  11
ATOM     11  C   UNL     1       0.856   8.846  20.584  0.00  0.00    +0.000 A 
ATOM     12  C   UNL     1       0.882   9.243  21.923  0.00  0.00    +0.000 A 
ATOM     13  C   UNL     1       0.239  10.408  22.334  0.00  0.00    +0.000 A 
ATOM     14  C   UNL     1      -0.478  11.168  21.414  0.00  0.00    +0.000 A 
ATOM     15  C   UNL     1      -0.580  10.788  20.063  0.00  0.00    +0.000 A 
ATOM     16  C   UNL     1       0.139   9.639  19.676  0.00  0.00    +0.000 A 
BRANCH  15  17
ATOM     17  C   UNL     1      -1.496  11.587  19.025  0.00  0.00    +0.000 C 
ATOM     18  C   UNL     1      -2.579  10.807  18.221  0.00  0.00    +0.000 C 
ATOM     19  O   UNL     1      -3.569  11.829  18.525  0.00  0.00    +0.000 OA
ATOM     20  C   UNL     1      -2.754  12.268  19.638  0.00  0.00    +0.000 C 
BRANCH  17  21
ATOM     21  C   UNL     1      -0.664  12.547  18.157  0.00  0.00    +0.000 C 
BRANCH  21  22
ATOM     22  C   UNL     1       0.333  13.335  18.945  0.00  0.00    +0.000 A 
ATOM     23  N   UNL     1       0.059  14.322  19.776  0.00  0.00    +0.000 NA
ATOM     24  N   UNL     1       1.240  14.773  20.317  0.00  0.00    +0.000 NA
ATOM     25  C   UNL     1       2.211  14.053  19.809  0.00  0.00    +0.000 A 
ATOM     26  N   UNL     1       1.694  13.151  18.926  0.00  0.00    +0.000 N 
ATOM     27  C   UNL     1       2.459  12.209  18.157  0.00  0.00    +0.000 C 
ENDBRANCH  21  22
ENDBRANCH  17  21
ENDBRANCH  15  17
ENDBRANCH   8  11
BRANCH   5  28
ATOM     28  C   UNL     1       2.015   3.314  21.338  0.00  0.00    +0.000 C 
ATOM     29  F   UNL     1       0.662   3.232  21.227  0.00  0.00    +0.000 F 
ATOM     30  F   UNL     1       2.468   2.031  21.308  0.00  0.00    +0.000 F 
ATOM     31  F   UNL     1       2.261   3.773  22.595  0.00  0.00    +0.000 F 
ENDBRANCH   5  28
BRANCH   1  32
ATOM     32  C   UNL     1       5.478   3.888  17.651  0.00  0.00    +0.000 C 
BRANCH  32  36
ATOM     33  C   UNL     1       6.402   3.662  12.767  0.00  0.00    +0.000 C 
ATOM     34  C   UNL     1       6.281   4.606  13.959  0.00  0.00    +0.000 C 
ATOM     35  C   UNL     1       5.811   3.833  15.210  0.00  0.00    +0.000 C 
ATOM     36  N   UNL     1       5.768   4.674  16.433  0.00  0.00    +0.000 NA
ATOM     37  C   UNL     1       7.085   5.335  16.582  0.00  0.00    +0.000 C 
ATOM     38  C   UNL     1       7.499   6.089  15.309  0.00  0.00    +0.000 C 
ATOM     39  O   UNL     1       7.566   5.203  14.185  0.00  0.00    +0.000 OA
ENDBRANCH  32  36
ENDBRANCH   1  32
TORSDOF 7
ENDMDL
MODEL 7
REMARK VINA RESULT:      -8.8      3.401      9.804
REMARK  Name = 
REMARK  9 active torsions:
REMARK  status: ('A' for Active; 'I' for Inactive)
REMARK    1  A    between atoms: C_1  and  C_2
REMARK    2  A    between atoms: N_4  and  C_5
REMARK    3  A    between atoms: C_5  and  C_6
REMARK    4  A    between atoms: C_10  and  C_11
REMARK    5  A    between atoms: N_17  and  C_18
REMARK    6  A    between atoms: C_22  and  C_23
REMARK    7  A    between atoms: C_23  and  C_24
REMARK    8  A    between atoms: C_24  and  C_25
REMARK    9  A    between atoms: N_29  and  C_30
REMARK                            x       y       z     vdW  Elec       q    Type
REMARK                         _______ _______ _______ _____ _____    ______ ____
ROOT
ATOM      1  C   UNL     1       5.166   4.771  16.626  0.00  0.00    +0.000 A 
ATOM      2  C   UNL     1       4.706   6.084  16.777  0.00  0.00    +0.000 A 
ATOM      3  C   UNL     1       3.672   6.305  17.658  0.00  0.00    +0.000 A 
ATOM      4  C   UNL     1       3.022   5.285  18.339  0.00  0.00    +0.000 A 
ATOM      5  C   UNL     1       3.375   3.957  18.121  0.00  0.00    +0.000 A 
ATOM      6  C   UNL     1       4.482   3.716  17.275  0.00  0.00    +0.000 A 
ATOM      7  C   UNL     1       2.037   5.886  19.290  0.00  0.00    +0.000 C 
ATOM      8  N   UNL     1       2.201   7.321  19.085  0.00  0.00    +0.000 N 
ATOM      9  C   UNL     1       3.161   7.596  18.113  0.00  0.00    +0.000 C 
ATOM     10  O   UNL     1       3.600   8.649  17.687  0.00  0.00    +0.000 OA
ENDROOT
BRANCH   8  11
ATOM     11  C   UNL     1       1.479   8.285  19.828  0.00  0.00    +0.000 A 
ATOM     12  C   UNL     1       1.381   8.213  21.219  0.00  0.00    +0.000 A 
ATOM     13  C   UNL     1       0.680   9.181  21.935  0.00  0.00    +0.000 A 
ATOM     14  C   UNL     1       0.030  10.210  21.261  0.00  0.00    +0.000 A 
ATOM     15  C   UNL     1       0.052  10.302  19.857  0.00  0.00    +0.000 A 
ATOM     16  C   UNL     1       0.826   9.340  19.175  0.00  0.00    +0.000 A 
BRANCH  15  17
ATOM     17  C   UNL     1      -0.787  11.409  19.066  0.00  0.00    +0.000 C 
ATOM     18  C   UNL     1      -1.909  10.947  18.088  0.00  0.00    +0.000 C 
ATOM     19  O   UNL     1      -2.829  11.923  18.652  0.00  0.00    +0.000 OA
ATOM     20  C   UNL     1      -2.004  11.995  19.840  0.00  0.00    +0.000 C 
BRANCH  17  21
ATOM     21  C   UNL     1       0.125  12.499  18.478  0.00  0.00    +0.000 C 
BRANCH  21  22
ATOM     22  C   UNL     1       0.213  13.718  19.340  0.00  0.00    +0.000 A 
ATOM     23  N   UNL     1      -0.627  14.735  19.333  0.00  0.00    +0.000 NA
ATOM     24  N   UNL     1      -0.215  15.643  20.280  0.00  0.00    +0.000 NA
ATOM     25  C   UNL     1       0.864  15.162  20.849  0.00  0.00    +0.000 A 
ATOM     26  N   UNL     1       1.185  13.966  20.278  0.00  0.00    +0.000 N 
ATOM     27  C   UNL     1       2.319  13.157  20.627  0.00  0.00    +0.000 C 
ENDBRANCH  21  22
ENDBRANCH  17  21
ENDBRANCH  15  17
ENDBRANCH   8  11
BRANCH   5  28
ATOM     28  C   UNL     1       2.643   2.805  18.762  0.00  0.00    +0.000 C 
ATOM     29  F   UNL     1       2.960   1.595  18.226  0.00  0.00    +0.000 F 
ATOM     30  F   UNL     1       2.914   2.704  20.092  0.00  0.00    +0.000 F 
ATOM     31  F   UNL     1       1.292   2.919  18.658  0.00  0.00    +0.000 F 
ENDBRANCH   5  28
BRANCH   1  32
ATOM     32  C   UNL     1       6.454   4.533  15.864  0.00  0.00    +0.000 C 
BRANCH  32  36
ATOM     33  C   UNL     1       5.469   2.278  11.540  0.00  0.00    +0.000 C 
ATOM     34  C   UNL     1       5.856   3.607  12.179  0.00  0.00    +0.000 C 
ATOM     35  C   UNL     1       5.846   3.485  13.718  0.00  0.00    +0.000 C 
ATOM     36  N   UNL     1       6.311   4.717  14.404  0.00  0.00    +0.000 NA
ATOM     37  C   UNL     1       7.622   5.095  13.829  0.00  0.00    +0.000 C 
ATOM     38  C   UNL     1       7.570   5.204  12.298  0.00  0.00    +0.000 C 
ATOM     39  O   UNL     1       7.163   3.964  11.708  0.00  0.00    +0.000 OA
ENDBRANCH  32  36
ENDBRANCH   1  32
TORSDOF 7
ENDMDL
MODEL 8
REMARK VINA RESULT:      -8.8      2.466      9.369
REMARK  Name = 
REMARK  9 active torsions:
REMARK  status: ('A' for Active; 'I' for Inactive)
REMARK    1  A    between atoms: C_1  and  C_2
REMARK    2  A    between atoms: N_4  and  C_5
REMARK    3  A    between atoms: C_5  and  C_6
REMARK    4  A    between atoms: C_10  and  C_11
REMARK    5  A    between atoms: N_17  and  C_18
REMARK    6  A    between atoms: C_22  and  C_23
REMARK    7  A    between atoms: C_23  and  C_24
REMARK    8  A    between atoms: C_24  and  C_25
REMARK    9  A    between atoms: N_29  and  C_30
REMARK                            x       y       z     vdW  Elec       q    Type
REMARK                         _______ _______ _______ _____ _____    ______ ____
ROOT
ATOM      1  C   UNL     1       3.848   4.914  17.787  0.00  0.00    +0.000 A 
ATOM      2  C   UNL     1       3.304   6.201  17.725  0.00  0.00    +0.000 A 
ATOM      3  C   UNL     1       2.508   6.613  18.769  0.00  0.00    +0.000 A 
ATOM      4  C   UNL     1       2.162   5.790  19.833  0.00  0.00    +0.000 A 
ATOM      5  C   UNL     1       2.589   4.466  19.865  0.00  0.00    +0.000 A 
ATOM      6  C   UNL     1       3.465   4.047  18.839  0.00  0.00    +0.000 A 
ATOM      7  C   UNL     1       1.391   6.589  20.835  0.00  0.00    +0.000 C 
ATOM      8  N   UNL     1       1.345   7.921  20.241  0.00  0.00    +0.000 N 
ATOM      9  C   UNL     1       1.993   7.960  19.010  0.00  0.00    +0.000 C 
ATOM     10  O   UNL     1       2.197   8.874  18.233  0.00  0.00    +0.000 OA
ENDROOT
BRANCH   8  11
ATOM     11  C   UNL     1       0.735   9.022  20.888  0.00  0.00    +0.000 A 
ATOM     12  C   UNL     1       0.515   9.031  22.268  0.00  0.00    +0.000 A 
ATOM     13  C   UNL     1      -0.071  10.131  22.889  0.00  0.00    +0.000 A 
ATOM     14  C   UNL     1      -0.486  11.221  22.128  0.00  0.00    +0.000 A 
ATOM     15  C   UNL     1      -0.337  11.244  20.729  0.00  0.00    +0.000 A 
ATOM     16  C   UNL     1       0.320  10.138  20.148  0.00  0.00    +0.000 A 
BRANCH  15  17
ATOM     17  C   UNL     1      -0.915  12.434  19.834  0.00  0.00    +0.000 C 
ATOM     18  C   UNL     1      -0.549  13.902  20.204  0.00  0.00    +0.000 C 
ATOM     19  O   UNL     1      -0.229  14.194  18.815  0.00  0.00    +0.000 OA
ATOM     20  C   UNL     1      -0.079  12.775  18.566  0.00  0.00    +0.000 C 
BRANCH  17  21
ATOM     21  C   UNL     1      -2.410  12.237  19.525  0.00  0.00    +0.000 C 
BRANCH  21  22
ATOM     22  C   UNL     1      -2.652  11.498  18.247  0.00  0.00    +0.000 A 
ATOM     23  N   UNL     1      -1.749  10.833  17.553  0.00  0.00    +0.000 NA
ATOM     24  N   UNL     1      -2.367  10.279  16.457  0.00  0.00    +0.000 NA
ATOM     25  C   UNL     1      -3.634  10.614  16.504  0.00  0.00    +0.000 A 
ATOM     26  N   UNL     1      -3.858  11.397  17.597  0.00  0.00    +0.000 N 
ATOM     27  C   UNL     1      -5.122  11.972  17.962  0.00  0.00    +0.000 C 
ENDBRANCH  21  22
ENDBRANCH  17  21
ENDBRANCH  15  17
ENDBRANCH   8  11
BRANCH   5  28
ATOM     28  C   UNL     1       2.168   3.503  20.947  0.00  0.00    +0.000 C 
ATOM     29  F   UNL     1       2.515   3.908  22.199  0.00  0.00    +0.000 F 
ATOM     30  F   UNL     1       0.819   3.325  20.976  0.00  0.00    +0.000 F 
ATOM     31  F   UNL     1       2.710   2.266  20.789  0.00  0.00    +0.000 F 
ENDBRANCH   5  28
BRANCH   1  32
ATOM     32  C   UNL     1       4.920   4.526  16.789  0.00  0.00    +0.000 C 
BRANCH  32  36
ATOM     33  C   UNL     1       8.261   5.450  20.358  0.00  0.00    +0.000 C 
ATOM     34  C   UNL     1       7.950   5.643  18.878  0.00  0.00    +0.000 C 
ATOM     35  C   UNL     1       6.658   4.889  18.498  0.00  0.00    +0.000 C 
ATOM     36  N   UNL     1       6.241   5.117  17.092  0.00  0.00    +0.000 NA
ATOM     37  C   UNL     1       6.186   6.579  16.860  0.00  0.00    +0.000 C 
ATOM     38  C   UNL     1       7.499   7.274  17.253  0.00  0.00    +0.000 C 
ATOM     39  O   UNL     1       7.806   7.050  18.634  0.00  0.00    +0.000 OA
ENDBRANCH  32  36
ENDBRANCH   1  32
TORSDOF 7
ENDMDL
MODEL 9
REMARK VINA RESULT:      -8.8      2.875      9.400
REMARK  Name = 
REMARK  9 active torsions:
REMARK  status: ('A' for Active; 'I' for Inactive)
REMARK    1  A    between atoms: C_1  and  C_2
REMARK    2  A    between atoms: N_4  and  C_5
REMARK    3  A    between atoms: C_5  and  C_6
REMARK    4  A    between atoms: C_10  and  C_11
REMARK    5  A    between atoms: N_17  and  C_18
REMARK    6  A    between atoms: C_22  and  C_23
REMARK    7  A    between atoms: C_23  and  C_24
REMARK    8  A    between atoms: C_24  and  C_25
REMARK    9  A    between atoms: N_29  and  C_30
REMARK                            x       y       z     vdW  Elec       q    Type
REMARK                         _______ _______ _______ _____ _____    ______ ____
ROOT
ATOM      1  C   UNL     1       3.932   4.730  17.674  0.00  0.00    +0.000 A 
ATOM      2  C   UNL     1       3.434   6.036  17.614  0.00  0.00    +0.000 A 
ATOM      3  C   UNL     1       2.610   6.457  18.633  0.00  0.00    +0.000 A 
ATOM      4  C   UNL     1       2.194   5.627  19.666  0.00  0.00    +0.000 A 
ATOM      5  C   UNL     1       2.574   4.289  19.690  0.00  0.00    +0.000 A 
ATOM      6  C   UNL     1       3.477   3.859  18.692  0.00  0.00    +0.000 A 
ATOM      7  C   UNL     1       1.408   6.434  20.651  0.00  0.00    +0.000 C 
ATOM      8  N   UNL     1       1.431   7.777  20.082  0.00  0.00    +0.000 N 
ATOM      9  C   UNL     1       2.131   7.816  18.878  0.00  0.00    +0.000 C 
ATOM     10  O   UNL     1       2.397   8.737  18.128  0.00  0.00    +0.000 OA
ENDROOT
BRANCH   8  11
ATOM     11  C   UNL     1       0.832   8.887  20.724  0.00  0.00    +0.000 A 
ATOM     12  C   UNL     1       0.889   9.049  22.110  0.00  0.00    +0.000 A 
ATOM     13  C   UNL     1       0.309  10.156  22.723  0.00  0.00    +0.000 A 
ATOM     14  C   UNL     1      -0.376  11.096  21.958  0.00  0.00    +0.000 A 
ATOM     15  C   UNL     1      -0.509  10.956  20.564  0.00  0.00    +0.000 A 
ATOM     16  C   UNL     1       0.149   9.856  19.976  0.00  0.00    +0.000 A 
BRANCH  15  17
ATOM     17  C   UNL     1      -1.392  11.963  19.691  0.00  0.00    +0.000 C 
ATOM     18  C   UNL     1      -2.638  11.411  18.936  0.00  0.00    +0.000 C 
ATOM     19  O   UNL     1      -3.447  12.519  19.420  0.00  0.00    +0.000 OA
ATOM     20  C   UNL     1      -2.486  12.740  20.480  0.00  0.00    +0.000 C 
BRANCH  17  21
ATOM     21  C   UNL     1      -0.514  12.885  18.827  0.00  0.00    +0.000 C 
BRANCH  21  22
ATOM     22  C   UNL     1       0.669  13.426  19.564  0.00  0.00    +0.000 A 
ATOM     23  N   UNL     1       0.630  14.232  20.609  0.00  0.00    +0.000 NA
ATOM     24  N   UNL     1       1.921  14.485  21.008  0.00  0.00    +0.000 NA
ATOM     25  C   UNL     1       2.722  13.829  20.205  0.00  0.00    +0.000 A 
ATOM     26  N   UNL     1       1.985  13.166  19.268  0.00  0.00    +0.000 N 
ATOM     27  C   UNL     1       2.520  12.361  18.206  0.00  0.00    +0.000 C 
ENDBRANCH  21  22
ENDBRANCH  17  21
ENDBRANCH  15  17
ENDBRANCH   8  11
BRANCH   5  28
ATOM     28  C   UNL     1       2.077   3.322  20.735  0.00  0.00    +0.000 C 
ATOM     29  F   UNL     1       2.441   3.659  22.002  0.00  0.00    +0.000 F 
ATOM     30  F   UNL     1       0.718   3.238  20.749  0.00  0.00    +0.000 F 
ATOM     31  F   UNL     1       2.532   2.056  20.538  0.00  0.00    +0.000 F 
ENDBRANCH   5  28
BRANCH   1  32
ATOM     32  C   UNL     1       5.030   4.324  16.712  0.00  0.00    +0.000 C 
BRANCH  32  36
ATOM     33  C   UNL     1       8.308   5.438  20.287  0.00  0.00    +0.000 C 
ATOM     34  C   UNL     1       8.007   5.581  18.799  0.00  0.00    +0.000 C 
ATOM     35  C   UNL     1       6.739   4.782  18.428  0.00  0.00    +0.000 C 
ATOM     36  N   UNL     1       6.332   4.959  17.012  0.00  0.00    +0.000 NA
ATOM     37  C   UNL     1       6.241   6.412  16.738  0.00  0.00    +0.000 C 
ATOM     38  C   UNL     1       7.530   7.153  17.123  0.00  0.00    +0.000 C 
ATOM     39  O   UNL     1       7.829   6.976  18.513  0.00  0.00    +0.000 OA
ENDBRANCH  32  36
ENDBRANCH   1  32
TORSDOF 7
ENDMDL
