MODEL 1
REMARK VINA RESULT:      -9.8      0.000      0.000
REMARK  Name = 
REMARK  8 active torsions:
REMARK  status: ('A' for Active; 'I' for Inactive)
REMARK    1  A    between atoms: C_1  and  N_2
REMARK    2  A    between atoms: C_6  and  C_7
REMARK    3  A    between atoms: C_7  and  C_8
REMARK    4  A    between atoms: C_8  and  C_9
REMARK    5  A    between atoms: C_13  and  N_14
REMARK    6  A    between atoms: C_15  and  C_17
REMARK    7  A    between atoms: C_19  and  C_20
REMARK    8  A    between atoms: C_24  and  C_25
REMARK                            x       y       z     vdW  Elec       q    Type
REMARK                         _______ _______ _______ _____ _____    ______ ____
ROOT
ATOM      1  C   UNL     1       4.569   4.848  17.257  0.00  0.00    +0.000 A 
ATOM      2  C   UNL     1       3.767   3.703  17.076  0.00  0.00    +0.000 A 
ATOM      3  C   UNL     1       2.431   3.673  17.462  0.00  0.00    +0.000 A 
ATOM      4  C   UNL     1       1.852   4.796  18.044  0.00  0.00    +0.000 A 
ATOM      5  C   UNL     1       2.604   5.950  18.252  0.00  0.00    +0.000 A 
ATOM      6  C   UNL     1       3.945   5.966  17.853  0.00  0.00    +0.000 A 
ENDROOT
BRANCH   1   7
ATOM      7  C   UNL     1       6.101   4.884  16.782  0.00  0.00    +0.000 C 
ATOM      8  C   UNL     1       7.161   4.650  17.900  0.00  0.00    +0.000 C 
ATOM      9  O   UNL     1       7.755   5.945  17.699  0.00  0.00    +0.000 OA
ATOM     10  C   UNL     1       6.803   6.265  16.663  0.00  0.00    +0.000 C 
BRANCH   7  11
ATOM     11  C   UNL     1       6.303   3.936  15.584  0.00  0.00    +0.000 C 
BRANCH  11  17
ATOM     12  C   UNL     1       5.732   3.376  12.485  0.00  0.00    +0.000 C 
ATOM     13  N   UNL     1       6.692   4.277  13.063  0.00  0.00    +0.000 N 
ATOM     14  C   UNL     1       7.580   5.022  12.344  0.00  0.00    +0.000 A 
ATOM     15  N   UNL     1       8.296   5.758  13.157  0.00  0.00    +0.000 NA
ATOM     16  N   UNL     1       7.888   5.479  14.436  0.00  0.00    +0.000 NA
ATOM     17  C   UNL     1       6.932   4.570  14.384  0.00  0.00    +0.000 A 
ENDBRANCH  11  17
ENDBRANCH   7  11
ENDBRANCH   1   7
BRANCH   5  18
ATOM     18  N   UNL     1       2.082   7.124  18.829  0.00  0.00    +0.000 N 
ATOM     19  C   UNL     1       2.019   8.374  18.247  0.00  0.00    +0.000 C 
ATOM     20  O   UNL     1       2.378   8.683  17.116  0.00  0.00    +0.000 OA
ATOM     21  H   UNL     1       1.665   7.052  19.754  0.00  0.00    +0.000 HD
BRANCH  19  22
ATOM     22  C   UNL     1       1.438   9.426  19.135  0.00  0.00    +0.000 A 
ATOM     23  C   UNL     1       1.435  10.732  18.701  0.00  0.00    +0.000 A 
ATOM     24  C   UNL     1       0.915  11.669  19.562  0.00  0.00    +0.000 A 
ATOM     25  N   UNL     1       0.438  11.297  20.770  0.00  0.00    +0.000 NA
ATOM     26  C   UNL     1       0.459   9.989  21.125  0.00  0.00    +0.000 A 
ATOM     27  N   UNL     1       0.956   9.016  20.327  0.00  0.00    +0.000 NA
BRANCH  26  28
ATOM     28  C   UNL     1      -0.096   9.596  22.502  0.00  0.00    +0.000 C 
ATOM     29  F   UNL     1      -0.880  10.552  23.083  0.00  0.00    +0.000 F 
ATOM     30  F   UNL     1      -0.869   8.470  22.455  0.00  0.00    +0.000 F 
ATOM     31  F   UNL     1       0.889   9.329  23.410  0.00  0.00    +0.000 F 
ENDBRANCH  26  28
BRANCH  24  32
ATOM     32  C   UNL     1       0.890  13.133  19.203  0.00  0.00    +0.000 C 
ATOM     33  C   UNL     1      -0.296  13.750  18.497  0.00  0.00    +0.000 C 
ATOM     34  C   UNL     1      -0.054  14.048  19.946  0.00  0.00    +0.000 C 
ENDBRANCH  24  32
ENDBRANCH  19  22
ENDBRANCH   5  18
TORSDOF 7
ENDMDL
MODEL 2
REMARK VINA RESULT:      -9.1      4.281      9.510
REMARK  Name = 
REMARK  8 active torsions:
REMARK  status: ('A' for Active; 'I' for Inactive)
REMARK    1  A    between atoms: C_1  and  N_2
REMARK    2  A    between atoms: C_6  and  C_7
REMARK    3  A    between atoms: C_7  and  C_8
REMARK    4  A    between atoms: C_8  and  C_9
REMARK    5  A    between atoms: C_13  and  N_14
REMARK    6  A    between atoms: C_15  and  C_17
REMARK    7  A    between atoms: C_19  and  C_20
REMARK    8  A    between atoms: C_24  and  C_25
REMARK                            x       y       z     vdW  Elec       q    Type
REMARK                         _______ _______ _______ _____ _____    ______ ____
ROOT
ATOM      1  C   UNL     1      -0.467  10.141  20.210  0.00  0.00    +0.000 A 
ATOM      2  C   UNL     1      -0.330  10.348  21.598  0.00  0.00    +0.000 A 
ATOM      3  C   UNL     1       0.586   9.630  22.360  0.00  0.00    +0.000 A 
ATOM      4  C   UNL     1       1.400   8.679  21.753  0.00  0.00    +0.000 A 
ATOM      5  C   UNL     1       1.298   8.432  20.387  0.00  0.00    +0.000 A 
ATOM      6  C   UNL     1       0.375   9.165  19.632  0.00  0.00    +0.000 A 
ENDROOT
BRANCH   1   7
ATOM      7  C   UNL     1      -1.506  10.993  19.333  0.00  0.00    +0.000 C 
ATOM      8  C   UNL     1      -0.873  11.988  18.314  0.00  0.00    +0.000 C 
ATOM      9  O   UNL     1      -1.485  13.126  18.947  0.00  0.00    +0.000 OA
ATOM     10  C   UNL     1      -2.099  12.290  19.950  0.00  0.00    +0.000 C 
BRANCH   7  11
ATOM     11  C   UNL     1      -2.528  10.052  18.667  0.00  0.00    +0.000 C 
BRANCH  11  17
ATOM     12  C   UNL     1      -4.887  11.811  17.407  0.00  0.00    +0.000 C 
ATOM     13  N   UNL     1      -3.858  11.080  16.718  0.00  0.00    +0.000 N 
ATOM     14  C   UNL     1      -3.761  10.980  15.362  0.00  0.00    +0.000 A 
ATOM     15  N   UNL     1      -2.704  10.274  15.047  0.00  0.00    +0.000 NA
ATOM     16  N   UNL     1      -2.104   9.883  16.217  0.00  0.00    +0.000 NA
ATOM     17  C   UNL     1      -2.809  10.353  17.229  0.00  0.00    +0.000 A 
ENDBRANCH  11  17
ENDBRANCH   7  11
ENDBRANCH   1   7
BRANCH   5  18
ATOM     18  N   UNL     1       2.092   7.489  19.706  0.00  0.00    +0.000 N 
ATOM     19  C   UNL     1       2.670   7.639  18.462  0.00  0.00    +0.000 C 
ATOM     20  O   UNL     1       2.622   8.628  17.738  0.00  0.00    +0.000 OA
ATOM     21  H   UNL     1       2.308   6.617  20.185  0.00  0.00    +0.000 HD
BRANCH  19  22
ATOM     22  C   UNL     1       3.429   6.438  17.998  0.00  0.00    +0.000 A 
ATOM     23  C   UNL     1       2.775   5.229  17.926  0.00  0.00    +0.000 A 
ATOM     24  C   UNL     1       3.520   4.147  17.519  0.00  0.00    +0.000 A 
ATOM     25  N   UNL     1       4.828   4.294  17.213  0.00  0.00    +0.000 NA
ATOM     26  C   UNL     1       5.402   5.519  17.294  0.00  0.00    +0.000 A 
ATOM     27  N   UNL     1       4.728   6.625  17.685  0.00  0.00    +0.000 NA
BRANCH  26  28
ATOM     28  C   UNL     1       6.888   5.656  16.933  0.00  0.00    +0.000 C 
ATOM     29  F   UNL     1       7.199   5.235  15.671  0.00  0.00    +0.000 F 
ATOM     30  F   UNL     1       7.331   6.946  17.007  0.00  0.00    +0.000 F 
ATOM     31  F   UNL     1       7.700   4.940  17.767  0.00  0.00    +0.000 F 
ENDBRANCH  26  28
BRANCH  24  32
ATOM     32  C   UNL     1       2.916   2.769  17.434  0.00  0.00    +0.000 C 
ATOM     33  C   UNL     1       3.409   1.638  18.307  0.00  0.00    +0.000 C 
ATOM     34  C   UNL     1       2.079   2.269  18.588  0.00  0.00    +0.000 C 
ENDBRANCH  24  32
ENDBRANCH  19  22
ENDBRANCH   5  18
TORSDOF 7
ENDMDL
MODEL 3
REMARK VINA RESULT:      -9.1      0.739      1.407
REMARK  Name = 
REMARK  8 active torsions:
REMARK  status: ('A' for Active; 'I' for Inactive)
REMARK    1  A    between atoms: C_1  and  N_2
REMARK    2  A    between atoms: C_6  and  C_7
REMARK    3  A    between atoms: C_7  and  C_8
REMARK    4  A    between atoms: C_8  and  C_9
REMARK    5  A    between atoms: C_13  and  N_14
REMARK    6  A    between atoms: C_15  and  C_17
REMARK    7  A    between atoms: C_19  and  C_20
REMARK    8  A    between atoms: C_24  and  C_25
REMARK                            x       y       z     vdW  Elec       q    Type
REMARK                         _______ _______ _______ _____ _____    ______ ____
ROOT
ATOM      1  C   UNL     1       4.468   5.176  17.098  0.00  0.00    +0.000 A 
ATOM      2  C   UNL     1       3.776   3.949  17.124  0.00  0.00    +0.000 A 
ATOM      3  C   UNL     1       2.538   3.816  17.745  0.00  0.00    +0.000 A 
ATOM      4  C   UNL     1       1.952   4.916  18.363  0.00  0.00    +0.000 A 
ATOM      5  C   UNL     1       2.599   6.149  18.372  0.00  0.00    +0.000 A 
ATOM      6  C   UNL     1       3.841   6.267  17.738  0.00  0.00    +0.000 A 
ENDROOT
BRANCH   1   7
ATOM      7  C   UNL     1       5.882   5.326  16.354  0.00  0.00    +0.000 C 
ATOM      8  C   UNL     1       6.823   4.087  16.432  0.00  0.00    +0.000 C 
ATOM      9  O   UNL     1       7.849   4.827  17.118  0.00  0.00    +0.000 OA
ATOM     10  C   UNL     1       7.044   6.024  17.114  0.00  0.00    +0.000 C 
BRANCH   7  11
ATOM     11  C   UNL     1       5.666   5.799  14.903  0.00  0.00    +0.000 C 
BRANCH  11  17
ATOM     12  C   UNL     1       8.272   5.558  13.062  0.00  0.00    +0.000 C 
ATOM     13  N   UNL     1       7.099   4.726  13.055  0.00  0.00    +0.000 N 
ATOM     14  C   UNL     1       6.891   3.696  12.187  0.00  0.00    +0.000 A 
ATOM     15  N   UNL     1       5.746   3.119  12.455  0.00  0.00    +0.000 NA
ATOM     16  N   UNL     1       5.179   3.793  13.507  0.00  0.00    +0.000 NA
ATOM     17  C   UNL     1       5.985   4.778  13.859  0.00  0.00    +0.000 A 
ENDBRANCH  11  17
ENDBRANCH   7  11
ENDBRANCH   1   7
BRANCH   5  18
ATOM     18  N   UNL     1       2.061   7.304  18.972  0.00  0.00    +0.000 N 
ATOM     19  C   UNL     1       1.903   8.543  18.384  0.00  0.00    +0.000 C 
ATOM     20  O   UNL     1       2.171   8.854  17.229  0.00  0.00    +0.000 OA
ATOM     21  H   UNL     1       1.710   7.225  19.923  0.00  0.00    +0.000 HD
BRANCH  19  22
ATOM     22  C   UNL     1       1.332   9.578  19.299  0.00  0.00    +0.000 A 
ATOM     23  C   UNL     1       1.328  10.893  18.892  0.00  0.00    +0.000 A 
ATOM     24  C   UNL     1       0.819  11.813  19.777  0.00  0.00    +0.000 A 
ATOM     25  N   UNL     1       0.352  11.416  20.982  0.00  0.00    +0.000 NA
ATOM     26  C   UNL     1       0.374  10.102  21.310  0.00  0.00    +0.000 A 
ATOM     27  N   UNL     1       0.860   9.144  20.487  0.00  0.00    +0.000 NA
BRANCH  26  28
ATOM     28  C   UNL     1      -0.169   9.681  22.683  0.00  0.00    +0.000 C 
ATOM     29  F   UNL     1       0.798   9.425  23.613  0.00  0.00    +0.000 F 
ATOM     30  F   UNL     1      -0.973  10.633  23.245  0.00  0.00    +0.000 F 
ATOM     31  F   UNL     1      -0.929   8.547  22.624  0.00  0.00    +0.000 F 
ENDBRANCH  26  28
BRANCH  24  32
ATOM     32  C   UNL     1       0.794  13.284  19.449  0.00  0.00    +0.000 C 
ATOM     33  C   UNL     1      -0.314  13.885  18.616  0.00  0.00    +0.000 C 
ATOM     34  C   UNL     1      -0.262  14.154  20.089  0.00  0.00    +0.000 C 
ENDBRANCH  24  32
ENDBRANCH  19  22
ENDBRANCH   5  18
TORSDOF 7
ENDMDL
MODEL 4
REMARK VINA RESULT:      -8.9      3.631      9.265
REMARK  Name = 
REMARK  8 active torsions:
REMARK  status: ('A' for Active; 'I' for Inactive)
REMARK    1  A    between atoms: C_1  and  N_2
REMARK    2  A    between atoms: C_6  and  C_7
REMARK    3  A    between atoms: C_7  and  C_8
REMARK    4  A    between atoms: C_8  and  C_9
REMARK    5  A    between atoms: C_13  and  N_14
REMARK    6  A    between atoms: C_15  and  C_17
REMARK    7  A    between atoms: C_19  and  C_20
REMARK    8  A    between atoms: C_24  and  C_25
REMARK                            x       y       z     vdW  Elec       q    Type
REMARK                         _______ _______ _______ _____ _____    ______ ____
ROOT
ATOM      1  C   UNL     1       0.320  11.505  21.310  0.00  0.00    +0.000 A 
ATOM      2  C   UNL     1      -0.563  11.420  22.405  0.00  0.00    +0.000 A 
ATOM      3  C   UNL     1      -0.816  10.216  23.054  0.00  0.00    +0.000 A 
ATOM      4  C   UNL     1      -0.187   9.052  22.624  0.00  0.00    +0.000 A 
ATOM      5  C   UNL     1       0.689   9.081  21.542  0.00  0.00    +0.000 A 
ATOM      6  C   UNL     1       0.936  10.301  20.903  0.00  0.00    +0.000 A 
ENDROOT
BRANCH   1   7
ATOM      7  C   UNL     1       0.628  12.904  20.586  0.00  0.00    +0.000 C 
ATOM      8  C   UNL     1       1.639  12.844  19.403  0.00  0.00    +0.000 C 
ATOM      9  O   UNL     1       2.560  13.733  20.060  0.00  0.00    +0.000 OA
ATOM     10  C   UNL     1       1.700  13.837  21.214  0.00  0.00    +0.000 C 
BRANCH   7  11
ATOM     11  C   UNL     1      -0.692  13.591  20.187  0.00  0.00    +0.000 C 
BRANCH  11  17
ATOM     12  C   UNL     1      -3.700  12.614  20.678  0.00  0.00    +0.000 C 
ATOM     13  N   UNL     1      -2.851  12.341  19.551  0.00  0.00    +0.000 N 
ATOM     14  C   UNL     1      -3.197  11.545  18.500  0.00  0.00    +0.000 A 
ATOM     15  N   UNL     1      -2.221  11.520  17.626  0.00  0.00    +0.000 NA
ATOM     16  N   UNL     1      -1.204  12.297  18.120  0.00  0.00    +0.000 NA
ATOM     17  C   UNL     1      -1.573  12.779  19.292  0.00  0.00    +0.000 A 
ENDBRANCH  11  17
ENDBRANCH   7  11
ENDBRANCH   1   7
BRANCH   5  18
ATOM     18  N   UNL     1       1.364   7.944  21.058  0.00  0.00    +0.000 N 
ATOM     19  C   UNL     1       1.894   7.772  19.795  0.00  0.00    +0.000 C 
ATOM     20  O   UNL     1       1.901   8.587  18.879  0.00  0.00    +0.000 OA
ATOM     21  H   UNL     1       1.523   7.175  21.706  0.00  0.00    +0.000 HD
BRANCH  19  22
ATOM     22  C   UNL     1       2.521   6.433  19.579  0.00  0.00    +0.000 A 
ATOM     23  C   UNL     1       3.547   6.321  18.668  0.00  0.00    +0.000 A 
ATOM     24  C   UNL     1       4.074   5.065  18.482  0.00  0.00    +0.000 A 
ATOM     25  N   UNL     1       3.588   4.010  19.174  0.00  0.00    +0.000 NA
ATOM     26  C   UNL     1       2.585   4.198  20.066  0.00  0.00    +0.000 A 
ATOM     27  N   UNL     1       2.021   5.406  20.298  0.00  0.00    +0.000 NA
BRANCH  26  28
ATOM     28  C   UNL     1       2.058   2.982  20.841  0.00  0.00    +0.000 C 
ATOM     29  F   UNL     1       1.857   1.872  20.071  0.00  0.00    +0.000 F 
ATOM     30  F   UNL     1       2.906   2.586  21.837  0.00  0.00    +0.000 F 
ATOM     31  F   UNL     1       0.861   3.226  21.452  0.00  0.00    +0.000 F 
ENDBRANCH  26  28
BRANCH  24  32
ATOM     32  C   UNL     1       5.179   4.820  17.487  0.00  0.00    +0.000 C 
ATOM     33  C   UNL     1       4.912   4.132  16.168  0.00  0.00    +0.000 C 
ATOM     34  C   UNL     1       5.184   5.606  16.197  0.00  0.00    +0.000 C 
ENDBRANCH  24  32
ENDBRANCH  19  22
ENDBRANCH   5  18
TORSDOF 7
ENDMDL
MODEL 5
REMARK VINA RESULT:      -8.9      3.893      9.788
REMARK  Name = 
REMARK  8 active torsions:
REMARK  status: ('A' for Active; 'I' for Inactive)
REMARK    1  A    between atoms: C_1  and  N_2
REMARK    2  A    between atoms: C_6  and  C_7
REMARK    3  A    between atoms: C_7  and  C_8
REMARK    4  A    between atoms: C_8  and  C_9
REMARK    5  A    between atoms: C_13  and  N_14
REMARK    6  A    between atoms: C_15  and  C_17
REMARK    7  A    between atoms: C_19  and  C_20
REMARK    8  A    between atoms: C_24  and  C_25
REMARK                            x       y       z     vdW  Elec       q    Type
REMARK                         _______ _______ _______ _____ _____    ______ ____
ROOT
ATOM      1  C   UNL     1       0.059  10.424  20.245  0.00  0.00    +0.000 A 
ATOM      2  C   UNL     1      -0.248  10.321  21.617  0.00  0.00    +0.000 A 
ATOM      3  C   UNL     1       0.245   9.285  22.404  0.00  0.00    +0.000 A 
ATOM      4  C   UNL     1       1.066   8.315  21.838  0.00  0.00    +0.000 A 
ATOM      5  C   UNL     1       1.392   8.368  20.486  0.00  0.00    +0.000 A 
ATOM      6  C   UNL     1       0.893   9.419  19.709  0.00  0.00    +0.000 A 
ENDROOT
BRANCH   1   7
ATOM      7  C   UNL     1      -0.490  11.639  19.351  0.00  0.00    +0.000 C 
ATOM      8  C   UNL     1      -1.761  12.357  19.895  0.00  0.00    +0.000 C 
ATOM      9  O   UNL     1      -2.532  12.016  18.729  0.00  0.00    +0.000 OA
ATOM     10  C   UNL     1      -1.417  11.307  18.149  0.00  0.00    +0.000 C 
BRANCH   7  11
ATOM     11  C   UNL     1       0.652  12.628  19.050  0.00  0.00    +0.000 C 
BRANCH  11  17
ATOM     12  C   UNL     1      -0.165  15.711  19.317  0.00  0.00    +0.000 C 
ATOM     13  N   UNL     1       0.623  14.920  20.222  0.00  0.00    +0.000 N 
ATOM     14  C   UNL     1       1.212  15.400  21.354  0.00  0.00    +0.000 A 
ATOM     15  N   UNL     1       1.834  14.429  21.974  0.00  0.00    +0.000 NA
ATOM     16  N   UNL     1       1.669  13.290  21.227  0.00  0.00    +0.000 NA
ATOM     17  C   UNL     1       0.955  13.587  20.157  0.00  0.00    +0.000 A 
ENDBRANCH  11  17
ENDBRANCH   7  11
ENDBRANCH   1   7
BRANCH   5  18
ATOM     18  N   UNL     1       2.222   7.424  19.850  0.00  0.00    +0.000 N 
ATOM     19  C   UNL     1       2.709   7.489  18.560  0.00  0.00    +0.000 C 
ATOM     20  O   UNL     1       2.535   8.390  17.747  0.00  0.00    +0.000 OA
ATOM     21  H   UNL     1       2.539   6.626  20.396  0.00  0.00    +0.000 HD
BRANCH  19  22
ATOM     22  C   UNL     1       3.538   6.309  18.166  0.00  0.00    +0.000 A 
ATOM     23  C   UNL     1       2.915   5.097  17.972  0.00  0.00    +0.000 A 
ATOM     24  C   UNL     1       3.721   4.034  17.638  0.00  0.00    +0.000 A 
ATOM     25  N   UNL     1       5.056   4.201  17.513  0.00  0.00    +0.000 NA
ATOM     26  C   UNL     1       5.599   5.428  17.705  0.00  0.00    +0.000 A 
ATOM     27  N   UNL     1       4.865   6.516  18.035  0.00  0.00    +0.000 NA
BRANCH  26  28
ATOM     28  C   UNL     1       7.118   5.588  17.551  0.00  0.00    +0.000 C 
ATOM     29  F   UNL     1       7.801   4.408  17.474  0.00  0.00    +0.000 F 
ATOM     30  F   UNL     1       7.462   6.282  16.425  0.00  0.00    +0.000 F 
ATOM     31  F   UNL     1       7.684   6.270  18.591  0.00  0.00    +0.000 F 
ENDBRANCH  26  28
BRANCH  24  32
ATOM     32  C   UNL     1       3.151   2.654  17.432  0.00  0.00    +0.000 C 
ATOM     33  C   UNL     1       3.331   1.567  18.466  0.00  0.00    +0.000 C 
ATOM     34  C   UNL     1       1.989   2.212  18.291  0.00  0.00    +0.000 C 
ENDBRANCH  24  32
ENDBRANCH  19  22
ENDBRANCH   5  18
TORSDOF 7
ENDMDL
MODEL 6
REMARK VINA RESULT:      -8.9      4.405      9.770
REMARK  Name = 
REMARK  8 active torsions:
REMARK  status: ('A' for Active; 'I' for Inactive)
REMARK    1  A    between atoms: C_1  and  N_2
REMARK    2  A    between atoms: C_6  and  C_7
REMARK    3  A    between atoms: C_7  and  C_8
REMARK    4  A    between atoms: C_8  and  C_9
REMARK    5  A    between atoms: C_13  and  N_14
REMARK    6  A    between atoms: C_15  and  C_17
REMARK    7  A    between atoms: C_19  and  C_20
REMARK    8  A    between atoms: C_24  and  C_25
REMARK                            x       y       z     vdW  Elec       q    Type
REMARK                         _______ _______ _______ _____ _____    ______ ____
ROOT
ATOM      1  C   UNL     1       0.126  11.332  18.939  0.00  0.00    +0.000 A 
ATOM      2  C   UNL     1       0.962  12.438  18.685  0.00  0.00    +0.000 A 
ATOM      3  C   UNL     1       2.234  12.287  18.142  0.00  0.00    +0.000 A 
ATOM      4  C   UNL     1       2.710  11.017  17.834  0.00  0.00    +0.000 A 
ATOM      5  C   UNL     1       1.926   9.892  18.073  0.00  0.00    +0.000 A 
ATOM      6  C   UNL     1       0.646  10.060  18.614  0.00  0.00    +0.000 A 
ENDROOT
BRANCH   1   7
ATOM      7  C   UNL     1      -1.351  11.518  19.538  0.00  0.00    +0.000 C 
ATOM      8  C   UNL     1      -1.954  12.949  19.421  0.00  0.00    +0.000 C 
ATOM      9  O   UNL     1      -2.069  13.089  20.848  0.00  0.00    +0.000 OA
ATOM     10  C   UNL     1      -1.500  11.781  21.063  0.00  0.00    +0.000 C 
BRANCH   7  11
ATOM     11  C   UNL     1      -2.292  10.443  18.960  0.00  0.00    +0.000 C 
BRANCH  11  17
ATOM     12  C   UNL     1      -5.262  11.432  18.292  0.00  0.00    +0.000 C 
ATOM     13  N   UNL     1      -4.186  11.169  17.375  0.00  0.00    +0.000 N 
ATOM     14  C   UNL     1      -4.291  11.255  16.019  0.00  0.00    +0.000 A 
ATOM     15  N   UNL     1      -3.133  10.984  15.469  0.00  0.00    +0.000 NA
ATOM     16  N   UNL     1      -2.253  10.694  16.481  0.00  0.00    +0.000 NA
ATOM     17  C   UNL     1      -2.891  10.785  17.633  0.00  0.00    +0.000 A 
ENDBRANCH  11  17
ENDBRANCH   7  11
ENDBRANCH   1   7
BRANCH   5  18
ATOM     18  N   UNL     1       2.341   8.579  17.779  0.00  0.00    +0.000 N 
ATOM     19  C   UNL     1       2.505   7.543  18.677  0.00  0.00    +0.000 C 
ATOM     20  O   UNL     1       2.291   7.570  19.884  0.00  0.00    +0.000 OA
ATOM     21  H   UNL     1       2.501   8.338  16.804  0.00  0.00    +0.000 HD
BRANCH  19  22
ATOM     22  C   UNL     1       2.993   6.275  18.056  0.00  0.00    +0.000 A 
ATOM     23  C   UNL     1       2.273   5.119  18.257  0.00  0.00    +0.000 A 
ATOM     24  C   UNL     1       2.773   3.972  17.689  0.00  0.00    +0.000 A 
ATOM     25  N   UNL     1       3.920   4.007  16.974  0.00  0.00    +0.000 NA
ATOM     26  C   UNL     1       4.568   5.185  16.805  0.00  0.00    +0.000 A 
ATOM     27  N   UNL     1       4.131   6.350  17.336  0.00  0.00    +0.000 NA
BRANCH  26  28
ATOM     28  C   UNL     1       5.865   5.194  15.983  0.00  0.00    +0.000 C 
ATOM     29  F   UNL     1       6.886   5.898  16.555  0.00  0.00    +0.000 F 
ATOM     30  F   UNL     1       6.361   3.940  15.770  0.00  0.00    +0.000 F 
ATOM     31  F   UNL     1       5.696   5.740  14.741  0.00  0.00    +0.000 F 
ENDBRANCH  26  28
BRANCH  24  32
ATOM     32  C   UNL     1       2.084   2.643  17.871  0.00  0.00    +0.000 C 
ATOM     33  C   UNL     1       2.152   1.895  19.181  0.00  0.00    +0.000 C 
ATOM     34  C   UNL     1       0.876   2.568  18.775  0.00  0.00    +0.000 C 
ENDBRANCH  24  32
ENDBRANCH  19  22
ENDBRANCH   5  18
TORSDOF 7
ENDMDL
MODEL 7
REMARK VINA RESULT:      -8.9      3.372      9.232
REMARK  Name = 
REMARK  8 active torsions:
REMARK  status: ('A' for Active; 'I' for Inactive)
REMARK    1  A    between atoms: C_1  and  N_2
REMARK    2  A    between atoms: C_6  and  C_7
REMARK    3  A    between atoms: C_7  and  C_8
REMARK    4  A    between atoms: C_8  and  C_9
REMARK    5  A    between atoms: C_13  and  N_14
REMARK    6  A    between atoms: C_15  and  C_17
REMARK    7  A    between atoms: C_19  and  C_20
REMARK    8  A    between atoms: C_24  and  C_25
REMARK                            x       y       z     vdW  Elec       q    Type
REMARK                         _______ _______ _______ _____ _____    ______ ____
ROOT
ATOM      1  C   UNL     1      -0.486  10.943  20.225  0.00  0.00    +0.000 A 
ATOM      2  C   UNL     1      -0.467  11.040  21.631  0.00  0.00    +0.000 A 
ATOM      3  C   UNL     1       0.236  10.135  22.420  0.00  0.00    +0.000 A 
ATOM      4  C   UNL     1       0.947   9.100  21.822  0.00  0.00    +0.000 A 
ATOM      5  C   UNL     1       0.954   8.956  20.437  0.00  0.00    +0.000 A 
ATOM      6  C   UNL     1       0.246   9.878  19.657  0.00  0.00    +0.000 A 
ENDROOT
BRANCH   1   7
ATOM      7  C   UNL     1      -1.275  12.009  19.321  0.00  0.00    +0.000 C 
ATOM      8  C   UNL     1      -2.824  12.023  19.491  0.00  0.00    +0.000 C 
ATOM      9  O   UNL     1      -3.044  11.677  18.112  0.00  0.00    +0.000 OA
ATOM     10  C   UNL     1      -1.625  11.617  17.858  0.00  0.00    +0.000 C 
BRANCH   7  11
ATOM     11  C   UNL     1      -0.659  13.410  19.500  0.00  0.00    +0.000 C 
BRANCH  11  17
ATOM     12  C   UNL     1       1.547  14.429  21.582  0.00  0.00    +0.000 C 
ATOM     13  N   UNL     1       1.746  13.946  20.242  0.00  0.00    +0.000 N 
ATOM     14  C   UNL     1       2.954  13.898  19.612  0.00  0.00    +0.000 A 
ATOM     15  N   UNL     1       2.806  13.384  18.416  0.00  0.00    +0.000 NA
ATOM     16  N   UNL     1       1.474  13.107  18.247  0.00  0.00    +0.000 NA
ATOM     17  C   UNL     1       0.827  13.463  19.341  0.00  0.00    +0.000 A 
ENDBRANCH  11  17
ENDBRANCH   7  11
ENDBRANCH   1   7
BRANCH   5  18
ATOM     18  N   UNL     1       1.655   7.937  19.765  0.00  0.00    +0.000 N 
ATOM     19  C   UNL     1       2.330   8.050  18.566  0.00  0.00    +0.000 C 
ATOM     20  O   UNL     1       2.465   9.060  17.885  0.00  0.00    +0.000 OA
ATOM     21  H   UNL     1       1.718   7.027  20.216  0.00  0.00    +0.000 HD
BRANCH  19  22
ATOM     22  C   UNL     1       2.946   6.772  18.096  0.00  0.00    +0.000 A 
ATOM     23  C   UNL     1       4.138   6.825  17.408  0.00  0.00    +0.000 A 
ATOM     24  C   UNL     1       4.654   5.628  16.972  0.00  0.00    +0.000 A 
ATOM     25  N   UNL     1       4.001   4.471  17.221  0.00  0.00    +0.000 NA
ATOM     26  C   UNL     1       2.839   4.494  17.918  0.00  0.00    +0.000 A 
ATOM     27  N   UNL     1       2.276   5.635  18.376  0.00  0.00    +0.000 NA
BRANCH  26  28
ATOM     28  C   UNL     1       2.124   3.163  18.191  0.00  0.00    +0.000 C 
ATOM     29  F   UNL     1       2.432   2.598  19.396  0.00  0.00    +0.000 F 
ATOM     30  F   UNL     1       0.763   3.286  18.183  0.00  0.00    +0.000 F 
ATOM     31  F   UNL     1       2.412   2.209  17.256  0.00  0.00    +0.000 F 
ENDBRANCH  26  28
BRANCH  24  32
ATOM     32  C   UNL     1       5.936   5.570  16.182  0.00  0.00    +0.000 C 
ATOM     33  C   UNL     1       7.147   4.831  16.701  0.00  0.00    +0.000 C 
ATOM     34  C   UNL     1       6.353   4.254  15.568  0.00  0.00    +0.000 C 
ENDBRANCH  24  32
ENDBRANCH  19  22
ENDBRANCH   5  18
TORSDOF 7
ENDMDL
MODEL 8
REMARK VINA RESULT:      -8.9      3.963     10.247
REMARK  Name = 
REMARK  8 active torsions:
REMARK  status: ('A' for Active; 'I' for Inactive)
REMARK    1  A    between atoms: C_1  and  N_2
REMARK    2  A    between atoms: C_6  and  C_7
REMARK    3  A    between atoms: C_7  and  C_8
REMARK    4  A    between atoms: C_8  and  C_9
REMARK    5  A    between atoms: C_13  and  N_14
REMARK    6  A    between atoms: C_15  and  C_17
REMARK    7  A    between atoms: C_19  and  C_20
REMARK    8  A    between atoms: C_24  and  C_25
REMARK                            x       y       z     vdW  Elec       q    Type
REMARK                         _______ _______ _______ _____ _____    ______ ____
ROOT
ATOM      1  C   UNL     1      -1.661  11.291  19.128  0.00  0.00    +0.000 A 
ATOM      2  C   UNL     1      -1.252  12.315  20.006  0.00  0.00    +0.000 A 
ATOM      3  C   UNL     1      -0.070  12.230  20.734  0.00  0.00    +0.000 A 
ATOM      4  C   UNL     1       0.745  11.110  20.605  0.00  0.00    +0.000 A 
ATOM      5  C   UNL     1       0.382  10.067  19.756  0.00  0.00    +0.000 A 
ATOM      6  C   UNL     1      -0.807  10.170  19.026  0.00  0.00    +0.000 A 
ENDROOT
BRANCH   1   7
ATOM      7  C   UNL     1      -3.012  11.410  18.269  0.00  0.00    +0.000 C 
ATOM      8  C   UNL     1      -3.817  10.089  18.088  0.00  0.00    +0.000 C 
ATOM      9  O   UNL     1      -3.681  10.126  16.656  0.00  0.00    +0.000 OA
ATOM     10  C   UNL     1      -2.908  11.342  16.720  0.00  0.00    +0.000 C 
BRANCH   7  11
ATOM     11  C   UNL     1      -3.887  12.552  18.822  0.00  0.00    +0.000 C 
BRANCH  11  17
ATOM     12  C   UNL     1      -6.852  12.107  17.703  0.00  0.00    +0.000 C 
ATOM     13  N   UNL     1      -6.381  11.960  19.053  0.00  0.00    +0.000 N 
ATOM     14  C   UNL     1      -7.174  11.646  20.116  0.00  0.00    +0.000 A 
ATOM     15  N   UNL     1      -6.445  11.559  21.200  0.00  0.00    +0.000 NA
ATOM     16  N   UNL     1      -5.148  11.840  20.850  0.00  0.00    +0.000 NA
ATOM     17  C   UNL     1      -5.109  12.102  19.556  0.00  0.00    +0.000 A 
ENDBRANCH  11  17
ENDBRANCH   7  11
ENDBRANCH   1   7
BRANCH   5  18
ATOM     18  N   UNL     1       1.161   8.909  19.572  0.00  0.00    +0.000 N 
ATOM     19  C   UNL     1       1.930   8.596  18.469  0.00  0.00    +0.000 C 
ATOM     20  O   UNL     1       2.098   9.281  17.467  0.00  0.00    +0.000 OA
ATOM     21  H   UNL     1       1.206   8.241  20.338  0.00  0.00    +0.000 HD
BRANCH  19  22
ATOM     22  C   UNL     1       2.613   7.271  18.564  0.00  0.00    +0.000 A 
ATOM     23  C   UNL     1       3.667   7.006  17.718  0.00  0.00    +0.000 A 
ATOM     24  C   UNL     1       4.247   5.764  17.823  0.00  0.00    +0.000 A 
ATOM     25  N   UNL     1       3.784   4.867  18.721  0.00  0.00    +0.000 NA
ATOM     26  C   UNL     1       2.752   5.202  19.533  0.00  0.00    +0.000 A 
ATOM     27  N   UNL     1       2.136   6.406  19.483  0.00  0.00    +0.000 NA
BRANCH  26  28
ATOM     28  C   UNL     1       2.253   4.164  20.548  0.00  0.00    +0.000 C 
ATOM     29  F   UNL     1       2.827   2.932  20.417  0.00  0.00    +0.000 F 
ATOM     30  F   UNL     1       2.485   4.539  21.841  0.00  0.00    +0.000 F 
ATOM     31  F   UNL     1       0.906   3.950  20.463  0.00  0.00    +0.000 F 
ENDBRANCH  26  28
BRANCH  24  32
ATOM     32  C   UNL     1       5.387   5.355  16.925  0.00  0.00    +0.000 C 
ATOM     33  C   UNL     1       5.198   4.331  15.831  0.00  0.00    +0.000 C 
ATOM     34  C   UNL     1       5.358   5.778  15.475  0.00  0.00    +0.000 C 
ENDBRANCH  24  32
ENDBRANCH  19  22
ENDBRANCH   5  18
TORSDOF 7
ENDMDL
MODEL 9
REMARK VINA RESULT:      -8.9      4.315      9.817
REMARK  Name = 
REMARK  8 active torsions:
REMARK  status: ('A' for Active; 'I' for Inactive)
REMARK    1  A    between atoms: C_1  and  N_2
REMARK    2  A    between atoms: C_6  and  C_7
REMARK    3  A    between atoms: C_7  and  C_8
REMARK    4  A    between atoms: C_8  and  C_9
REMARK    5  A    between atoms: C_13  and  N_14
REMARK    6  A    between atoms: C_15  and  C_17
REMARK    7  A    between atoms: C_19  and  C_20
REMARK    8  A    between atoms: C_24  and  C_25
REMARK                            x       y       z     vdW  Elec       q    Type
REMARK                         _______ _______ _______ _____ _____    ______ ____
ROOT
ATOM      1  C   UNL     1      -0.233  10.270  20.129  0.00  0.00    +0.000 A 
ATOM      2  C   UNL     1      -0.077  10.484  21.513  0.00  0.00    +0.000 A 
ATOM      3  C   UNL     1       0.748   9.680  22.292  0.00  0.00    +0.000 A 
ATOM      4  C   UNL     1       1.449   8.632  21.706  0.00  0.00    +0.000 A 
ATOM      5  C   UNL     1       1.323   8.374  20.343  0.00  0.00    +0.000 A 
ATOM      6  C   UNL     1       0.493   9.195  19.572  0.00  0.00    +0.000 A 
ENDROOT
BRANCH   1   7
ATOM      7  C   UNL     1      -1.165  11.221  19.232  0.00  0.00    +0.000 C 
ATOM      8  C   UNL     1      -0.428  12.354  18.458  0.00  0.00    +0.000 C 
ATOM      9  O   UNL     1      -1.160  13.387  19.141  0.00  0.00    +0.000 OA
ATOM     10  C   UNL     1      -1.882  12.413  19.924  0.00  0.00    +0.000 C 
BRANCH   7  11
ATOM     11  C   UNL     1      -2.052  10.366  18.306  0.00  0.00    +0.000 C 
BRANCH  11  17
ATOM     12  C   UNL     1      -3.226  10.909  15.379  0.00  0.00    +0.000 C 
ATOM     13  N   UNL     1      -3.806  11.259  16.648  0.00  0.00    +0.000 N 
ATOM     14  C   UNL     1      -4.969  11.954  16.798  0.00  0.00    +0.000 A 
ATOM     15  N   UNL     1      -5.240  12.088  18.072  0.00  0.00    +0.000 NA
ATOM     16  N   UNL     1      -4.226  11.488  18.776  0.00  0.00    +0.000 NA
ATOM     17  C   UNL     1      -3.347  11.004  17.918  0.00  0.00    +0.000 A 
ENDBRANCH  11  17
ENDBRANCH   7  11
ENDBRANCH   1   7
BRANCH   5  18
ATOM     18  N   UNL     1       2.006   7.334  19.683  0.00  0.00    +0.000 N 
ATOM     19  C   UNL     1       2.734   7.435  18.514  0.00  0.00    +0.000 C 
ATOM     20  O   UNL     1       2.942   8.449  17.857  0.00  0.00    +0.000 OA
ATOM     21  H   UNL     1       2.009   6.416  20.120  0.00  0.00    +0.000 HD
BRANCH  19  22
ATOM     22  C   UNL     1       3.312   6.138  18.048  0.00  0.00    +0.000 A 
ATOM     23  C   UNL     1       2.560   4.992  18.180  0.00  0.00    +0.000 A 
ATOM     24  C   UNL     1       3.143   3.819  17.762  0.00  0.00    +0.000 A 
ATOM     25  N   UNL     1       4.395   3.821  17.252  0.00  0.00    +0.000 NA
ATOM     26  C   UNL     1       5.070   4.991  17.139  0.00  0.00    +0.000 A 
ATOM     27  N   UNL     1       4.557   6.180  17.529  0.00  0.00    +0.000 NA
BRANCH  26  28
ATOM     28  C   UNL     1       6.488   4.963  16.549  0.00  0.00    +0.000 C 
ATOM     29  F   UNL     1       6.567   4.399  15.308  0.00  0.00    +0.000 F 
ATOM     30  F   UNL     1       7.027   6.211  16.418  0.00  0.00    +0.000 F 
ATOM     31  F   UNL     1       7.367   4.261  17.326  0.00  0.00    +0.000 F 
ENDBRANCH  26  28
BRANCH  24  32
ATOM     32  C   UNL     1       2.425   2.500  17.888  0.00  0.00    +0.000 C 
ATOM     33  C   UNL     1       2.276   1.810  19.224  0.00  0.00    +0.000 C 
ATOM     34  C   UNL     1       1.087   2.465  18.589  0.00  0.00    +0.000 C 
ENDBRANCH  24  32
ENDBRANCH  19  22
ENDBRANCH   5  18
TORSDOF 7
ENDMDL
