MODEL 1
REMARK VINA RESULT:      -8.6      0.000      0.000
REMARK  Name = 
REMARK  7 active torsions:
REMARK  status: ('A' for Active; 'I' for Inactive)
REMARK    1  A    between atoms: C_1  and  N_2
REMARK    2  A    between atoms: C_3  and  C_5
REMARK    3  A    between atoms: C_16  and  C_17
REMARK    4  A    between atoms: C_17  and  C_18
REMARK    5  A    between atoms: C_17  and  S_19
REMARK    6  A    between atoms: S_19  and  C_20
REMARK    7  A    between atoms: N_24  and  C_25
REMARK                            x       y       z     vdW  Elec       q    Type
REMARK                         _______ _______ _______ _____ _____    ______ ____
ROOT
ATOM      1  C   UNL     1      -1.742  12.525  22.956  0.00  0.00    +0.000 A 
ATOM      2  C   UNL     1      -0.879  13.504  22.413  0.00  0.00    +0.000 A 
ATOM      3  C   UNL     1       0.138  13.157  21.515  0.00  0.00    +0.000 A 
ATOM      4  C   UNL     1       0.272  11.825  21.170  0.00  0.00    +0.000 A 
ATOM      5  C   UNL     1      -0.569  10.862  21.730  0.00  0.00    +0.000 A 
ATOM      6  C   UNL     1      -1.595  11.178  22.602  0.00  0.00    +0.000 A 
ATOM      7  C   UNL     1      -0.163   9.543  21.221  0.00  0.00    +0.000 C 
ATOM      8  O   UNL     1      -0.716   8.507  21.535  0.00  0.00    +0.000 OA
ATOM      9  N   UNL     1       0.881   9.776  20.344  0.00  0.00    +0.000 N 
ATOM     10  C   UNL     1       1.537   8.812  19.575  0.00  0.00    +0.000 A 
ATOM     11  C   UNL     1       1.923   7.605  20.150  0.00  0.00    +0.000 A 
ATOM     12  C   UNL     1       2.650   6.677  19.389  0.00  0.00    +0.000 A 
ATOM     13  C   UNL     1       2.851   6.957  18.037  0.00  0.00    +0.000 A 
ATOM     14  C   UNL     1       2.414   8.174  17.542  0.00  0.00    +0.000 A 
ATOM     15  N   UNL     1       1.816   9.124  18.291  0.00  0.00    +0.000 NA
ATOM     16  C   UNL     1       1.225  11.176  20.219  0.00  0.00    +0.000 C 
ENDROOT
BRANCH   1  19
ATOM     17  C   UNL     1      -4.923  12.426  25.008  0.00  0.00    +0.000 C 
ATOM     18  N   UNL     1      -3.866  12.106  24.078  0.00  0.00    +0.000 N 
ATOM     19  C   UNL     1      -2.809  12.979  23.888  0.00  0.00    +0.000 C 
ATOM     20  O   UNL     1      -2.711  14.053  24.469  0.00  0.00    +0.000 OA
ATOM     21  H   UNL     1      -3.823  11.169  23.705  0.00  0.00    +0.000 HD
ENDBRANCH   1  19
BRANCH  12  22
ATOM     22  C   UNL     1       3.182   5.419  20.048  0.00  0.00    +0.000 C 
ATOM     23  C   UNL     1       2.043   4.688  20.769  0.00  0.00    +0.000 C 
BRANCH  22  24
ATOM     24  S   UNL     1       3.964   4.225  18.891  0.00  0.00    +0.000 S 
BRANCH  24  25
ATOM     25  C   UNL     1       5.613   4.733  18.838  0.00  0.00    +0.000 A 
ATOM     26  N   UNL     1       6.403   4.985  19.856  0.00  0.00    +0.000 NA
ATOM     27  N   UNL     1       7.603   5.439  19.362  0.00  0.00    +0.000 NA
ATOM     28  C   UNL     1       7.516   5.429  18.053  0.00  0.00    +0.000 A 
ATOM     29  N   UNL     1       6.296   4.950  17.673  0.00  0.00    +0.000 N 
ATOM     30  C   UNL     1       5.891   4.717  16.313  0.00  0.00    +0.000 C 
ENDBRANCH  24  25
ENDBRANCH  22  24
ENDBRANCH  12  22
TORSDOF 4
ENDMDL
MODEL 2
REMARK VINA RESULT:      -8.0      3.783      9.864
REMARK  Name = 
REMARK  7 active torsions:
REMARK  status: ('A' for Active; 'I' for Inactive)
REMARK    1  A    between atoms: C_1  and  N_2
REMARK    2  A    between atoms: C_3  and  C_5
REMARK    3  A    between atoms: C_16  and  C_17
REMARK    4  A    between atoms: C_17  and  C_18
REMARK    5  A    between atoms: C_17  and  S_19
REMARK    6  A    between atoms: S_19  and  C_20
REMARK    7  A    between atoms: N_24  and  C_25
REMARK                            x       y       z     vdW  Elec       q    Type
REMARK                         _______ _______ _______ _____ _____    ______ ____
ROOT
ATOM      1  C   UNL     1       2.475   6.891  19.424  0.00  0.00    +0.000 A 
ATOM      2  C   UNL     1       2.694   7.423  18.133  0.00  0.00    +0.000 A 
ATOM      3  C   UNL     1       2.162   8.664  17.760  0.00  0.00    +0.000 A 
ATOM      4  C   UNL     1       1.417   9.358  18.695  0.00  0.00    +0.000 A 
ATOM      5  C   UNL     1       1.186   8.814  19.960  0.00  0.00    +0.000 A 
ATOM      6  C   UNL     1       1.717   7.602  20.362  0.00  0.00    +0.000 A 
ATOM      7  C   UNL     1       0.331   9.744  20.713  0.00  0.00    +0.000 C 
ATOM      8  O   UNL     1      -0.039   9.537  21.852  0.00  0.00    +0.000 OA
ATOM      9  N   UNL     1       0.119  10.828  19.880  0.00  0.00    +0.000 N 
ATOM     10  C   UNL     1      -0.588  11.987  20.208  0.00  0.00    +0.000 A 
ATOM     11  C   UNL     1      -1.813  11.897  20.862  0.00  0.00    +0.000 A 
ATOM     12  C   UNL     1      -2.550  13.064  21.116  0.00  0.00    +0.000 A 
ATOM     13  C   UNL     1      -1.959  14.289  20.806  0.00  0.00    +0.000 A 
ATOM     14  C   UNL     1      -0.726  14.287  20.174  0.00  0.00    +0.000 A 
ATOM     15  N   UNL     1      -0.060  13.169  19.821  0.00  0.00    +0.000 NA
ATOM     16  C   UNL     1       0.771  10.702  18.594  0.00  0.00    +0.000 C 
ENDROOT
BRANCH   1  19
ATOM     17  C   UNL     1       4.891   3.980  19.258  0.00  0.00    +0.000 C 
ATOM     18  N   UNL     1       4.185   5.209  18.985  0.00  0.00    +0.000 N 
ATOM     19  C   UNL     1       3.091   5.576  19.748  0.00  0.00    +0.000 C 
ATOM     20  O   UNL     1       2.655   4.896  20.670  0.00  0.00    +0.000 OA
ATOM     21  H   UNL     1       4.604   5.871  18.349  0.00  0.00    +0.000 HD
ENDBRANCH   1  19
BRANCH  12  22
ATOM     22  C   UNL     1      -3.941  12.957  21.713  0.00  0.00    +0.000 C 
ATOM     23  C   UNL     1      -4.077  13.930  22.889  0.00  0.00    +0.000 C 
BRANCH  22  24
ATOM     24  S   UNL     1      -5.303  13.316  20.534  0.00  0.00    +0.000 S 
BRANCH  24  25
ATOM     25  C   UNL     1      -6.344  11.946  20.689  0.00  0.00    +0.000 A 
ATOM     26  N   UNL     1      -6.999  11.559  21.758  0.00  0.00    +0.000 NA
ATOM     27  N   UNL     1      -7.637  10.377  21.463  0.00  0.00    +0.000 NA
ATOM     28  C   UNL     1      -7.368  10.090  20.212  0.00  0.00    +0.000 A 
ATOM     29  N   UNL     1      -6.592  11.071  19.666  0.00  0.00    +0.000 N 
ATOM     30  C   UNL     1      -6.184  11.128  18.289  0.00  0.00    +0.000 C 
ENDBRANCH  24  25
ENDBRANCH  22  24
ENDBRANCH  12  22
TORSDOF 4
ENDMDL
MODEL 3
REMARK VINA RESULT:      -7.9      3.413     10.222
REMARK  Name = 
REMARK  7 active torsions:
REMARK  status: ('A' for Active; 'I' for Inactive)
REMARK    1  A    between atoms: C_1  and  N_2
REMARK    2  A    between atoms: C_3  and  C_5
REMARK    3  A    between atoms: C_16  and  C_17
REMARK    4  A    between atoms: C_17  and  C_18
REMARK    5  A    between atoms: C_17  and  S_19
REMARK    6  A    between atoms: S_19  and  C_20
REMARK    7  A    between atoms: N_24  and  C_25
REMARK                            x       y       z     vdW  Elec       q    Type
REMARK                         _______ _______ _______ _____ _____    ______ ____
ROOT
ATOM      1  C   UNL     1       2.118   6.696  19.925  0.00  0.00    +0.000 A 
ATOM      2  C   UNL     1       2.374   7.411  18.733  0.00  0.00    +0.000 A 
ATOM      3  C   UNL     1       2.002   8.755  18.599  0.00  0.00    +0.000 A 
ATOM      4  C   UNL     1       1.377   9.365  19.670  0.00  0.00    +0.000 A 
ATOM      5  C   UNL     1       1.105   8.644  20.834  0.00  0.00    +0.000 A 
ATOM      6  C   UNL     1       1.481   7.324  21.003  0.00  0.00    +0.000 A 
ATOM      7  C   UNL     1       0.399   9.530  21.771  0.00  0.00    +0.000 C 
ATOM      8  O   UNL     1       0.031   9.178  22.875  0.00  0.00    +0.000 OA
ATOM      9  N   UNL     1       0.312  10.759  21.143  0.00  0.00    +0.000 N 
ATOM     10  C   UNL     1      -0.228  11.924  21.693  0.00  0.00    +0.000 A 
ATOM     11  C   UNL     1      -1.439  11.877  22.377  0.00  0.00    +0.000 A 
ATOM     12  C   UNL     1      -2.009  13.067  22.858  0.00  0.00    +0.000 A 
ATOM     13  C   UNL     1      -1.269  14.242  22.731  0.00  0.00    +0.000 A 
ATOM     14  C   UNL     1      -0.062  14.194  22.053  0.00  0.00    +0.000 A 
ATOM     15  N   UNL     1       0.443  13.079  21.487  0.00  0.00    +0.000 NA
ATOM     16  C   UNL     1       0.912  10.776  19.826  0.00  0.00    +0.000 C 
ENDROOT
BRANCH   1  19
ATOM     17  C   UNL     1       3.619   3.400  18.816  0.00  0.00    +0.000 C 
ATOM     18  N   UNL     1       3.102   4.749  18.836  0.00  0.00    +0.000 N 
ATOM     19  C   UNL     1       2.562   5.277  19.994  0.00  0.00    +0.000 C 
ATOM     20  O   UNL     1       2.476   4.650  21.044  0.00  0.00    +0.000 OA
ATOM     21  H   UNL     1       3.301   5.349  18.049  0.00  0.00    +0.000 HD
ENDBRANCH   1  19
BRANCH  12  22
ATOM     22  C   UNL     1      -3.388  13.035  23.490  0.00  0.00    +0.000 C 
ATOM     23  C   UNL     1      -3.361  13.776  24.831  0.00  0.00    +0.000 C 
BRANCH  22  24
ATOM     24  S   UNL     1      -4.713  13.787  22.464  0.00  0.00    +0.000 S 
BRANCH  24  25
ATOM     25  C   UNL     1      -6.098  12.820  22.819  0.00  0.00    +0.000 A 
ATOM     26  N   UNL     1      -6.411  12.264  23.966  0.00  0.00    +0.000 NA
ATOM     27  N   UNL     1      -7.550  11.516  23.783  0.00  0.00    +0.000 NA
ATOM     28  C   UNL     1      -7.912  11.657  22.530  0.00  0.00    +0.000 A 
ATOM     29  N   UNL     1      -7.054  12.505  21.891  0.00  0.00    +0.000 N 
ATOM     30  C   UNL     1      -7.200  12.957  20.534  0.00  0.00    +0.000 C 
ENDBRANCH  24  25
ENDBRANCH  22  24
ENDBRANCH  12  22
TORSDOF 4
ENDMDL
MODEL 4
REMARK VINA RESULT:      -7.8      3.634      9.871
REMARK  Name = 
REMARK  7 active torsions:
REMARK  status: ('A' for Active; 'I' for Inactive)
REMARK    1  A    between atoms: C_1  and  N_2
REMARK    2  A    between atoms: C_3  and  C_5
REMARK    3  A    between atoms: C_16  and  C_17
REMARK    4  A    between atoms: C_17  and  C_18
REMARK    5  A    between atoms: C_17  and  S_19
REMARK    6  A    between atoms: S_19  and  C_20
REMARK    7  A    between atoms: N_24  and  C_25
REMARK                            x       y       z     vdW  Elec       q    Type
REMARK                         _______ _______ _______ _____ _____    ______ ____
ROOT
ATOM      1  C   UNL     1       2.526   6.154  19.608  0.00  0.00    +0.000 A 
ATOM      2  C   UNL     1       2.898   6.521  18.295  0.00  0.00    +0.000 A 
ATOM      3  C   UNL     1       2.587   7.786  17.779  0.00  0.00    +0.000 A 
ATOM      4  C   UNL     1       1.906   8.670  18.595  0.00  0.00    +0.000 A 
ATOM      5  C   UNL     1       1.520   8.289  19.882  0.00  0.00    +0.000 A 
ATOM      6  C   UNL     1       1.833   7.057  20.424  0.00  0.00    +0.000 A 
ATOM      7  C   UNL     1       0.778   9.404  20.489  0.00  0.00    +0.000 C 
ATOM      8  O   UNL     1       0.314   9.365  21.612  0.00  0.00    +0.000 OA
ATOM      9  N   UNL     1       0.784  10.423  19.553  0.00  0.00    +0.000 N 
ATOM     10  C   UNL     1       0.247  11.701  19.729  0.00  0.00    +0.000 A 
ATOM     11  C   UNL     1      -1.012  11.857  20.298  0.00  0.00    +0.000 A 
ATOM     12  C   UNL     1      -1.573  13.140  20.397  0.00  0.00    +0.000 A 
ATOM     13  C   UNL     1      -0.782  14.227  20.026  0.00  0.00    +0.000 A 
ATOM     14  C   UNL     1       0.469  13.981  19.488  0.00  0.00    +0.000 A 
ATOM     15  N   UNL     1       0.974  12.748  19.280  0.00  0.00    +0.000 NA
ATOM     16  C   UNL     1       1.482  10.079  18.333  0.00  0.00    +0.000 C 
ENDROOT
BRANCH   1  19
ATOM     17  C   UNL     1       2.417   2.954  21.629  0.00  0.00    +0.000 C 
ATOM     18  N   UNL     1       2.163   4.285  21.131  0.00  0.00    +0.000 N 
ATOM     19  C   UNL     1       2.911   4.799  20.087  0.00  0.00    +0.000 C 
ATOM     20  O   UNL     1       3.819   4.182  19.541  0.00  0.00    +0.000 OA
ATOM     21  H   UNL     1       1.327   4.760  21.437  0.00  0.00    +0.000 HD
ENDBRANCH   1  19
BRANCH  12  22
ATOM     22  C   UNL     1      -2.996  13.299  20.899  0.00  0.00    +0.000 C 
ATOM     23  C   UNL     1      -3.318  14.786  21.085  0.00  0.00    +0.000 C 
BRANCH  22  24
ATOM     24  S   UNL     1      -4.277  12.587  19.792  0.00  0.00    +0.000 S 
BRANCH  24  25
ATOM     25  C   UNL     1      -5.626  12.337  20.841  0.00  0.00    +0.000 A 
ATOM     26  N   UNL     1      -5.607  12.200  22.146  0.00  0.00    +0.000 NA
ATOM     27  N   UNL     1      -6.889  11.938  22.567  0.00  0.00    +0.000 NA
ATOM     28  C   UNL     1      -7.658  11.946  21.505  0.00  0.00    +0.000 A 
ATOM     29  N   UNL     1      -6.917  12.237  20.396  0.00  0.00    +0.000 N 
ATOM     30  C   UNL     1      -7.448  12.417  19.073  0.00  0.00    +0.000 C 
ENDBRANCH  24  25
ENDBRANCH  22  24
ENDBRANCH  12  22
TORSDOF 4
ENDMDL
MODEL 5
REMARK VINA RESULT:      -7.8      3.759     10.500
REMARK  Name = 
REMARK  7 active torsions:
REMARK  status: ('A' for Active; 'I' for Inactive)
REMARK    1  A    between atoms: C_1  and  N_2
REMARK    2  A    between atoms: C_3  and  C_5
REMARK    3  A    between atoms: C_16  and  C_17
REMARK    4  A    between atoms: C_17  and  C_18
REMARK    5  A    between atoms: C_17  and  S_19
REMARK    6  A    between atoms: S_19  and  C_20
REMARK    7  A    between atoms: N_24  and  C_25
REMARK                            x       y       z     vdW  Elec       q    Type
REMARK                         _______ _______ _______ _____ _____    ______ ____
ROOT
ATOM      1  C   UNL     1       1.999   6.561  19.880  0.00  0.00    +0.000 A 
ATOM      2  C   UNL     1       2.324   7.299  18.719  0.00  0.00    +0.000 A 
ATOM      3  C   UNL     1       2.014   8.662  18.615  0.00  0.00    +0.000 A 
ATOM      4  C   UNL     1       1.383   9.267  19.685  0.00  0.00    +0.000 A 
ATOM      5  C   UNL     1       1.044   8.524  20.818  0.00  0.00    +0.000 A 
ATOM      6  C   UNL     1       1.357   7.185  20.957  0.00  0.00    +0.000 A 
ATOM      7  C   UNL     1       0.347   9.413  21.759  0.00  0.00    +0.000 C 
ATOM      8  O   UNL     1      -0.071   9.045  22.840  0.00  0.00    +0.000 OA
ATOM      9  N   UNL     1       0.333  10.663  21.167  0.00  0.00    +0.000 N 
ATOM     10  C   UNL     1      -0.174  11.834  21.737  0.00  0.00    +0.000 A 
ATOM     11  C   UNL     1      -1.406  11.820  22.382  0.00  0.00    +0.000 A 
ATOM     12  C   UNL     1      -1.940  13.019  22.881  0.00  0.00    +0.000 A 
ATOM     13  C   UNL     1      -1.146  14.164  22.813  0.00  0.00    +0.000 A 
ATOM     14  C   UNL     1       0.078  14.083  22.171  0.00  0.00    +0.000 A 
ATOM     15  N   UNL     1       0.552  12.963  21.586  0.00  0.00    +0.000 NA
ATOM     16  C   UNL     1       0.974  10.692  19.870  0.00  0.00    +0.000 C 
ENDROOT
BRANCH   1  19
ATOM     17  C   UNL     1       1.598   2.799  20.030  0.00  0.00    +0.000 C 
ATOM     18  N   UNL     1       1.340   4.220  20.042  0.00  0.00    +0.000 N 
ATOM     19  C   UNL     1       2.380   5.124  19.919  0.00  0.00    +0.000 C 
ATOM     20  O   UNL     1       3.554   4.789  19.808  0.00  0.00    +0.000 OA
ATOM     21  H   UNL     1       0.384   4.534  19.967  0.00  0.00    +0.000 HD
ENDBRANCH   1  19
BRANCH  12  22
ATOM     22  C   UNL     1      -3.338  13.029  23.470  0.00  0.00    +0.000 C 
ATOM     23  C   UNL     1      -3.460  14.160  24.497  0.00  0.00    +0.000 C 
BRANCH  22  24
ATOM     24  S   UNL     1      -4.682  13.249  22.237  0.00  0.00    +0.000 S 
BRANCH  24  25
ATOM     25  C   UNL     1      -6.111  13.315  23.204  0.00  0.00    +0.000 A 
ATOM     26  N   UNL     1      -6.728  12.312  23.785  0.00  0.00    +0.000 NA
ATOM     27  N   UNL     1      -7.867  12.800  24.382  0.00  0.00    +0.000 NA
ATOM     28  C   UNL     1      -7.898  14.093  24.165  0.00  0.00    +0.000 A 
ATOM     29  N   UNL     1      -6.791  14.474  23.464  0.00  0.00    +0.000 N 
ATOM     30  C   UNL     1      -6.453  15.831  23.131  0.00  0.00    +0.000 C 
ENDBRANCH  24  25
ENDBRANCH  22  24
ENDBRANCH  12  22
TORSDOF 4
ENDMDL
MODEL 6
REMARK VINA RESULT:      -7.7      3.461     10.456
REMARK  Name = 
REMARK  7 active torsions:
REMARK  status: ('A' for Active; 'I' for Inactive)
REMARK    1  A    between atoms: C_1  and  N_2
REMARK    2  A    between atoms: C_3  and  C_5
REMARK    3  A    between atoms: C_16  and  C_17
REMARK    4  A    between atoms: C_17  and  C_18
REMARK    5  A    between atoms: C_17  and  S_19
REMARK    6  A    between atoms: S_19  and  C_20
REMARK    7  A    between atoms: N_24  and  C_25
REMARK                            x       y       z     vdW  Elec       q    Type
REMARK                         _______ _______ _______ _____ _____    ______ ____
ROOT
ATOM      1  C   UNL     1       2.896   6.571  19.140  0.00  0.00    +0.000 A 
ATOM      2  C   UNL     1       2.981   7.155  17.856  0.00  0.00    +0.000 A 
ATOM      3  C   UNL     1       2.381   8.391  17.580  0.00  0.00    +0.000 A 
ATOM      4  C   UNL     1       1.705   9.027  18.604  0.00  0.00    +0.000 A 
ATOM      5  C   UNL     1       1.605   8.430  19.863  0.00  0.00    +0.000 A 
ATOM      6  C   UNL     1       2.205   7.223  20.169  0.00  0.00    +0.000 A 
ATOM      7  C   UNL     1       0.797   9.306  20.724  0.00  0.00    +0.000 C 
ATOM      8  O   UNL     1       0.537   9.047  21.883  0.00  0.00    +0.000 OA
ATOM      9  N   UNL     1       0.478  10.411  19.957  0.00  0.00    +0.000 N 
ATOM     10  C   UNL     1      -0.229  11.535  20.391  0.00  0.00    +0.000 A 
ATOM     11  C   UNL     1      -1.386  11.382  21.148  0.00  0.00    +0.000 A 
ATOM     12  C   UNL     1      -2.130  12.515  21.512  0.00  0.00    +0.000 A 
ATOM     13  C   UNL     1      -1.605  13.768  21.197  0.00  0.00    +0.000 A 
ATOM     14  C   UNL     1      -0.435  13.829  20.458  0.00  0.00    +0.000 A 
ATOM     15  N   UNL     1       0.228  12.746  20.003  0.00  0.00    +0.000 NA
ATOM     16  C   UNL     1       1.014  10.352  18.613  0.00  0.00    +0.000 C 
ENDROOT
BRANCH   1  19
ATOM     17  C   UNL     1       3.350   2.821  19.413  0.00  0.00    +0.000 C 
ATOM     18  N   UNL     1       2.776   4.139  19.277  0.00  0.00    +0.000 N 
ATOM     19  C   UNL     1       3.576   5.265  19.356  0.00  0.00    +0.000 C 
ATOM     20  O   UNL     1       4.785   5.220  19.554  0.00  0.00    +0.000 OA
ATOM     21  H   UNL     1       1.823   4.216  18.954  0.00  0.00    +0.000 HD
ENDBRANCH   1  19
BRANCH  12  22
ATOM     22  C   UNL     1      -3.457  12.343  22.226  0.00  0.00    +0.000 C 
ATOM     23  C   UNL     1      -3.265  12.538  23.734  0.00  0.00    +0.000 C 
BRANCH  22  24
ATOM     24  S   UNL     1      -4.772  13.503  21.679  0.00  0.00    +0.000 S 
BRANCH  24  25
ATOM     25  C   UNL     1      -6.056  13.218  22.798  0.00  0.00    +0.000 A 
ATOM     26  N   UNL     1      -6.719  12.101  22.983  0.00  0.00    +0.000 NA
ATOM     27  N   UNL     1      -7.707  12.339  23.908  0.00  0.00    +0.000 NA
ATOM     28  C   UNL     1      -7.603  13.593  24.278  0.00  0.00    +0.000 A 
ATOM     29  N   UNL     1      -6.548  14.179  23.639  0.00  0.00    +0.000 N 
ATOM     30  C   UNL     1      -6.086  15.520  23.872  0.00  0.00    +0.000 C 
ENDBRANCH  24  25
ENDBRANCH  22  24
ENDBRANCH  12  22
TORSDOF 4
ENDMDL
MODEL 7
REMARK VINA RESULT:      -7.7      3.895      9.732
REMARK  Name = 
REMARK  7 active torsions:
REMARK  status: ('A' for Active; 'I' for Inactive)
REMARK    1  A    between atoms: C_1  and  N_2
REMARK    2  A    between atoms: C_3  and  C_5
REMARK    3  A    between atoms: C_16  and  C_17
REMARK    4  A    between atoms: C_17  and  C_18
REMARK    5  A    between atoms: C_17  and  S_19
REMARK    6  A    between atoms: S_19  and  C_20
REMARK    7  A    between atoms: N_24  and  C_25
REMARK                            x       y       z     vdW  Elec       q    Type
REMARK                         _______ _______ _______ _____ _____    ______ ____
ROOT
ATOM      1  C   UNL     1       2.503   7.008  19.378  0.00  0.00    +0.000 A 
ATOM      2  C   UNL     1       2.661   7.578  18.095  0.00  0.00    +0.000 A 
ATOM      3  C   UNL     1       2.081   8.812  17.772  0.00  0.00    +0.000 A 
ATOM      4  C   UNL     1       1.348   9.459  18.750  0.00  0.00    +0.000 A 
ATOM      5  C   UNL     1       1.176   8.876  20.006  0.00  0.00    +0.000 A 
ATOM      6  C   UNL     1       1.755   7.671  20.359  0.00  0.00    +0.000 A 
ATOM      7  C   UNL     1       0.321   9.761  20.811  0.00  0.00    +0.000 C 
ATOM      8  O   UNL     1      -0.005   9.514  21.957  0.00  0.00    +0.000 OA
ATOM      9  N   UNL     1       0.048  10.858  20.015  0.00  0.00    +0.000 N 
ATOM     10  C   UNL     1      -0.681  11.987  20.397  0.00  0.00    +0.000 A 
ATOM     11  C   UNL     1      -1.880  11.843  21.088  0.00  0.00    +0.000 A 
ATOM     12  C   UNL     1      -2.642  12.981  21.398  0.00  0.00    +0.000 A 
ATOM     13  C   UNL     1      -2.098  14.230  21.100  0.00  0.00    +0.000 A 
ATOM     14  C   UNL     1      -0.888  14.282  20.428  0.00  0.00    +0.000 A 
ATOM     15  N   UNL     1      -0.201  13.194  20.023  0.00  0.00    +0.000 NA
ATOM     16  C   UNL     1       0.659  10.785  18.706  0.00  0.00    +0.000 C 
ENDROOT
BRANCH   1  19
ATOM     17  C   UNL     1       5.051   4.218  19.124  0.00  0.00    +0.000 C 
ATOM     18  N   UNL     1       4.298   5.429  18.898  0.00  0.00    +0.000 N 
ATOM     19  C   UNL     1       3.168   5.704  19.646  0.00  0.00    +0.000 C 
ATOM     20  O   UNL     1       2.736   4.954  20.515  0.00  0.00    +0.000 OA
ATOM     21  H   UNL     1       4.705   6.144  18.313  0.00  0.00    +0.000 HD
ENDBRANCH   1  19
BRANCH  12  22
ATOM     22  C   UNL     1      -4.008  12.817  22.037  0.00  0.00    +0.000 C 
ATOM     23  C   UNL     1      -4.043  13.549  23.383  0.00  0.00    +0.000 C 
BRANCH  22  24
ATOM     24  S   UNL     1      -5.403  13.451  21.023  0.00  0.00    +0.000 S 
BRANCH  24  25
ATOM     25  C   UNL     1      -5.650  12.207  19.851  0.00  0.00    +0.000 A 
ATOM     26  N   UNL     1      -4.928  11.964  18.782  0.00  0.00    +0.000 NA
ATOM     27  N   UNL     1      -5.525  10.940  18.087  0.00  0.00    +0.000 NA
ATOM     28  C   UNL     1      -6.585  10.573  18.766  0.00  0.00    +0.000 A 
ATOM     29  N   UNL     1      -6.683  11.312  19.909  0.00  0.00    +0.000 N 
ATOM     30  C   UNL     1      -7.672  11.117  20.934  0.00  0.00    +0.000 C 
ENDBRANCH  24  25
ENDBRANCH  22  24
ENDBRANCH  12  22
TORSDOF 4
ENDMDL
MODEL 8
REMARK VINA RESULT:      -7.7      3.497      9.525
REMARK  Name = 
REMARK  7 active torsions:
REMARK  status: ('A' for Active; 'I' for Inactive)
REMARK    1  A    between atoms: C_1  and  N_2
REMARK    2  A    between atoms: C_3  and  C_5
REMARK    3  A    between atoms: C_16  and  C_17
REMARK    4  A    between atoms: C_17  and  C_18
REMARK    5  A    between atoms: C_17  and  S_19
REMARK    6  A    between atoms: S_19  and  C_20
REMARK    7  A    between atoms: N_24  and  C_25
REMARK                            x       y       z     vdW  Elec       q    Type
REMARK                         _______ _______ _______ _____ _____    ______ ____
ROOT
ATOM      1  C   UNL     1       2.608   5.897  19.604  0.00  0.00    +0.000 A 
ATOM      2  C   UNL     1       2.977   6.230  18.281  0.00  0.00    +0.000 A 
ATOM      3  C   UNL     1       2.703   7.497  17.748  0.00  0.00    +0.000 A 
ATOM      4  C   UNL     1       2.062   8.416  18.557  0.00  0.00    +0.000 A 
ATOM      5  C   UNL     1       1.679   8.069  19.855  0.00  0.00    +0.000 A 
ATOM      6  C   UNL     1       1.956   6.836  20.413  0.00  0.00    +0.000 A 
ATOM      7  C   UNL     1       0.982   9.219  20.451  0.00  0.00    +0.000 C 
ATOM      8  O   UNL     1       0.531   9.213  21.580  0.00  0.00    +0.000 OA
ATOM      9  N   UNL     1       1.012  10.221  19.499  0.00  0.00    +0.000 N 
ATOM     10  C   UNL     1       0.520  11.519  19.660  0.00  0.00    +0.000 A 
ATOM     11  C   UNL     1      -0.726  11.727  20.241  0.00  0.00    +0.000 A 
ATOM     12  C   UNL     1      -1.243  13.029  20.325  0.00  0.00    +0.000 A 
ATOM     13  C   UNL     1      -0.420  14.083  19.927  0.00  0.00    +0.000 A 
ATOM     14  C   UNL     1       0.816  13.787  19.379  0.00  0.00    +0.000 A 
ATOM     15  N   UNL     1       1.277  12.533  19.186  0.00  0.00    +0.000 NA
ATOM     16  C   UNL     1       1.683   9.834  18.277  0.00  0.00    +0.000 C 
ENDROOT
BRANCH   1  19
ATOM     17  C   UNL     1       2.401   2.725  21.662  0.00  0.00    +0.000 C 
ATOM     18  N   UNL     1       2.187   4.057  21.147  0.00  0.00    +0.000 N 
ATOM     19  C   UNL     1       2.953   4.538  20.101  0.00  0.00    +0.000 C 
ATOM     20  O   UNL     1       3.847   3.890  19.567  0.00  0.00    +0.000 OA
ATOM     21  H   UNL     1       1.362   4.558  21.443  0.00  0.00    +0.000 HD
ENDBRANCH   1  19
BRANCH  12  22
ATOM     22  C   UNL     1      -2.653  13.245  20.841  0.00  0.00    +0.000 C 
ATOM     23  C   UNL     1      -3.657  12.550  19.914  0.00  0.00    +0.000 C 
BRANCH  22  24
ATOM     24  S   UNL     1      -2.944  12.620  22.544  0.00  0.00    +0.000 S 
BRANCH  24  25
ATOM     25  C   UNL     1      -2.236  13.834  23.547  0.00  0.00    +0.000 A 
ATOM     26  N   UNL     1      -0.963  13.998  23.824  0.00  0.00    +0.000 NA
ATOM     27  N   UNL     1      -0.851  15.030  24.725  0.00  0.00    +0.000 NA
ATOM     28  C   UNL     1      -2.061  15.481  24.954  0.00  0.00    +0.000 A 
ATOM     29  N   UNL     1      -2.965  14.789  24.202  0.00  0.00    +0.000 N 
ATOM     30  C   UNL     1      -4.372  15.077  24.134  0.00  0.00    +0.000 C 
ENDBRANCH  24  25
ENDBRANCH  22  24
ENDBRANCH  12  22
TORSDOF 4
ENDMDL
MODEL 9
REMARK VINA RESULT:      -7.7      2.017      2.458
REMARK  Name = 
REMARK  7 active torsions:
REMARK  status: ('A' for Active; 'I' for Inactive)
REMARK    1  A    between atoms: C_1  and  N_2
REMARK    2  A    between atoms: C_3  and  C_5
REMARK    3  A    between atoms: C_16  and  C_17
REMARK    4  A    between atoms: C_17  and  C_18
REMARK    5  A    between atoms: C_17  and  S_19
REMARK    6  A    between atoms: S_19  and  C_20
REMARK    7  A    between atoms: N_24  and  C_25
REMARK                            x       y       z     vdW  Elec       q    Type
REMARK                         _______ _______ _______ _____ _____    ______ ____
ROOT
ATOM      1  C   UNL     1      -1.707  13.373  23.009  0.00  0.00    +0.000 A 
ATOM      2  C   UNL     1      -0.841  14.301  22.388  0.00  0.00    +0.000 A 
ATOM      3  C   UNL     1       0.125  13.885  21.463  0.00  0.00    +0.000 A 
ATOM      4  C   UNL     1       0.205  12.536  21.170  0.00  0.00    +0.000 A 
ATOM      5  C   UNL     1      -0.639  11.624  21.807  0.00  0.00    +0.000 A 
ATOM      6  C   UNL     1      -1.615  12.008  22.707  0.00  0.00    +0.000 A 
ATOM      7  C   UNL     1      -0.295  10.273  21.337  0.00  0.00    +0.000 C 
ATOM      8  O   UNL     1      -0.864   9.269  21.719  0.00  0.00    +0.000 OA
ATOM      9  N   UNL     1       0.715  10.437  20.407  0.00  0.00    +0.000 N 
ATOM     10  C   UNL     1       1.308   9.421  19.653  0.00  0.00    +0.000 A 
ATOM     11  C   UNL     1       1.684   8.228  20.263  0.00  0.00    +0.000 A 
ATOM     12  C   UNL     1       2.348   7.246  19.511  0.00  0.00    +0.000 A 
ATOM     13  C   UNL     1       2.497   7.464  18.141  0.00  0.00    +0.000 A 
ATOM     14  C   UNL     1       2.075   8.672  17.614  0.00  0.00    +0.000 A 
ATOM     15  N   UNL     1       1.539   9.671  18.346  0.00  0.00    +0.000 NA
ATOM     16  C   UNL     1       1.095  11.819  20.208  0.00  0.00    +0.000 C 
ENDROOT
BRANCH   1  19
ATOM     17  C   UNL     1      -3.728  15.885  24.996  0.00  0.00    +0.000 C 
ATOM     18  N   UNL     1      -2.744  15.270  24.135  0.00  0.00    +0.000 N 
ATOM     19  C   UNL     1      -2.719  13.898  23.966  0.00  0.00    +0.000 C 
ATOM     20  O   UNL     1      -3.496  13.135  24.528  0.00  0.00    +0.000 OA
ATOM     21  H   UNL     1      -2.196  15.866  23.532  0.00  0.00    +0.000 HD
ENDBRANCH   1  19
BRANCH  12  22
ATOM     22  C   UNL     1       2.872   6.001  20.201  0.00  0.00    +0.000 C 
ATOM     23  C   UNL     1       1.749   4.965  20.326  0.00  0.00    +0.000 C 
BRANCH  22  24
ATOM     24  S   UNL     1       4.281   5.192  19.344  0.00  0.00    +0.000 S 
BRANCH  24  25
ATOM     25  C   UNL     1       3.550   3.851  18.539  0.00  0.00    +0.000 A 
ATOM     26  N   UNL     1       2.830   3.874  17.442  0.00  0.00    +0.000 NA
ATOM     27  N   UNL     1       2.378   2.599  17.200  0.00  0.00    +0.000 NA
ATOM     28  C   UNL     1       2.855   1.828  18.148  0.00  0.00    +0.000 A 
ATOM     29  N   UNL     1       3.637   2.562  18.993  0.00  0.00    +0.000 N 
ATOM     30  C   UNL     1       4.392   2.025  20.092  0.00  0.00    +0.000 C 
ENDBRANCH  24  25
ENDBRANCH  22  24
ENDBRANCH  12  22
TORSDOF 4
ENDMDL
