MODEL 1
REMARK VINA RESULT:      -9.5      0.000      0.000
REMARK  Name = 
REMARK  7 active torsions:
REMARK  status: ('A' for Active; 'I' for Inactive)
REMARK    1  A    between atoms: C_1  and  N_2
REMARK    2  A    between atoms: C_6  and  C_7
REMARK    3  A    between atoms: C_7  and  C_9
REMARK    4  A    between atoms: C_9  and  C_10
REMARK    5  A    between atoms: C_9  and  C_12
REMARK    6  A    between atoms: C_16  and  N_17
REMARK    7  A    between atoms: C_24  and  C_25
REMARK                            x       y       z     vdW  Elec       q    Type
REMARK                         _______ _______ _______ _____ _____    ______ ____
ROOT
ATOM      1  C   UNL     1       5.087   5.368  18.990  0.00  0.00    +0.000 A 
ATOM      2  C   UNL     1       4.565   4.117  19.325  0.00  0.00    +0.000 A 
ATOM      3  C   UNL     1       3.224   3.992  19.712  0.00  0.00    +0.000 A 
ATOM      4  C   UNL     1       2.384   5.114  19.784  0.00  0.00    +0.000 A 
ATOM      5  C   UNL     1       2.886   6.378  19.494  0.00  0.00    +0.000 A 
ATOM      6  C   UNL     1       4.239   6.476  19.117  0.00  0.00    +0.000 A 
ENDROOT
BRANCH   5   7
ATOM      7  N   UNL     1       2.100   7.560  19.524  0.00  0.00    +0.000 N 
ATOM      8  C   UNL     1       1.396   7.917  20.737  0.00  0.00    +0.000 C 
ATOM      9  C   UNL     1       0.787   9.234  20.432  0.00  0.00    +0.000 A 
ATOM     10  C   UNL     1       1.091   9.600  19.123  0.00  0.00    +0.000 A 
ATOM     11  C   UNL     1       0.652  10.800  18.598  0.00  0.00    +0.000 A 
ATOM     12  C   UNL     1      -0.110  11.635  19.427  0.00  0.00    +0.000 A 
ATOM     13  C   UNL     1      -0.414  11.262  20.753  0.00  0.00    +0.000 A 
ATOM     14  C   UNL     1       0.038  10.045  21.282  0.00  0.00    +0.000 A 
ATOM     15  C   UNL     1       1.932   8.533  18.527  0.00  0.00    +0.000 C 
ATOM     16  O   UNL     1       2.360   8.583  17.385  0.00  0.00    +0.000 OA
BRANCH  14  17
ATOM     17  C   UNL     1      -0.262   9.650  22.708  0.00  0.00    +0.000 C 
ATOM     18  F   UNL     1       0.850   9.445  23.467  0.00  0.00    +0.000 F 
ATOM     19  F   UNL     1      -0.983  10.598  23.366  0.00  0.00    +0.000 F 
ATOM     20  F   UNL     1      -0.983   8.500  22.789  0.00  0.00    +0.000 F 
ENDBRANCH  14  17
ENDBRANCH   5   7
BRANCH   1  21
ATOM     21  C   UNL     1       6.497   5.616  18.443  0.00  0.00    +0.000 C 
ATOM     22  C   UNL     1       6.574   6.911  17.627  0.00  0.00    +0.000 C 
ATOM     23  F   UNL     1       7.381   5.834  19.480  0.00  0.00    +0.000 F 
BRANCH  21  24
ATOM     24  C   UNL     1       7.047   4.436  17.602  0.00  0.00    +0.000 C 
ATOM     25  F   UNL     1       8.371   4.253  17.888  0.00  0.00    +0.000 F 
BRANCH  24  31
ATOM     26  C   UNL     1       4.498   3.572  15.990  0.00  0.00    +0.000 C 
ATOM     27  N   UNL     1       5.683   4.185  15.455  0.00  0.00    +0.000 N 
ATOM     28  C   UNL     1       5.890   4.503  14.147  0.00  0.00    +0.000 A 
ATOM     29  N   UNL     1       7.063   5.074  14.016  0.00  0.00    +0.000 NA
ATOM     30  N   UNL     1       7.634   5.137  15.261  0.00  0.00    +0.000 NA
ATOM     31  C   UNL     1       6.809   4.579  16.131  0.00  0.00    +0.000 A 
ENDBRANCH  24  31
ENDBRANCH  21  24
ENDBRANCH   1  21
TORSDOF 5
ENDMDL
MODEL 2
REMARK VINA RESULT:      -9.3      1.639      2.505
REMARK  Name = 
REMARK  7 active torsions:
REMARK  status: ('A' for Active; 'I' for Inactive)
REMARK    1  A    between atoms: C_1  and  N_2
REMARK    2  A    between atoms: C_6  and  C_7
REMARK    3  A    between atoms: C_7  and  C_9
REMARK    4  A    between atoms: C_9  and  C_10
REMARK    5  A    between atoms: C_9  and  C_12
REMARK    6  A    between atoms: C_16  and  N_17
REMARK    7  A    between atoms: C_24  and  C_25
REMARK                            x       y       z     vdW  Elec       q    Type
REMARK                         _______ _______ _______ _____ _____    ______ ____
ROOT
ATOM      1  C   UNL     1       4.559   5.361  17.702  0.00  0.00    +0.000 A 
ATOM      2  C   UNL     1       4.502   4.302  18.610  0.00  0.00    +0.000 A 
ATOM      3  C   UNL     1       3.652   4.371  19.722  0.00  0.00    +0.000 A 
ATOM      4  C   UNL     1       2.855   5.502  19.955  0.00  0.00    +0.000 A 
ATOM      5  C   UNL     1       2.918   6.589  19.089  0.00  0.00    +0.000 A 
ATOM      6  C   UNL     1       3.787   6.497  17.984  0.00  0.00    +0.000 A 
ENDROOT
BRANCH   5   7
ATOM      7  N   UNL     1       2.133   7.760  19.241  0.00  0.00    +0.000 N 
ATOM      8  C   UNL     1       1.458   8.008  20.497  0.00  0.00    +0.000 C 
ATOM      9  C   UNL     1       0.840   9.345  20.323  0.00  0.00    +0.000 A 
ATOM     10  C   UNL     1       1.111   9.824  19.045  0.00  0.00    +0.000 A 
ATOM     11  C   UNL     1       0.658  11.064  18.636  0.00  0.00    +0.000 A 
ATOM     12  C   UNL     1      -0.084  11.821  19.554  0.00  0.00    +0.000 A 
ATOM     13  C   UNL     1      -0.355  11.333  20.850  0.00  0.00    +0.000 A 
ATOM     14  C   UNL     1       0.112  10.076  21.259  0.00  0.00    +0.000 A 
ATOM     15  C   UNL     1       1.939   8.816  18.337  0.00  0.00    +0.000 C 
ATOM     16  O   UNL     1       2.339   8.967  17.194  0.00  0.00    +0.000 OA
BRANCH  14  17
ATOM     17  C   UNL     1      -0.153   9.558  22.652  0.00  0.00    +0.000 C 
ATOM     18  F   UNL     1      -0.849  10.425  23.438  0.00  0.00    +0.000 F 
ATOM     19  F   UNL     1      -0.877   8.407  22.647  0.00  0.00    +0.000 F 
ATOM     20  F   UNL     1       0.994   9.283  23.331  0.00  0.00    +0.000 F 
ENDBRANCH  14  17
ENDBRANCH   5   7
BRANCH   1  21
ATOM     21  C   UNL     1       5.355   5.357  16.392  0.00  0.00    +0.000 C 
ATOM     22  C   UNL     1       4.949   4.195  15.479  0.00  0.00    +0.000 C 
ATOM     23  F   UNL     1       5.052   6.477  15.645  0.00  0.00    +0.000 F 
BRANCH  21  24
ATOM     24  C   UNL     1       6.890   5.341  16.605  0.00  0.00    +0.000 C 
ATOM     25  F   UNL     1       7.250   4.180  17.231  0.00  0.00    +0.000 F 
BRANCH  24  31
ATOM     26  C   UNL     1       8.025   5.481  19.527  0.00  0.00    +0.000 C 
ATOM     27  N   UNL     1       7.898   6.576  18.603  0.00  0.00    +0.000 N 
ATOM     28  C   UNL     1       8.263   7.864  18.846  0.00  0.00    +0.000 A 
ATOM     29  N   UNL     1       8.037   8.592  17.780  0.00  0.00    +0.000 NA
ATOM     30  N   UNL     1       7.519   7.765  16.817  0.00  0.00    +0.000 NA
ATOM     31  C   UNL     1       7.413   6.547  17.321  0.00  0.00    +0.000 A 
ENDBRANCH  24  31
ENDBRANCH  21  24
ENDBRANCH   1  21
TORSDOF 5
ENDMDL
MODEL 3
REMARK VINA RESULT:      -9.1      1.018      1.295
REMARK  Name = 
REMARK  7 active torsions:
REMARK  status: ('A' for Active; 'I' for Inactive)
REMARK    1  A    between atoms: C_1  and  N_2
REMARK    2  A    between atoms: C_6  and  C_7
REMARK    3  A    between atoms: C_7  and  C_9
REMARK    4  A    between atoms: C_9  and  C_10
REMARK    5  A    between atoms: C_9  and  C_12
REMARK    6  A    between atoms: C_16  and  N_17
REMARK    7  A    between atoms: C_24  and  C_25
REMARK                            x       y       z     vdW  Elec       q    Type
REMARK                         _______ _______ _______ _____ _____    ______ ____
ROOT
ATOM      1  C   UNL     1       4.906   5.032  18.248  0.00  0.00    +0.000 A 
ATOM      2  C   UNL     1       4.543   3.887  18.959  0.00  0.00    +0.000 A 
ATOM      3  C   UNL     1       3.409   3.898  19.783  0.00  0.00    +0.000 A 
ATOM      4  C   UNL     1       2.627   5.054  19.923  0.00  0.00    +0.000 A 
ATOM      5  C   UNL     1       2.985   6.221  19.257  0.00  0.00    +0.000 A 
ATOM      6  C   UNL     1       4.134   6.186  18.443  0.00  0.00    +0.000 A 
ENDROOT
BRANCH   5   7
ATOM      7  N   UNL     1       2.240   7.426  19.329  0.00  0.00    +0.000 N 
ATOM      8  C   UNL     1       1.559   7.772  20.559  0.00  0.00    +0.000 C 
ATOM      9  C   UNL     1       0.990   9.116  20.297  0.00  0.00    +0.000 A 
ATOM     10  C   UNL     1       1.293   9.509  18.997  0.00  0.00    +0.000 A 
ATOM     11  C   UNL     1       0.888  10.737  18.509  0.00  0.00    +0.000 A 
ATOM     12  C   UNL     1       0.162  11.572  19.370  0.00  0.00    +0.000 A 
ATOM     13  C   UNL     1      -0.140  11.172  20.689  0.00  0.00    +0.000 A 
ATOM     14  C   UNL     1       0.277   9.926  21.178  0.00  0.00    +0.000 A 
ATOM     15  C   UNL     1       2.093   8.432  18.362  0.00  0.00    +0.000 C 
ATOM     16  O   UNL     1       2.511   8.501  17.217  0.00  0.00    +0.000 OA
BRANCH  14  17
ATOM     17  C   UNL     1      -0.021   9.501  22.596  0.00  0.00    +0.000 C 
ATOM     18  F   UNL     1       1.090   9.226  23.333  0.00  0.00    +0.000 F 
ATOM     19  F   UNL     1      -0.693  10.458  23.292  0.00  0.00    +0.000 F 
ATOM     20  F   UNL     1      -0.789   8.380  22.652  0.00  0.00    +0.000 F 
ENDBRANCH  14  17
ENDBRANCH   5   7
BRANCH   1  21
ATOM     21  C   UNL     1       6.048   5.111  17.229  0.00  0.00    +0.000 C 
ATOM     22  C   UNL     1       6.496   6.556  16.982  0.00  0.00    +0.000 C 
ATOM     23  F   UNL     1       7.180   4.503  17.734  0.00  0.00    +0.000 F 
BRANCH  21  24
ATOM     24  C   UNL     1       5.717   4.429  15.878  0.00  0.00    +0.000 C 
ATOM     25  F   UNL     1       5.633   3.076  16.060  0.00  0.00    +0.000 F 
BRANCH  24  31
ATOM     26  C   UNL     1       5.573   3.518  12.879  0.00  0.00    +0.000 C 
ATOM     27  N   UNL     1       6.573   4.365  13.471  0.00  0.00    +0.000 N 
ATOM     28  C   UNL     1       7.627   4.925  12.816  0.00  0.00    +0.000 A 
ATOM     29  N   UNL     1       8.321   5.661  13.650  0.00  0.00    +0.000 NA
ATOM     30  N   UNL     1       7.707   5.587  14.874  0.00  0.00    +0.000 NA
ATOM     31  C   UNL     1       6.661   4.786  14.773  0.00  0.00    +0.000 A 
ENDBRANCH  24  31
ENDBRANCH  21  24
ENDBRANCH   1  21
TORSDOF 5
ENDMDL
MODEL 4
REMARK VINA RESULT:      -9.1      1.722      2.593
REMARK  Name = 
REMARK  7 active torsions:
REMARK  status: ('A' for Active; 'I' for Inactive)
REMARK    1  A    between atoms: C_1  and  N_2
REMARK    2  A    between atoms: C_6  and  C_7
REMARK    3  A    between atoms: C_7  and  C_9
REMARK    4  A    between atoms: C_9  and  C_10
REMARK    5  A    between atoms: C_9  and  C_12
REMARK    6  A    between atoms: C_16  and  N_17
REMARK    7  A    between atoms: C_24  and  C_25
REMARK                            x       y       z     vdW  Elec       q    Type
REMARK                         _______ _______ _______ _____ _____    ______ ____
ROOT
ATOM      1  C   UNL     1       4.558   5.405  17.299  0.00  0.00    +0.000 A 
ATOM      2  C   UNL     1       4.438   4.269  18.101  0.00  0.00    +0.000 A 
ATOM      3  C   UNL     1       3.568   4.270  19.201  0.00  0.00    +0.000 A 
ATOM      4  C   UNL     1       2.815   5.407  19.526  0.00  0.00    +0.000 A 
ATOM      5  C   UNL     1       2.943   6.567  18.768  0.00  0.00    +0.000 A 
ATOM      6  C   UNL     1       3.830   6.542  17.675  0.00  0.00    +0.000 A 
ENDROOT
BRANCH   5   7
ATOM      7  N   UNL     1       2.204   7.753  19.018  0.00  0.00    +0.000 N 
ATOM      8  C   UNL     1       1.559   7.934  20.302  0.00  0.00    +0.000 C 
ATOM      9  C   UNL     1       0.989   9.301  20.234  0.00  0.00    +0.000 A 
ATOM     10  C   UNL     1       1.258   9.862  18.989  0.00  0.00    +0.000 A 
ATOM     11  C   UNL     1       0.846  11.143  18.678  0.00  0.00    +0.000 A 
ATOM     12  C   UNL     1       0.147  11.859  19.661  0.00  0.00    +0.000 A 
ATOM     13  C   UNL     1      -0.121  11.289  20.923  0.00  0.00    +0.000 A 
ATOM     14  C   UNL     1       0.304   9.989  21.233  0.00  0.00    +0.000 A 
ATOM     15  C   UNL     1       2.036   8.877  18.196  0.00  0.00    +0.000 C 
ATOM     16  O   UNL     1       2.423   9.095  17.059  0.00  0.00    +0.000 OA
BRANCH  14  17
ATOM     17  C   UNL     1       0.042   9.382  22.591  0.00  0.00    +0.000 C 
ATOM     18  F   UNL     1      -0.588  10.223  23.456  0.00  0.00    +0.000 F 
ATOM     19  F   UNL     1      -0.744   8.275  22.519  0.00  0.00    +0.000 F 
ATOM     20  F   UNL     1       1.187   8.996  23.217  0.00  0.00    +0.000 F 
ENDBRANCH  14  17
ENDBRANCH   5   7
BRANCH   1  21
ATOM     21  C   UNL     1       5.381   5.489  16.008  0.00  0.00    +0.000 C 
ATOM     22  C   UNL     1       4.803   4.599  14.902  0.00  0.00    +0.000 C 
ATOM     23  F   UNL     1       5.304   6.760  15.475  0.00  0.00    +0.000 F 
BRANCH  21  24
ATOM     24  C   UNL     1       6.881   5.160  16.212  0.00  0.00    +0.000 C 
ATOM     25  F   UNL     1       7.114   3.861  15.853  0.00  0.00    +0.000 F 
BRANCH  24  31
ATOM     26  C   UNL     1       7.570   7.969  17.427  0.00  0.00    +0.000 C 
ATOM     27  N   UNL     1       7.682   6.697  18.090  0.00  0.00    +0.000 N 
ATOM     28  C   UNL     1       8.100   6.505  19.371  0.00  0.00    +0.000 A 
ATOM     29  N   UNL     1       8.051   5.228  19.661  0.00  0.00    +0.000 NA
ATOM     30  N   UNL     1       7.587   4.570  18.550  0.00  0.00    +0.000 NA
ATOM     31  C   UNL     1       7.383   5.456  17.590  0.00  0.00    +0.000 A 
ENDBRANCH  24  31
ENDBRANCH  21  24
ENDBRANCH   1  21
TORSDOF 5
ENDMDL
MODEL 5
REMARK VINA RESULT:      -9.1      2.672      3.685
REMARK  Name = 
REMARK  7 active torsions:
REMARK  status: ('A' for Active; 'I' for Inactive)
REMARK    1  A    between atoms: C_1  and  N_2
REMARK    2  A    between atoms: C_6  and  C_7
REMARK    3  A    between atoms: C_7  and  C_9
REMARK    4  A    between atoms: C_9  and  C_10
REMARK    5  A    between atoms: C_9  and  C_12
REMARK    6  A    between atoms: C_16  and  N_17
REMARK    7  A    between atoms: C_24  and  C_25
REMARK                            x       y       z     vdW  Elec       q    Type
REMARK                         _______ _______ _______ _____ _____    ______ ____
ROOT
ATOM      1  C   UNL     1       4.669   4.781  16.619  0.00  0.00    +0.000 A 
ATOM      2  C   UNL     1       4.415   3.425  16.834  0.00  0.00    +0.000 A 
ATOM      3  C   UNL     1       3.521   3.025  17.836  0.00  0.00    +0.000 A 
ATOM      4  C   UNL     1       2.875   3.968  18.649  0.00  0.00    +0.000 A 
ATOM      5  C   UNL     1       3.138   5.325  18.485  0.00  0.00    +0.000 A 
ATOM      6  C   UNL     1       4.047   5.699  17.477  0.00  0.00    +0.000 A 
ENDROOT
BRANCH   5   7
ATOM      7  N   UNL     1       2.515   6.343  19.251  0.00  0.00    +0.000 N 
ATOM      8  C   UNL     1       2.278   7.641  18.653  0.00  0.00    +0.000 C 
ATOM      9  C   UNL     1       1.531   8.391  19.692  0.00  0.00    +0.000 A 
ATOM     10  C   UNL     1       1.374   7.595  20.824  0.00  0.00    +0.000 A 
ATOM     11  C   UNL     1       0.695   8.059  21.934  0.00  0.00    +0.000 A 
ATOM     12  C   UNL     1       0.170   9.358  21.880  0.00  0.00    +0.000 A 
ATOM     13  C   UNL     1       0.328  10.161  20.731  0.00  0.00    +0.000 A 
ATOM     14  C   UNL     1       1.016   9.682  19.606  0.00  0.00    +0.000 A 
ATOM     15  C   UNL     1       2.003   6.278  20.555  0.00  0.00    +0.000 C 
ATOM     16  O   UNL     1       2.014   5.368  21.369  0.00  0.00    +0.000 OA
BRANCH  14  17
ATOM     17  C   UNL     1       1.168  10.525  18.363  0.00  0.00    +0.000 C 
ATOM     18  F   UNL     1       0.672  11.787  18.491  0.00  0.00    +0.000 F 
ATOM     19  F   UNL     1       2.469  10.680  17.999  0.00  0.00    +0.000 F 
ATOM     20  F   UNL     1       0.533   9.986  17.288  0.00  0.00    +0.000 F 
ENDBRANCH  14  17
ENDBRANCH   5   7
BRANCH   1  21
ATOM     21  C   UNL     1       5.530   5.347  15.484  0.00  0.00    +0.000 C 
ATOM     22  C   UNL     1       5.239   4.658  14.146  0.00  0.00    +0.000 C 
ATOM     23  F   UNL     1       5.201   6.666  15.248  0.00  0.00    +0.000 F 
BRANCH  21  24
ATOM     24  C   UNL     1       7.051   5.292  15.779  0.00  0.00    +0.000 C 
ATOM     25  F   UNL     1       7.572   4.138  15.263  0.00  0.00    +0.000 F 
BRANCH  24  31
ATOM     26  C   UNL     1       7.392   7.981  17.358  0.00  0.00    +0.000 C 
ATOM     27  N   UNL     1       7.540   6.652  17.886  0.00  0.00    +0.000 N 
ATOM     28  C   UNL     1       7.847   6.342  19.176  0.00  0.00    +0.000 A 
ATOM     29  N   UNL     1       7.874   5.039  19.318  0.00  0.00    +0.000 NA
ATOM     30  N   UNL     1       7.573   4.484  18.100  0.00  0.00    +0.000 NA
ATOM     31  C   UNL     1       7.392   5.460  17.227  0.00  0.00    +0.000 A 
ENDBRANCH  24  31
ENDBRANCH  21  24
ENDBRANCH   1  21
TORSDOF 5
ENDMDL
MODEL 6
REMARK VINA RESULT:      -8.8      0.783      1.250
REMARK  Name = 
REMARK  7 active torsions:
REMARK  status: ('A' for Active; 'I' for Inactive)
REMARK    1  A    between atoms: C_1  and  N_2
REMARK    2  A    between atoms: C_6  and  C_7
REMARK    3  A    between atoms: C_7  and  C_9
REMARK    4  A    between atoms: C_9  and  C_10
REMARK    5  A    between atoms: C_9  and  C_12
REMARK    6  A    between atoms: C_16  and  N_17
REMARK    7  A    between atoms: C_24  and  C_25
REMARK                            x       y       z     vdW  Elec       q    Type
REMARK                         _______ _______ _______ _____ _____    ______ ____
ROOT
ATOM      1  C   UNL     1       5.140   5.150  18.945  0.00  0.00    +0.000 A 
ATOM      2  C   UNL     1       4.624   3.930  19.387  0.00  0.00    +0.000 A 
ATOM      3  C   UNL     1       3.305   3.850  19.856  0.00  0.00    +0.000 A 
ATOM      4  C   UNL     1       2.484   4.986  19.905  0.00  0.00    +0.000 A 
ATOM      5  C   UNL     1       2.982   6.223  19.508  0.00  0.00    +0.000 A 
ATOM      6  C   UNL     1       4.313   6.277  19.050  0.00  0.00    +0.000 A 
ENDROOT
BRANCH   5   7
ATOM      7  N   UNL     1       2.214   7.415  19.508  0.00  0.00    +0.000 N 
ATOM      8  C   UNL     1       1.491   7.797  20.704  0.00  0.00    +0.000 C 
ATOM      9  C   UNL     1       0.907   9.119  20.370  0.00  0.00    +0.000 A 
ATOM     10  C   UNL     1       1.241   9.465  19.064  0.00  0.00    +0.000 A 
ATOM     11  C   UNL     1       0.830  10.664  18.516  0.00  0.00    +0.000 A 
ATOM     12  C   UNL     1       0.064  11.520  19.320  0.00  0.00    +0.000 A 
ATOM     13  C   UNL     1      -0.271  11.167  20.644  0.00  0.00    +0.000 A 
ATOM     14  C   UNL     1       0.153   9.950  21.196  0.00  0.00    +0.000 A 
ATOM     15  C   UNL     1       2.079   8.378  18.498  0.00  0.00    +0.000 C 
ATOM     16  O   UNL     1       2.530   8.409  17.364  0.00  0.00    +0.000 OA
BRANCH  14  17
ATOM     17  C   UNL     1      -0.180   9.578  22.621  0.00  0.00    +0.000 C 
ATOM     18  F   UNL     1      -0.895  10.527  23.284  0.00  0.00    +0.000 F 
ATOM     19  F   UNL     1      -0.923   8.441  22.698  0.00  0.00    +0.000 F 
ATOM     20  F   UNL     1       0.931   9.358  23.374  0.00  0.00    +0.000 F 
ENDBRANCH  14  17
ENDBRANCH   5   7
BRANCH   1  21
ATOM     21  C   UNL     1       6.518   5.343  18.304  0.00  0.00    +0.000 C 
ATOM     22  C   UNL     1       7.537   5.915  19.296  0.00  0.00    +0.000 C 
ATOM     23  F   UNL     1       7.058   4.121  17.955  0.00  0.00    +0.000 F 
BRANCH  21  24
ATOM     24  C   UNL     1       6.486   6.220  17.027  0.00  0.00    +0.000 C 
ATOM     25  F   UNL     1       5.374   7.015  17.050  0.00  0.00    +0.000 F 
BRANCH  24  31
ATOM     26  C   UNL     1       4.385   4.206  15.855  0.00  0.00    +0.000 C 
ATOM     27  N   UNL     1       5.651   4.560  15.272  0.00  0.00    +0.000 N 
ATOM     28  C   UNL     1       6.145   4.079  14.098  0.00  0.00    +0.000 A 
ATOM     29  N   UNL     1       7.308   4.633  13.853  0.00  0.00    +0.000 NA
ATOM     30  N   UNL     1       7.579   5.497  14.883  0.00  0.00    +0.000 NA
ATOM     31  C   UNL     1       6.587   5.438  15.755  0.00  0.00    +0.000 A 
ENDBRANCH  24  31
ENDBRANCH  21  24
ENDBRANCH   1  21
TORSDOF 5
ENDMDL
MODEL 7
REMARK VINA RESULT:      -8.5      2.636      3.621
REMARK  Name = 
REMARK  7 active torsions:
REMARK  status: ('A' for Active; 'I' for Inactive)
REMARK    1  A    between atoms: C_1  and  N_2
REMARK    2  A    between atoms: C_6  and  C_7
REMARK    3  A    between atoms: C_7  and  C_9
REMARK    4  A    between atoms: C_9  and  C_10
REMARK    5  A    between atoms: C_9  and  C_12
REMARK    6  A    between atoms: C_16  and  N_17
REMARK    7  A    between atoms: C_24  and  C_25
REMARK                            x       y       z     vdW  Elec       q    Type
REMARK                         _______ _______ _______ _____ _____    ______ ____
ROOT
ATOM      1  C   UNL     1       4.439   4.554  16.776  0.00  0.00    +0.000 A 
ATOM      2  C   UNL     1       3.735   3.354  16.659  0.00  0.00    +0.000 A 
ATOM      3  C   UNL     1       2.536   3.168  17.360  0.00  0.00    +0.000 A 
ATOM      4  C   UNL     1       2.026   4.169  18.199  0.00  0.00    +0.000 A 
ATOM      5  C   UNL     1       2.725   5.360  18.366  0.00  0.00    +0.000 A 
ATOM      6  C   UNL     1       3.931   5.517  17.657  0.00  0.00    +0.000 A 
ENDROOT
BRANCH   5   7
ATOM      7  N   UNL     1       2.270   6.430  19.180  0.00  0.00    +0.000 N 
ATOM      8  C   UNL     1       2.049   7.732  18.588  0.00  0.00    +0.000 C 
ATOM      9  C   UNL     1       1.487   8.546  19.693  0.00  0.00    +0.000 A 
ATOM     10  C   UNL     1       1.417   7.778  20.852  0.00  0.00    +0.000 A 
ATOM     11  C   UNL     1       0.911   8.303  22.026  0.00  0.00    +0.000 A 
ATOM     12  C   UNL     1       0.472   9.634  22.009  0.00  0.00    +0.000 A 
ATOM     13  C   UNL     1       0.542  10.408  20.831  0.00  0.00    +0.000 A 
ATOM     14  C   UNL     1       1.053   9.868  19.642  0.00  0.00    +0.000 A 
ATOM     15  C   UNL     1       1.918   6.418  20.538  0.00  0.00    +0.000 C 
ATOM     16  O   UNL     1       1.968   5.520  21.364  0.00  0.00    +0.000 OA
BRANCH  14  17
ATOM     17  C   UNL     1       1.108  10.683  18.372  0.00  0.00    +0.000 C 
ATOM     18  F   UNL     1       2.333  10.694  17.779  0.00  0.00    +0.000 F 
ATOM     19  F   UNL     1       0.248  10.222  17.425  0.00  0.00    +0.000 F 
ATOM     20  F   UNL     1       0.784  11.988  18.577  0.00  0.00    +0.000 F 
ENDBRANCH  14  17
ENDBRANCH   5   7
BRANCH   1  21
ATOM     21  C   UNL     1       5.693   4.921  15.974  0.00  0.00    +0.000 C 
ATOM     22  C   UNL     1       5.845   4.053  14.720  0.00  0.00    +0.000 C 
ATOM     23  F   UNL     1       5.579   6.201  15.470  0.00  0.00    +0.000 F 
BRANCH  21  24
ATOM     24  C   UNL     1       6.996   4.864  16.810  0.00  0.00    +0.000 C 
ATOM     25  F   UNL     1       6.841   3.971  17.834  0.00  0.00    +0.000 F 
BRANCH  24  31
ATOM     26  C   UNL     1       7.881   5.626  19.722  0.00  0.00    +0.000 C 
ATOM     27  N   UNL     1       7.835   6.502  18.582  0.00  0.00    +0.000 N 
ATOM     28  C   UNL     1       8.181   7.819  18.581  0.00  0.00    +0.000 A 
ATOM     29  N   UNL     1       8.047   8.306  17.371  0.00  0.00    +0.000 NA
ATOM     30  N   UNL     1       7.610   7.288  16.562  0.00  0.00    +0.000 NA
ATOM     31  C   UNL     1       7.460   6.200  17.299  0.00  0.00    +0.000 A 
ENDBRANCH  24  31
ENDBRANCH  21  24
ENDBRANCH   1  21
TORSDOF 5
ENDMDL
MODEL 8
REMARK VINA RESULT:      -8.4      2.370      2.986
REMARK  Name = 
REMARK  7 active torsions:
REMARK  status: ('A' for Active; 'I' for Inactive)
REMARK    1  A    between atoms: C_1  and  N_2
REMARK    2  A    between atoms: C_6  and  C_7
REMARK    3  A    between atoms: C_7  and  C_9
REMARK    4  A    between atoms: C_9  and  C_10
REMARK    5  A    between atoms: C_9  and  C_12
REMARK    6  A    between atoms: C_16  and  N_17
REMARK    7  A    between atoms: C_24  and  C_25
REMARK                            x       y       z     vdW  Elec       q    Type
REMARK                         _______ _______ _______ _____ _____    ______ ____
ROOT
ATOM      1  C   UNL     1       4.435   5.163  17.021  0.00  0.00    +0.000 A 
ATOM      2  C   UNL     1       3.805   3.927  16.867  0.00  0.00    +0.000 A 
ATOM      3  C   UNL     1       2.603   3.659  17.537  0.00  0.00    +0.000 A 
ATOM      4  C   UNL     1       2.017   4.613  18.381  0.00  0.00    +0.000 A 
ATOM      5  C   UNL     1       2.641   5.840  18.585  0.00  0.00    +0.000 A 
ATOM      6  C   UNL     1       3.852   6.080  17.908  0.00  0.00    +0.000 A 
ENDROOT
BRANCH   5   7
ATOM      7  N   UNL     1       2.106   6.866  19.407  0.00  0.00    +0.000 N 
ATOM      8  C   UNL     1       1.909   8.190  18.856  0.00  0.00    +0.000 C 
ATOM      9  C   UNL     1       1.250   8.946  19.948  0.00  0.00    +0.000 A 
ATOM     10  C   UNL     1       1.104   8.127  21.064  0.00  0.00    +0.000 A 
ATOM     11  C   UNL     1       0.500   8.592  22.216  0.00  0.00    +0.000 A 
ATOM     12  C   UNL     1       0.041   9.917  22.223  0.00  0.00    +0.000 A 
ATOM     13  C   UNL     1       0.188  10.743  21.089  0.00  0.00    +0.000 A 
ATOM     14  C   UNL     1       0.798  10.263  19.921  0.00  0.00    +0.000 A 
ATOM     15  C   UNL     1       1.652   6.788  20.731  0.00  0.00    +0.000 C 
ATOM     16  O   UNL     1       1.652   5.855  21.519  0.00  0.00    +0.000 OA
BRANCH  14  17
ATOM     17  C   UNL     1       0.937  11.134  18.695  0.00  0.00    +0.000 C 
ATOM     18  F   UNL     1       2.216  11.245  18.242  0.00  0.00    +0.000 F 
ATOM     19  F   UNL     1       0.217  10.663  17.642  0.00  0.00    +0.000 F 
ATOM     20  F   UNL     1       0.509  12.407  18.911  0.00  0.00    +0.000 F 
ENDBRANCH  14  17
ENDBRANCH   5   7
BRANCH   1  21
ATOM     21  C   UNL     1       5.682   5.618  16.256  0.00  0.00    +0.000 C 
ATOM     22  C   UNL     1       5.347   6.656  15.180  0.00  0.00    +0.000 C 
ATOM     23  F   UNL     1       6.541   6.293  17.100  0.00  0.00    +0.000 F 
BRANCH  21  24
ATOM     24  C   UNL     1       6.476   4.447  15.623  0.00  0.00    +0.000 C 
ATOM     25  F   UNL     1       7.415   4.002  16.511  0.00  0.00    +0.000 F 
BRANCH  24  31
ATOM     26  C   UNL     1       5.573   3.395  12.809  0.00  0.00    +0.000 C 
ATOM     27  N   UNL     1       6.663   4.293  13.079  0.00  0.00    +0.000 N 
ATOM     28  C   UNL     1       7.484   4.847  12.144  0.00  0.00    +0.000 A 
ATOM     29  N   UNL     1       8.347   5.637  12.733  0.00  0.00    +0.000 NA
ATOM     30  N   UNL     1       8.085   5.606  14.079  0.00  0.00    +0.000 NA
ATOM     31  C   UNL     1       7.079   4.776  14.293  0.00  0.00    +0.000 A 
ENDBRANCH  24  31
ENDBRANCH  21  24
ENDBRANCH   1  21
TORSDOF 5
ENDMDL
MODEL 9
REMARK VINA RESULT:      -8.4      3.713      8.521
REMARK  Name = 
REMARK  7 active torsions:
REMARK  status: ('A' for Active; 'I' for Inactive)
REMARK    1  A    between atoms: C_1  and  N_2
REMARK    2  A    between atoms: C_6  and  C_7
REMARK    3  A    between atoms: C_7  and  C_9
REMARK    4  A    between atoms: C_9  and  C_10
REMARK    5  A    between atoms: C_9  and  C_12
REMARK    6  A    between atoms: C_16  and  N_17
REMARK    7  A    between atoms: C_24  and  C_25
REMARK                            x       y       z     vdW  Elec       q    Type
REMARK                         _______ _______ _______ _____ _____    ______ ____
ROOT
ATOM      1  C   UNL     1      -0.103  10.911  20.546  0.00  0.00    +0.000 A 
ATOM      2  C   UNL     1      -0.278  10.948  21.930  0.00  0.00    +0.000 A 
ATOM      3  C   UNL     1       0.213   9.907  22.731  0.00  0.00    +0.000 A 
ATOM      4  C   UNL     1       0.875   8.808  22.165  0.00  0.00    +0.000 A 
ATOM      5  C   UNL     1       1.030   8.725  20.785  0.00  0.00    +0.000 A 
ATOM      6  C   UNL     1       0.519   9.779  20.003  0.00  0.00    +0.000 A 
ENDROOT
BRANCH   5   7
ATOM      7  N   UNL     1       1.702   7.658  20.133  0.00  0.00    +0.000 N 
ATOM      8  C   UNL     1       1.660   6.331  20.710  0.00  0.00    +0.000 C 
ATOM      9  C   UNL     1       2.364   5.480  19.721  0.00  0.00    +0.000 A 
ATOM     10  C   UNL     1       2.810   6.264  18.660  0.00  0.00    +0.000 A 
ATOM     11  C   UNL     1       3.485   5.703  17.593  0.00  0.00    +0.000 A 
ATOM     12  C   UNL     1       3.706   4.319  17.616  0.00  0.00    +0.000 A 
ATOM     13  C   UNL     1       3.250   3.527  18.691  0.00  0.00    +0.000 A 
ATOM     14  C   UNL     1       2.561   4.102  19.769  0.00  0.00    +0.000 A 
ATOM     15  C   UNL     1       2.394   7.666  18.913  0.00  0.00    +0.000 C 
ATOM     16  O   UNL     1       2.640   8.582  18.144  0.00  0.00    +0.000 OA
BRANCH  14  17
ATOM     17  C   UNL     1       2.049   3.258  20.911  0.00  0.00    +0.000 C 
ATOM     18  F   UNL     1       2.439   3.699  22.139  0.00  0.00    +0.000 F 
ATOM     19  F   UNL     1       0.690   3.214  20.953  0.00  0.00    +0.000 F 
ATOM     20  F   UNL     1       2.469   1.966  20.831  0.00  0.00    +0.000 F 
ENDBRANCH  14  17
ENDBRANCH   5   7
BRANCH   1  21
ATOM     21  C   UNL     1      -0.488  12.037  19.580  0.00  0.00    +0.000 C 
ATOM     22  C   UNL     1      -1.151  11.498  18.307  0.00  0.00    +0.000 C 
ATOM     23  F   UNL     1      -1.466  12.834  20.141  0.00  0.00    +0.000 F 
BRANCH  21  24
ATOM     24  C   UNL     1       0.700  12.955  19.200  0.00  0.00    +0.000 C 
ATOM     25  F   UNL     1       1.713  12.197  18.682  0.00  0.00    +0.000 F 
BRANCH  24  31
ATOM     26  C   UNL     1      -0.212  15.886  19.850  0.00  0.00    +0.000 C 
ATOM     27  N   UNL     1       0.757  15.109  20.574  0.00  0.00    +0.000 N 
ATOM     28  C   UNL     1       1.438  15.521  21.679  0.00  0.00    +0.000 A 
ATOM     29  N   UNL     1       2.217  14.554  22.100  0.00  0.00    +0.000 NA
ATOM     30  N   UNL     1       2.040  13.486  21.258  0.00  0.00    +0.000 NA
ATOM     31  C   UNL     1       1.173  13.827  20.320  0.00  0.00    +0.000 A 
ENDBRANCH  24  31
ENDBRANCH  21  24
ENDBRANCH   1  21
TORSDOF 5
ENDMDL
