MODEL 1
REMARK VINA RESULT:      -7.9      0.000      0.000
REMARK  Name = 
REMARK  8 active torsions:
REMARK  status: ('A' for Active; 'I' for Inactive)
REMARK    1  A    between atoms: C_1  and  C_2
REMARK    2  A    between atoms: C_2  and  C_3
REMARK    3  A    between atoms: C_2  and  C_10
REMARK    4  A    between atoms: C_3  and  C_4
REMARK    5  A    between atoms: N_8  and  C_9
REMARK    6  A    between atoms: C_14  and  N_15
REMARK    7  A    between atoms: C_16  and  C_18
REMARK    8  A    between atoms: C_22  and  C_23
REMARK                            x       y       z     vdW  Elec       q    Type
REMARK                         _______ _______ _______ _____ _____    ______ ____
ROOT
ATOM      1  C   UNL     1       0.074  10.168  19.969  0.00  0.00    +0.000 A 
ATOM      2  C   UNL     1      -0.408  10.286  21.283  0.00  0.00    +0.000 A 
ATOM      3  C   UNL     1       0.050   9.441  22.292  0.00  0.00    +0.000 A 
ATOM      4  C   UNL     1       0.974   8.445  22.003  0.00  0.00    +0.000 A 
ATOM      5  C   UNL     1       1.469   8.283  20.709  0.00  0.00    +0.000 A 
ATOM      6  C   UNL     1       1.042   9.172  19.707  0.00  0.00    +0.000 A 
ENDROOT
BRANCH   5   7
ATOM      7  N   UNL     1       2.373   7.256  20.366  0.00  0.00    +0.000 N 
ATOM      8  C   UNL     1       2.089   5.899  20.329  0.00  0.00    +0.000 C 
ATOM      9  O   UNL     1       1.007   5.370  20.568  0.00  0.00    +0.000 OA
ATOM     10  H   UNL     1       3.296   7.516  20.027  0.00  0.00    +0.000 HD
BRANCH   8  11
ATOM     11  C   UNL     1       3.224   5.027  19.907  0.00  0.00    +0.000 A 
ATOM     12  C   UNL     1       3.048   3.662  19.920  0.00  0.00    +0.000 A 
ATOM     13  C   UNL     1       4.124   2.935  19.492  0.00  0.00    +0.000 A 
ATOM     14  N   UNL     1       5.275   3.500  19.088  0.00  0.00    +0.000 NA
ATOM     15  C   UNL     1       5.365   4.849  19.110  0.00  0.00    +0.000 A 
ATOM     16  N   UNL     1       4.360   5.649  19.511  0.00  0.00    +0.000 NA
BRANCH  15  17
ATOM     17  C   UNL     1       6.639   5.489  18.626  0.00  0.00    +0.000 C 
ATOM     18  C   UNL     1       7.613   4.695  17.784  0.00  0.00    +0.000 C 
ATOM     19  C   UNL     1       6.832   5.816  17.162  0.00  0.00    +0.000 C 
ENDBRANCH  15  17
ENDBRANCH   8  11
ENDBRANCH   5   7
BRANCH   1  21
ATOM     20  C   UNL     1       0.458  12.324  18.615  0.00  0.00    +0.000 C 
ATOM     21  C   UNL     1      -0.417  11.072  18.831  0.00  0.00    +0.000 C 
BRANCH  21  22
ATOM     22  C   UNL     1      -1.898  11.467  19.059  0.00  0.00    +0.000 C 
BRANCH  22  23
ATOM     23  C   UNL     1      -2.738  11.317  17.834  0.00  0.00    +0.000 A 
ATOM     24  N   UNL     1      -2.326  10.924  16.646  0.00  0.00    +0.000 NA
ATOM     25  N   UNL     1      -3.395  10.966  15.782  0.00  0.00    +0.000 NA
ATOM     26  C   UNL     1      -4.440  11.373  16.464  0.00  0.00    +0.000 A 
ATOM     27  N   UNL     1      -4.081  11.586  17.757  0.00  0.00    +0.000 N 
ATOM     28  C   UNL     1      -4.954  12.010  18.820  0.00  0.00    +0.000 C 
ENDBRANCH  22  23
ENDBRANCH  21  22
ENDBRANCH   1  21
TORSDOF 6
ENDMDL
MODEL 2
REMARK VINA RESULT:      -7.8      0.729      1.279
REMARK  Name = 
REMARK  8 active torsions:
REMARK  status: ('A' for Active; 'I' for Inactive)
REMARK    1  A    between atoms: C_1  and  C_2
REMARK    2  A    between atoms: C_2  and  C_3
REMARK    3  A    between atoms: C_2  and  C_10
REMARK    4  A    between atoms: C_3  and  C_4
REMARK    5  A    between atoms: N_8  and  C_9
REMARK    6  A    between atoms: C_14  and  N_15
REMARK    7  A    between atoms: C_16  and  C_18
REMARK    8  A    between atoms: C_22  and  C_23
REMARK                            x       y       z     vdW  Elec       q    Type
REMARK                         _______ _______ _______ _____ _____    ______ ____
ROOT
ATOM      1  C   UNL     1      -0.104  10.018  19.639  0.00  0.00    +0.000 A 
ATOM      2  C   UNL     1      -0.379  10.372  20.969  0.00  0.00    +0.000 A 
ATOM      3  C   UNL     1       0.282   9.752  22.027  0.00  0.00    +0.000 A 
ATOM      4  C   UNL     1       1.210   8.748  21.779  0.00  0.00    +0.000 A 
ATOM      5  C   UNL     1       1.505   8.354  20.473  0.00  0.00    +0.000 A 
ATOM      6  C   UNL     1       0.871   9.021  19.409  0.00  0.00    +0.000 A 
ENDROOT
BRANCH   5   7
ATOM      7  N   UNL     1       2.405   7.310  20.181  0.00  0.00    +0.000 N 
ATOM      8  C   UNL     1       2.144   5.953  20.297  0.00  0.00    +0.000 C 
ATOM      9  O   UNL     1       1.087   5.438  20.653  0.00  0.00    +0.000 OA
ATOM     10  H   UNL     1       3.302   7.544  19.763  0.00  0.00    +0.000 HD
BRANCH   8  11
ATOM     11  C   UNL     1       3.268   5.056  19.898  0.00  0.00    +0.000 A 
ATOM     12  C   UNL     1       3.062   3.694  19.906  0.00  0.00    +0.000 A 
ATOM     13  C   UNL     1       4.129   2.945  19.499  0.00  0.00    +0.000 A 
ATOM     14  N   UNL     1       5.301   3.484  19.119  0.00  0.00    +0.000 NA
ATOM     15  C   UNL     1       5.420   4.831  19.145  0.00  0.00    +0.000 A 
ATOM     16  N   UNL     1       4.425   5.653  19.526  0.00  0.00    +0.000 NA
BRANCH  15  17
ATOM     17  C   UNL     1       6.718   5.443  18.687  0.00  0.00    +0.000 C 
ATOM     18  C   UNL     1       7.627   4.678  17.751  0.00  0.00    +0.000 C 
ATOM     19  C   UNL     1       6.897   5.892  17.254  0.00  0.00    +0.000 C 
ENDBRANCH  15  17
ENDBRANCH   8  11
ENDBRANCH   5   7
BRANCH   1  21
ATOM     20  C   UNL     1      -1.149  12.161  18.667  0.00  0.00    +0.000 C 
ATOM     21  C   UNL     1      -0.821  10.669  18.450  0.00  0.00    +0.000 C 
BRANCH  21  22
ATOM     22  C   UNL     1      -2.101   9.872  18.093  0.00  0.00    +0.000 C 
BRANCH  22  23
ATOM     23  C   UNL     1      -3.267  10.748  17.776  0.00  0.00    +0.000 A 
ATOM     24  N   UNL     1      -4.086  11.307  18.645  0.00  0.00    +0.000 NA
ATOM     25  N   UNL     1      -5.052  11.994  17.949  0.00  0.00    +0.000 NA
ATOM     26  C   UNL     1      -4.797  11.850  16.669  0.00  0.00    +0.000 A 
ATOM     27  N   UNL     1      -3.678  11.095  16.513  0.00  0.00    +0.000 N 
ATOM     28  C   UNL     1      -3.062  10.741  15.262  0.00  0.00    +0.000 C 
ENDBRANCH  22  23
ENDBRANCH  21  22
ENDBRANCH   1  21
TORSDOF 6
ENDMDL
MODEL 3
REMARK VINA RESULT:      -7.6      2.522      8.874
REMARK  Name = 
REMARK  8 active torsions:
REMARK  status: ('A' for Active; 'I' for Inactive)
REMARK    1  A    between atoms: C_1  and  C_2
REMARK    2  A    between atoms: C_2  and  C_3
REMARK    3  A    between atoms: C_2  and  C_10
REMARK    4  A    between atoms: C_3  and  C_4
REMARK    5  A    between atoms: N_8  and  C_9
REMARK    6  A    between atoms: C_14  and  N_15
REMARK    7  A    between atoms: C_16  and  C_18
REMARK    8  A    between atoms: C_22  and  C_23
REMARK                            x       y       z     vdW  Elec       q    Type
REMARK                         _______ _______ _______ _____ _____    ______ ____
ROOT
ATOM      1  C   UNL     1       4.485   4.522  16.833  0.00  0.00    +0.000 A 
ATOM      2  C   UNL     1       3.883   3.268  17.021  0.00  0.00    +0.000 A 
ATOM      3  C   UNL     1       2.703   3.143  17.751  0.00  0.00    +0.000 A 
ATOM      4  C   UNL     1       2.117   4.262  18.330  0.00  0.00    +0.000 A 
ATOM      5  C   UNL     1       2.690   5.526  18.181  0.00  0.00    +0.000 A 
ATOM      6  C   UNL     1       3.852   5.651  17.400  0.00  0.00    +0.000 A 
ENDROOT
BRANCH   5   7
ATOM      7  N   UNL     1       2.152   6.678  18.790  0.00  0.00    +0.000 N 
ATOM      8  C   UNL     1       1.885   6.835  20.142  0.00  0.00    +0.000 C 
ATOM      9  O   UNL     1       2.088   6.011  21.030  0.00  0.00    +0.000 OA
ATOM     10  H   UNL     1       2.023   7.512  18.223  0.00  0.00    +0.000 HD
BRANCH   8  11
ATOM     11  C   UNL     1       1.339   8.170  20.528  0.00  0.00    +0.000 A 
ATOM     12  C   UNL     1       1.512   8.605  21.822  0.00  0.00    +0.000 A 
ATOM     13  C   UNL     1       1.010   9.849  22.087  0.00  0.00    +0.000 A 
ATOM     14  N   UNL     1       0.389  10.600  21.161  0.00  0.00    +0.000 NA
ATOM     15  C   UNL     1       0.259  10.095  19.913  0.00  0.00    +0.000 A 
ATOM     16  N   UNL     1       0.723   8.883  19.555  0.00  0.00    +0.000 NA
BRANCH  15  17
ATOM     17  C   UNL     1      -0.403  10.947  18.862  0.00  0.00    +0.000 C 
ATOM     18  C   UNL     1      -1.078  10.298  17.676  0.00  0.00    +0.000 C 
ATOM     19  C   UNL     1      -1.909  10.975  18.727  0.00  0.00    +0.000 C 
ENDBRANCH  15  17
ENDBRANCH   8  11
ENDBRANCH   5   7
BRANCH   1  21
ATOM     20  C   UNL     1       5.976   3.661  14.918  0.00  0.00    +0.000 C 
ATOM     21  C   UNL     1       5.791   4.696  16.047  0.00  0.00    +0.000 C 
BRANCH  21  22
ATOM     22  C   UNL     1       7.004   4.681  17.012  0.00  0.00    +0.000 C 
BRANCH  22  23
ATOM     23  C   UNL     1       7.448   6.048  17.414  0.00  0.00    +0.000 A 
ATOM     24  N   UNL     1       7.527   7.107  16.633  0.00  0.00    +0.000 NA
ATOM     25  N   UNL     1       8.024   8.154  17.373  0.00  0.00    +0.000 NA
ATOM     26  C   UNL     1       8.228   7.716  18.594  0.00  0.00    +0.000 A 
ATOM     27  N   UNL     1       7.863   6.409  18.671  0.00  0.00    +0.000 N 
ATOM     28  C   UNL     1       7.910   5.585  19.850  0.00  0.00    +0.000 C 
ENDBRANCH  22  23
ENDBRANCH  21  22
ENDBRANCH   1  21
TORSDOF 6
ENDMDL
MODEL 4
REMARK VINA RESULT:      -7.6      2.745      8.990
REMARK  Name = 
REMARK  8 active torsions:
REMARK  status: ('A' for Active; 'I' for Inactive)
REMARK    1  A    between atoms: C_1  and  C_2
REMARK    2  A    between atoms: C_2  and  C_3
REMARK    3  A    between atoms: C_2  and  C_10
REMARK    4  A    between atoms: C_3  and  C_4
REMARK    5  A    between atoms: N_8  and  C_9
REMARK    6  A    between atoms: C_14  and  N_15
REMARK    7  A    between atoms: C_16  and  C_18
REMARK    8  A    between atoms: C_22  and  C_23
REMARK                            x       y       z     vdW  Elec       q    Type
REMARK                         _______ _______ _______ _____ _____    ______ ____
ROOT
ATOM      1  C   UNL     1       4.477   4.969  16.783  0.00  0.00    +0.000 A 
ATOM      2  C   UNL     1       3.927   3.681  16.875  0.00  0.00    +0.000 A 
ATOM      3  C   UNL     1       2.859   3.418  17.730  0.00  0.00    +0.000 A 
ATOM      4  C   UNL     1       2.340   4.428  18.531  0.00  0.00    +0.000 A 
ATOM      5  C   UNL     1       2.866   5.719  18.483  0.00  0.00    +0.000 A 
ATOM      6  C   UNL     1       3.909   5.989  17.580  0.00  0.00    +0.000 A 
ENDROOT
BRANCH   5   7
ATOM      7  N   UNL     1       2.398   6.760  19.312  0.00  0.00    +0.000 N 
ATOM      8  C   UNL     1       1.885   7.974  18.882  0.00  0.00    +0.000 C 
ATOM      9  O   UNL     1       1.736   8.337  17.718  0.00  0.00    +0.000 OA
ATOM     10  H   UNL     1       2.339   6.594  20.313  0.00  0.00    +0.000 HD
BRANCH   8  11
ATOM     11  C   UNL     1       1.436   8.892  19.971  0.00  0.00    +0.000 A 
ATOM     12  C   UNL     1       1.411   8.420  21.264  0.00  0.00    +0.000 A 
ATOM     13  C   UNL     1       1.017   9.330  22.205  0.00  0.00    +0.000 A 
ATOM     14  N   UNL     1       0.674  10.594  21.902  0.00  0.00    +0.000 NA
ATOM     15  C   UNL     1       0.724  10.975  20.605  0.00  0.00    +0.000 A 
ATOM     16  N   UNL     1       1.102  10.153  19.609  0.00  0.00    +0.000 NA
BRANCH  15  17
ATOM     17  C   UNL     1       0.376  12.400  20.265  0.00  0.00    +0.000 C 
ATOM     18  C   UNL     1       0.272  12.830  18.820  0.00  0.00    +0.000 C 
ATOM     19  C   UNL     1      -0.968  12.745  19.662  0.00  0.00    +0.000 C 
ENDBRANCH  15  17
ENDBRANCH   8  11
ENDBRANCH   5   7
BRANCH   1  21
ATOM     20  C   UNL     1       5.441   4.861  14.398  0.00  0.00    +0.000 C 
ATOM     21  C   UNL     1       5.661   5.292  15.863  0.00  0.00    +0.000 C 
BRANCH  21  22
ATOM     22  C   UNL     1       6.965   4.675  16.428  0.00  0.00    +0.000 C 
BRANCH  22  23
ATOM     23  C   UNL     1       7.294   5.160  17.801  0.00  0.00    +0.000 A 
ATOM     24  N   UNL     1       7.340   4.431  18.899  0.00  0.00    +0.000 NA
ATOM     25  N   UNL     1       7.632   5.259  19.957  0.00  0.00    +0.000 NA
ATOM     26  C   UNL     1       7.770   6.475  19.481  0.00  0.00    +0.000 A 
ATOM     27  N   UNL     1       7.588   6.458  18.135  0.00  0.00    +0.000 N 
ATOM     28  C   UNL     1       7.687   7.590  17.252  0.00  0.00    +0.000 C 
ENDBRANCH  22  23
ENDBRANCH  21  22
ENDBRANCH   1  21
TORSDOF 6
ENDMDL
MODEL 5
REMARK VINA RESULT:      -7.5      1.498      1.694
REMARK  Name = 
REMARK  8 active torsions:
REMARK  status: ('A' for Active; 'I' for Inactive)
REMARK    1  A    between atoms: C_1  and  C_2
REMARK    2  A    between atoms: C_2  and  C_3
REMARK    3  A    between atoms: C_2  and  C_10
REMARK    4  A    between atoms: C_3  and  C_4
REMARK    5  A    between atoms: N_8  and  C_9
REMARK    6  A    between atoms: C_14  and  N_15
REMARK    7  A    between atoms: C_16  and  C_18
REMARK    8  A    between atoms: C_22  and  C_23
REMARK                            x       y       z     vdW  Elec       q    Type
REMARK                         _______ _______ _______ _____ _____    ______ ____
ROOT
ATOM      1  C   UNL     1      -0.287  10.288  19.926  0.00  0.00    +0.000 A 
ATOM      2  C   UNL     1      -0.383  10.633  21.283  0.00  0.00    +0.000 A 
ATOM      3  C   UNL     1       0.347   9.944  22.250  0.00  0.00    +0.000 A 
ATOM      4  C   UNL     1       1.163   8.881  21.883  0.00  0.00    +0.000 A 
ATOM      5  C   UNL     1       1.277   8.495  20.547  0.00  0.00    +0.000 A 
ATOM      6  C   UNL     1       0.578   9.228  19.573  0.00  0.00    +0.000 A 
ENDROOT
BRANCH   5   7
ATOM      7  N   UNL     1       2.059   7.394  20.140  0.00  0.00    +0.000 N 
ATOM      8  C   UNL     1       2.592   7.199  18.875  0.00  0.00    +0.000 C 
ATOM      9  O   UNL     1       2.491   7.953  17.911  0.00  0.00    +0.000 OA
ATOM     10  H   UNL     1       2.343   6.715  20.841  0.00  0.00    +0.000 HD
BRANCH   8  11
ATOM     11  C   UNL     1       3.405   5.956  18.717  0.00  0.00    +0.000 A 
ATOM     12  C   UNL     1       3.496   5.086  19.780  0.00  0.00    +0.000 A 
ATOM     13  C   UNL     1       4.233   3.960  19.545  0.00  0.00    +0.000 A 
ATOM     14  N   UNL     1       4.832   3.709  18.368  0.00  0.00    +0.000 NA
ATOM     15  C   UNL     1       4.695   4.619  17.377  0.00  0.00    +0.000 A 
ATOM     16  N   UNL     1       3.987   5.755  17.511  0.00  0.00    +0.000 NA
BRANCH  15  17
ATOM     17  C   UNL     1       5.335   4.327  16.045  0.00  0.00    +0.000 C 
ATOM     18  C   UNL     1       5.596   5.450  15.067  0.00  0.00    +0.000 C 
ATOM     19  C   UNL     1       6.749   4.776  15.752  0.00  0.00    +0.000 C 
ENDBRANCH  15  17
ENDBRANCH   8  11
ENDBRANCH   5   7
BRANCH   1  21
ATOM     20  C   UNL     1      -1.411  12.483  19.183  0.00  0.00    +0.000 C 
ATOM     21  C   UNL     1      -1.085  11.015  18.836  0.00  0.00    +0.000 C 
BRANCH  21  22
ATOM     22  C   UNL     1      -2.378  10.229  18.502  0.00  0.00    +0.000 C 
BRANCH  22  23
ATOM     23  C   UNL     1      -2.777  10.340  17.068  0.00  0.00    +0.000 A 
ATOM     24  N   UNL     1      -2.150   9.807  16.038  0.00  0.00    +0.000 NA
ATOM     25  N   UNL     1      -2.807  10.182  14.890  0.00  0.00    +0.000 NA
ATOM     26  C   UNL     1      -3.829  10.927  15.244  0.00  0.00    +0.000 A 
ATOM     27  N   UNL     1      -3.861  11.037  16.598  0.00  0.00    +0.000 N 
ATOM     28  C   UNL     1      -4.847  11.748  17.367  0.00  0.00    +0.000 C 
ENDBRANCH  22  23
ENDBRANCH  21  22
ENDBRANCH   1  21
TORSDOF 6
ENDMDL
MODEL 6
REMARK VINA RESULT:      -7.4      3.281      9.139
REMARK  Name = 
REMARK  8 active torsions:
REMARK  status: ('A' for Active; 'I' for Inactive)
REMARK    1  A    between atoms: C_1  and  C_2
REMARK    2  A    between atoms: C_2  and  C_3
REMARK    3  A    between atoms: C_2  and  C_10
REMARK    4  A    between atoms: C_3  and  C_4
REMARK    5  A    between atoms: N_8  and  C_9
REMARK    6  A    between atoms: C_14  and  N_15
REMARK    7  A    between atoms: C_16  and  C_18
REMARK    8  A    between atoms: C_22  and  C_23
REMARK                            x       y       z     vdW  Elec       q    Type
REMARK                         _______ _______ _______ _____ _____    ______ ____
ROOT
ATOM      1  C   UNL     1       4.343   5.257  17.453  0.00  0.00    +0.000 A 
ATOM      2  C   UNL     1       4.002   3.924  17.731  0.00  0.00    +0.000 A 
ATOM      3  C   UNL     1       3.058   3.616  18.710  0.00  0.00    +0.000 A 
ATOM      4  C   UNL     1       2.460   4.631  19.447  0.00  0.00    +0.000 A 
ATOM      5  C   UNL     1       2.780   5.968  19.213  0.00  0.00    +0.000 A 
ATOM      6  C   UNL     1       3.694   6.273  18.189  0.00  0.00    +0.000 A 
ENDROOT
BRANCH   5   7
ATOM      7  N   UNL     1       2.229   7.023  19.970  0.00  0.00    +0.000 N 
ATOM      8  C   UNL     1       1.660   8.180  19.460  0.00  0.00    +0.000 C 
ATOM      9  O   UNL     1       1.524   8.469  18.273  0.00  0.00    +0.000 OA
ATOM     10  H   UNL     1       2.152   6.909  20.977  0.00  0.00    +0.000 HD
BRANCH   8  11
ATOM     11  C   UNL     1       1.128   9.128  20.483  0.00  0.00    +0.000 A 
ATOM     12  C   UNL     1       0.851   8.651  21.744  0.00  0.00    +0.000 A 
ATOM     13  C   UNL     1       0.396   9.586  22.631  0.00  0.00    +0.000 A 
ATOM     14  N   UNL     1       0.225  10.880  22.306  0.00  0.00    +0.000 NA
ATOM     15  C   UNL     1       0.517  11.264  21.043  0.00  0.00    +0.000 A 
ATOM     16  N   UNL     1       0.974  10.418  20.101  0.00  0.00    +0.000 NA
BRANCH  15  17
ATOM     17  C   UNL     1       0.361  12.718  20.684  0.00  0.00    +0.000 C 
ATOM     18  C   UNL     1      -0.307  13.670  21.650  0.00  0.00    +0.000 C 
ATOM     19  C   UNL     1       1.168  13.781  21.396  0.00  0.00    +0.000 C 
ENDBRANCH  15  17
ENDBRANCH   8  11
ENDBRANCH   5   7
BRANCH   1  21
ATOM     20  C   UNL     1       5.026   6.901  15.593  0.00  0.00    +0.000 C 
ATOM     21  C   UNL     1       5.387   5.633  16.393  0.00  0.00    +0.000 C 
BRANCH  21  22
ATOM     22  C   UNL     1       5.641   4.436  15.442  0.00  0.00    +0.000 C 
BRANCH  22  23
ATOM     23  C   UNL     1       6.648   4.736  14.381  0.00  0.00    +0.000 A 
ATOM     24  N   UNL     1       7.700   5.520  14.500  0.00  0.00    +0.000 NA
ATOM     25  N   UNL     1       8.343   5.569  13.285  0.00  0.00    +0.000 NA
ATOM     26  C   UNL     1       7.675   4.804  12.453  0.00  0.00    +0.000 A 
ATOM     27  N   UNL     1       6.618   4.246  13.100  0.00  0.00    +0.000 N 
ATOM     28  C   UNL     1       5.669   3.326  12.534  0.00  0.00    +0.000 C 
ENDBRANCH  22  23
ENDBRANCH  21  22
ENDBRANCH   1  21
TORSDOF 6
ENDMDL
MODEL 7
REMARK VINA RESULT:      -7.4      3.339      9.272
REMARK  Name = 
REMARK  8 active torsions:
REMARK  status: ('A' for Active; 'I' for Inactive)
REMARK    1  A    between atoms: C_1  and  C_2
REMARK    2  A    between atoms: C_2  and  C_3
REMARK    3  A    between atoms: C_2  and  C_10
REMARK    4  A    between atoms: C_3  and  C_4
REMARK    5  A    between atoms: N_8  and  C_9
REMARK    6  A    between atoms: C_14  and  N_15
REMARK    7  A    between atoms: C_16  and  C_18
REMARK    8  A    between atoms: C_22  and  C_23
REMARK                            x       y       z     vdW  Elec       q    Type
REMARK                         _______ _______ _______ _____ _____    ______ ____
ROOT
ATOM      1  C   UNL     1       4.424   4.760  17.245  0.00  0.00    +0.000 A 
ATOM      2  C   UNL     1       3.575   3.643  17.225  0.00  0.00    +0.000 A 
ATOM      3  C   UNL     1       2.274   3.723  17.719  0.00  0.00    +0.000 A 
ATOM      4  C   UNL     1       1.807   4.912  18.267  0.00  0.00    +0.000 A 
ATOM      5  C   UNL     1       2.621   6.043  18.319  0.00  0.00    +0.000 A 
ATOM      6  C   UNL     1       3.914   5.969  17.772  0.00  0.00    +0.000 A 
ENDROOT
BRANCH   5   7
ATOM      7  N   UNL     1       2.201   7.254  18.908  0.00  0.00    +0.000 N 
ATOM      8  C   UNL     1       2.009   8.457  18.246  0.00  0.00    +0.000 C 
ATOM      9  O   UNL     1       2.154   8.664  17.044  0.00  0.00    +0.000 OA
ATOM     10  H   UNL     1       1.923   7.247  19.886  0.00  0.00    +0.000 HD
BRANCH   8  11
ATOM     11  C   UNL     1       1.535   9.582  19.105  0.00  0.00    +0.000 A 
ATOM     12  C   UNL     1       1.410  10.834  18.545  0.00  0.00    +0.000 A 
ATOM     13  C   UNL     1       0.942  11.802  19.388  0.00  0.00    +0.000 A 
ATOM     14  N   UNL     1       0.625  11.563  20.673  0.00  0.00    +0.000 NA
ATOM     15  C   UNL     1       0.781  10.305  21.144  0.00  0.00    +0.000 A 
ATOM     16  N   UNL     1       1.231   9.285  20.390  0.00  0.00    +0.000 NA
BRANCH  15  17
ATOM     17  C   UNL     1       0.395  10.024  22.572  0.00  0.00    +0.000 C 
ATOM     18  C   UNL     1      -0.943  10.490  23.101  0.00  0.00    +0.000 C 
ATOM     19  C   UNL     1      -0.693   9.024  22.896  0.00  0.00    +0.000 C 
ENDBRANCH  15  17
ENDBRANCH   8  11
ENDBRANCH   5   7
BRANCH   1  21
ATOM     20  C   UNL     1       6.512   6.095  16.545  0.00  0.00    +0.000 C 
ATOM     21  C   UNL     1       5.865   4.705  16.723  0.00  0.00    +0.000 C 
BRANCH  21  22
ATOM     22  C   UNL     1       5.928   3.896  15.403  0.00  0.00    +0.000 C 
BRANCH  22  23
ATOM     23  C   UNL     1       6.825   4.512  14.381  0.00  0.00    +0.000 A 
ATOM     24  N   UNL     1       7.796   5.373  14.609  0.00  0.00    +0.000 NA
ATOM     25  N   UNL     1       8.348   5.733  13.403  0.00  0.00    +0.000 NA
ATOM     26  C   UNL     1       7.710   5.074  12.463  0.00  0.00    +0.000 A 
ATOM     27  N   UNL     1       6.762   4.283  13.029  0.00  0.00    +0.000 N 
ATOM     28  C   UNL     1       5.878   3.389  12.332  0.00  0.00    +0.000 C 
ENDBRANCH  22  23
ENDBRANCH  21  22
ENDBRANCH   1  21
TORSDOF 6
ENDMDL
MODEL 8
REMARK VINA RESULT:      -7.4      3.099      9.050
REMARK  Name = 
REMARK  8 active torsions:
REMARK  status: ('A' for Active; 'I' for Inactive)
REMARK    1  A    between atoms: C_1  and  C_2
REMARK    2  A    between atoms: C_2  and  C_3
REMARK    3  A    between atoms: C_2  and  C_10
REMARK    4  A    between atoms: C_3  and  C_4
REMARK    5  A    between atoms: N_8  and  C_9
REMARK    6  A    between atoms: C_14  and  N_15
REMARK    7  A    between atoms: C_16  and  C_18
REMARK    8  A    between atoms: C_22  and  C_23
REMARK                            x       y       z     vdW  Elec       q    Type
REMARK                         _______ _______ _______ _____ _____    ______ ____
ROOT
ATOM      1  C   UNL     1       4.720   4.382  16.943  0.00  0.00    +0.000 A 
ATOM      2  C   UNL     1       3.898   3.247  16.860  0.00  0.00    +0.000 A 
ATOM      3  C   UNL     1       2.578   3.285  17.303  0.00  0.00    +0.000 A 
ATOM      4  C   UNL     1       2.062   4.447  17.863  0.00  0.00    +0.000 A 
ATOM      5  C   UNL     1       2.847   5.594  17.979  0.00  0.00    +0.000 A 
ATOM      6  C   UNL     1       4.162   5.564  17.482  0.00  0.00    +0.000 A 
ENDROOT
BRANCH   5   7
ATOM      7  N   UNL     1       2.375   6.778  18.582  0.00  0.00    +0.000 N 
ATOM      8  C   UNL     1       1.920   6.902  19.886  0.00  0.00    +0.000 C 
ATOM      9  O   UNL     1       1.870   6.014  20.733  0.00  0.00    +0.000 OA
ATOM     10  H   UNL     1       2.447   7.649  18.063  0.00  0.00    +0.000 HD
BRANCH   8  11
ATOM     11  C   UNL     1       1.499   8.279  20.281  0.00  0.00    +0.000 A 
ATOM     12  C   UNL     1       1.218   8.530  21.605  0.00  0.00    +0.000 A 
ATOM     13  C   UNL     1       0.870   9.820  21.888  0.00  0.00    +0.000 A 
ATOM     14  N   UNL     1       0.800  10.783  20.952  0.00  0.00    +0.000 NA
ATOM     15  C   UNL     1       1.089  10.450  19.673  0.00  0.00    +0.000 A 
ATOM     16  N   UNL     1       1.446   9.208  19.297  0.00  0.00    +0.000 NA
BRANCH  15  17
ATOM     17  C   UNL     1       1.048  11.531  18.626  0.00  0.00    +0.000 C 
ATOM     18  C   UNL     1       1.062  12.986  19.038  0.00  0.00    +0.000 C 
ATOM     19  C   UNL     1       2.261  12.393  18.357  0.00  0.00    +0.000 C 
ENDBRANCH  15  17
ENDBRANCH   8  11
ENDBRANCH   5   7
BRANCH   1  21
ATOM     20  C   UNL     1       7.187   4.730  17.592  0.00  0.00    +0.000 C 
ATOM     21  C   UNL     1       6.181   4.374  16.478  0.00  0.00    +0.000 C 
BRANCH  21  22
ATOM     22  C   UNL     1       6.361   5.309  15.255  0.00  0.00    +0.000 C 
BRANCH  22  23
ATOM     23  C   UNL     1       6.378   4.575  13.955  0.00  0.00    +0.000 A 
ATOM     24  N   UNL     1       5.535   3.636  13.576  0.00  0.00    +0.000 NA
ATOM     25  N   UNL     1       5.921   3.183  12.337  0.00  0.00    +0.000 NA
ATOM     26  C   UNL     1       6.985   3.864  11.979  0.00  0.00    +0.000 A 
ATOM     27  N   UNL     1       7.296   4.761  12.952  0.00  0.00    +0.000 N 
ATOM     28  C   UNL     1       8.378   5.708  12.917  0.00  0.00    +0.000 C 
ENDBRANCH  22  23
ENDBRANCH  21  22
ENDBRANCH   1  21
TORSDOF 6
ENDMDL
MODEL 9
REMARK VINA RESULT:      -7.4      2.365      2.940
REMARK  Name = 
REMARK  8 active torsions:
REMARK  status: ('A' for Active; 'I' for Inactive)
REMARK    1  A    between atoms: C_1  and  C_2
REMARK    2  A    between atoms: C_2  and  C_3
REMARK    3  A    between atoms: C_2  and  C_10
REMARK    4  A    between atoms: C_3  and  C_4
REMARK    5  A    between atoms: N_8  and  C_9
REMARK    6  A    between atoms: C_14  and  N_15
REMARK    7  A    between atoms: C_16  and  C_18
REMARK    8  A    between atoms: C_22  and  C_23
REMARK                            x       y       z     vdW  Elec       q    Type
REMARK                         _______ _______ _______ _____ _____    ______ ____
ROOT
ATOM      1  C   UNL     1      -1.056  10.600  18.195  0.00  0.00    +0.000 A 
ATOM      2  C   UNL     1      -0.436  11.765  18.671  0.00  0.00    +0.000 A 
ATOM      3  C   UNL     1       0.948  11.829  18.821  0.00  0.00    +0.000 A 
ATOM      4  C   UNL     1       1.735  10.722  18.526  0.00  0.00    +0.000 A 
ATOM      5  C   UNL     1       1.158   9.538  18.064  0.00  0.00    +0.000 A 
ATOM      6  C   UNL     1      -0.233   9.499  17.865  0.00  0.00    +0.000 A 
ENDROOT
BRANCH   5   7
ATOM      7  N   UNL     1       1.916   8.380  17.796  0.00  0.00    +0.000 N 
ATOM      8  C   UNL     1       2.377   7.472  18.738  0.00  0.00    +0.000 C 
ATOM      9  O   UNL     1       2.187   7.515  19.951  0.00  0.00    +0.000 OA
ATOM     10  H   UNL     1       2.077   8.118  16.827  0.00  0.00    +0.000 HD
BRANCH   8  11
ATOM     11  C   UNL     1       3.137   6.314  18.182  0.00  0.00    +0.000 A 
ATOM     12  C   UNL     1       2.461   5.144  17.921  0.00  0.00    +0.000 A 
ATOM     13  C   UNL     1       3.222   4.143  17.386  0.00  0.00    +0.000 A 
ATOM     14  N   UNL     1       4.535   4.277  17.131  0.00  0.00    +0.000 NA
ATOM     15  C   UNL     1       5.123   5.460  17.422  0.00  0.00    +0.000 A 
ATOM     16  N   UNL     1       4.457   6.506  17.947  0.00  0.00    +0.000 NA
BRANCH  15  17
ATOM     17  C   UNL     1       6.585   5.629  17.106  0.00  0.00    +0.000 C 
ATOM     18  C   UNL     1       7.525   6.194  18.146  0.00  0.00    +0.000 C 
ATOM     19  C   UNL     1       7.624   4.747  17.761  0.00  0.00    +0.000 C 
ENDBRANCH  15  17
ENDBRANCH   8  11
ENDBRANCH   5   7
BRANCH   1  21
ATOM     20  C   UNL     1      -3.007   9.704  16.773  0.00  0.00    +0.000 C 
ATOM     21  C   UNL     1      -2.577  10.489  18.030  0.00  0.00    +0.000 C 
BRANCH  21  22
ATOM     22  C   UNL     1      -3.224  11.897  18.047  0.00  0.00    +0.000 C 
BRANCH  22  23
ATOM     23  C   UNL     1      -4.163  12.095  19.190  0.00  0.00    +0.000 A 
ATOM     24  N   UNL     1      -3.867  12.608  20.367  0.00  0.00    +0.000 NA
ATOM     25  N   UNL     1      -4.995  12.573  21.152  0.00  0.00    +0.000 NA
ATOM     26  C   UNL     1      -5.961  12.050  20.433  0.00  0.00    +0.000 A 
ATOM     27  N   UNL     1      -5.493  11.754  19.192  0.00  0.00    +0.000 N 
ATOM     28  C   UNL     1      -6.256  11.195  18.109  0.00  0.00    +0.000 C 
ENDBRANCH  22  23
ENDBRANCH  21  22
ENDBRANCH   1  21
TORSDOF 6
ENDMDL
