MODEL 1
REMARK VINA RESULT:     -10.5      0.000      0.000
REMARK  Name = 
REMARK  9 active torsions:
REMARK  status: ('A' for Active; 'I' for Inactive)
REMARK    1  A    between atoms: C_1  and  C_2
REMARK    2  A    between atoms: C_2  and  C_3
REMARK    3  A    between atoms: C_2  and  N_35
REMARK    4  A    between atoms: C_7  and  C_8
REMARK    5  A    between atoms: N_14  and  C_15
REMARK    6  A    between atoms: C_19  and  C_20
REMARK    7  A    between atoms: C_20  and  C_21
REMARK    8  A    between atoms: C_21  and  C_23
REMARK    9  A    between atoms: N_27  and  C_28
REMARK                            x       y       z     vdW  Elec       q    Type
REMARK                         _______ _______ _______ _____ _____    ______ ____
ROOT
ATOM      1  C   UNL     1       0.404  11.600  19.431  0.00  0.00    +0.000 A 
ATOM      2  C   UNL     1       1.084  10.748  18.550  0.00  0.00    +0.000 A 
ATOM      3  C   UNL     1       1.466   9.506  19.025  0.00  0.00    +0.000 A 
ATOM      4  C   UNL     1       1.159   9.058  20.310  0.00  0.00    +0.000 A 
ATOM      5  C   UNL     1       0.513   9.885  21.214  0.00  0.00    +0.000 A 
ATOM      6  C   UNL     1       0.182  11.177  20.768  0.00  0.00    +0.000 A 
ATOM      7  C   UNL     1       1.627   7.652  20.480  0.00  0.00    +0.000 C 
ATOM      8  N   UNL     1       2.280   7.369  19.218  0.00  0.00    +0.000 N 
ATOM      9  C   UNL     1       2.218   8.448  18.338  0.00  0.00    +0.000 C 
ATOM     10  O   UNL     1       2.657   8.578  17.210  0.00  0.00    +0.000 OA
ENDROOT
BRANCH   8  11
ATOM     11  C   UNL     1       3.033   6.191  19.033  0.00  0.00    +0.000 A 
ATOM     12  C   UNL     1       2.948   5.143  19.944  0.00  0.00    +0.000 A 
ATOM     13  C   UNL     1       3.674   3.978  19.733  0.00  0.00    +0.000 A 
ATOM     14  C   UNL     1       4.526   3.871  18.632  0.00  0.00    +0.000 A 
ATOM     15  C   UNL     1       4.660   4.900  17.683  0.00  0.00    +0.000 A 
ATOM     16  C   UNL     1       3.859   6.044  17.905  0.00  0.00    +0.000 A 
BRANCH  15  17
ATOM     17  C   UNL     1       5.679   4.806  16.421  0.00  0.00    +0.000 C 
ATOM     18  C   UNL     1       5.538   3.673  15.372  0.00  0.00    +0.000 C 
ATOM     19  O   UNL     1       5.531   4.636  14.283  0.00  0.00    +0.000 OA
ATOM     20  C   UNL     1       5.273   5.702  15.224  0.00  0.00    +0.000 C 
BRANCH  17  21
ATOM     21  C   UNL     1       7.149   4.950  16.871  0.00  0.00    +0.000 C 
ATOM     22  F   UNL     1       7.442   4.024  17.830  0.00  0.00    +0.000 F 
BRANCH  21  23
ATOM     23  C   UNL     1       7.454   6.326  17.384  0.00  0.00    +0.000 A 
ATOM     24  N   UNL     1       7.355   7.452  16.715  0.00  0.00    +0.000 NA
ATOM     25  N   UNL     1       7.858   8.467  17.495  0.00  0.00    +0.000 NA
ATOM     26  C   UNL     1       8.213   7.939  18.637  0.00  0.00    +0.000 A 
ATOM     27  N   UNL     1       7.923   6.609  18.639  0.00  0.00    +0.000 N 
ATOM     28  C   UNL     1       8.064   5.712  19.754  0.00  0.00    +0.000 C 
ENDBRANCH  21  23
ENDBRANCH  17  21
ENDBRANCH  15  17
ENDBRANCH   8  11
BRANCH   5  29
ATOM     29  C   UNL     1       0.138   9.441  22.602  0.00  0.00    +0.000 C 
ATOM     30  F   UNL     1      -0.493  10.404  23.331  0.00  0.00    +0.000 F 
ATOM     31  F   UNL     1      -0.693   8.367  22.602  0.00  0.00    +0.000 F 
ATOM     32  F   UNL     1       1.227   9.081  23.337  0.00  0.00    +0.000 F 
ENDBRANCH   5  29
BRANCH   1  34
ATOM     33  C   UNL     1       0.025  13.979  20.072  0.00  0.00    +0.000 C 
ATOM     34  C   UNL     1      -0.213  12.920  18.976  0.00  0.00    +0.000 C 
BRANCH  34  35
ATOM     35  N   UNL     1      -1.634  12.848  18.572  0.00  0.00    +0.000 NA
ATOM     36  C   UNL     1      -2.538  12.475  19.676  0.00  0.00    +0.000 C 
ATOM     37  C   UNL     1      -3.774  11.899  18.982  0.00  0.00    +0.000 C 
ATOM     38  C   UNL     1      -3.184  11.235  17.778  0.00  0.00    +0.000 C 
ATOM     39  C   UNL     1      -4.056  10.746  16.637  0.00  0.00    +0.000 C 
ATOM     40  C   UNL     1      -3.385   9.752  17.538  0.00  0.00    +0.000 C 
ATOM     41  C   UNL     1      -1.811  11.801  17.539  0.00  0.00    +0.000 C 
ENDBRANCH  34  35
ENDBRANCH   1  34
TORSDOF 7
ENDMDL
MODEL 2
REMARK VINA RESULT:     -10.2      1.805      3.536
REMARK  Name = 
REMARK  9 active torsions:
REMARK  status: ('A' for Active; 'I' for Inactive)
REMARK    1  A    between atoms: C_1  and  C_2
REMARK    2  A    between atoms: C_2  and  C_3
REMARK    3  A    between atoms: C_2  and  N_35
REMARK    4  A    between atoms: C_7  and  C_8
REMARK    5  A    between atoms: N_14  and  C_15
REMARK    6  A    between atoms: C_19  and  C_20
REMARK    7  A    between atoms: C_20  and  C_21
REMARK    8  A    between atoms: C_21  and  C_23
REMARK    9  A    between atoms: N_27  and  C_28
REMARK                            x       y       z     vdW  Elec       q    Type
REMARK                         _______ _______ _______ _____ _____    ______ ____
ROOT
ATOM      1  C   UNL     1      -0.157  11.428  19.495  0.00  0.00    +0.000 A 
ATOM      2  C   UNL     1       0.600  10.563  18.693  0.00  0.00    +0.000 A 
ATOM      3  C   UNL     1       1.093   9.411  19.279  0.00  0.00    +0.000 A 
ATOM      4  C   UNL     1       0.825   9.059  20.602  0.00  0.00    +0.000 A 
ATOM      5  C   UNL     1       0.105   9.904  21.429  0.00  0.00    +0.000 A 
ATOM      6  C   UNL     1      -0.342  11.113  20.867  0.00  0.00    +0.000 A 
ATOM      7  C   UNL     1       1.420   7.723  20.899  0.00  0.00    +0.000 C 
ATOM      8  N   UNL     1       2.099   7.384  19.665  0.00  0.00    +0.000 N 
ATOM      9  C   UNL     1       1.940   8.367  18.689  0.00  0.00    +0.000 C 
ATOM     10  O   UNL     1       2.368   8.431  17.550  0.00  0.00    +0.000 OA
ENDROOT
BRANCH   8  11
ATOM     11  C   UNL     1       2.957   6.268  19.585  0.00  0.00    +0.000 A 
ATOM     12  C   UNL     1       2.529   5.013  20.006  0.00  0.00    +0.000 A 
ATOM     13  C   UNL     1       3.376   3.918  19.895  0.00  0.00    +0.000 A 
ATOM     14  C   UNL     1       4.673   4.079  19.404  0.00  0.00    +0.000 A 
ATOM     15  C   UNL     1       5.164   5.324  18.972  0.00  0.00    +0.000 A 
ATOM     16  C   UNL     1       4.249   6.400  19.049  0.00  0.00    +0.000 A 
BRANCH  15  17
ATOM     17  C   UNL     1       6.684   5.535  18.439  0.00  0.00    +0.000 C 
ATOM     18  C   UNL     1       7.119   6.879  17.799  0.00  0.00    +0.000 C 
ATOM     19  O   UNL     1       8.260   6.975  18.695  0.00  0.00    +0.000 OA
ATOM     20  C   UNL     1       7.680   5.962  19.547  0.00  0.00    +0.000 C 
BRANCH  17  21
ATOM     21  C   UNL     1       7.147   4.345  17.572  0.00  0.00    +0.000 C 
ATOM     22  F   UNL     1       8.485   4.131  17.739  0.00  0.00    +0.000 F 
BRANCH  21  23
ATOM     23  C   UNL     1       6.845   4.551  16.117  0.00  0.00    +0.000 A 
ATOM     24  N   UNL     1       7.650   5.064  15.213  0.00  0.00    +0.000 NA
ATOM     25  N   UNL     1       6.949   5.208  14.039  0.00  0.00    +0.000 NA
ATOM     26  C   UNL     1       5.746   4.741  14.245  0.00  0.00    +0.000 A 
ATOM     27  N   UNL     1       5.650   4.261  15.516  0.00  0.00    +0.000 N 
ATOM     28  C   UNL     1       4.521   3.569  16.077  0.00  0.00    +0.000 C 
ENDBRANCH  21  23
ENDBRANCH  17  21
ENDBRANCH  15  17
ENDBRANCH   8  11
BRANCH   5  29
ATOM     29  C   UNL     1      -0.231   9.559  22.855  0.00  0.00    +0.000 C 
ATOM     30  F   UNL     1      -1.002   8.442  22.979  0.00  0.00    +0.000 F 
ATOM     31  F   UNL     1       0.873   9.338  23.615  0.00  0.00    +0.000 F 
ATOM     32  F   UNL     1      -0.927  10.553  23.473  0.00  0.00    +0.000 F 
ENDBRANCH   5  29
BRANCH   1  34
ATOM     33  C   UNL     1      -1.347  12.303  17.487  0.00  0.00    +0.000 C 
ATOM     34  C   UNL     1      -0.891  12.638  18.923  0.00  0.00    +0.000 C 
BRANCH  34  35
ATOM     35  N   UNL     1      -0.150  13.917  18.987  0.00  0.00    +0.000 NA
ATOM     36  C   UNL     1       1.305  13.742  19.160  0.00  0.00    +0.000 C 
ATOM     37  C   UNL     1       1.780  15.061  19.771  0.00  0.00    +0.000 C 
ATOM     38  C   UNL     1       0.615  15.456  20.623  0.00  0.00    +0.000 C 
ATOM     39  C   UNL     1       0.511  16.843  21.229  0.00  0.00    +0.000 C 
ATOM     40  C   UNL     1       0.786  15.665  22.115  0.00  0.00    +0.000 C 
ATOM     41  C   UNL     1      -0.601  14.702  20.159  0.00  0.00    +0.000 C 
ENDBRANCH  34  35
ENDBRANCH   1  34
TORSDOF 7
ENDMDL
MODEL 3
REMARK VINA RESULT:     -10.1      0.758      1.147
REMARK  Name = 
REMARK  9 active torsions:
REMARK  status: ('A' for Active; 'I' for Inactive)
REMARK    1  A    between atoms: C_1  and  C_2
REMARK    2  A    between atoms: C_2  and  C_3
REMARK    3  A    between atoms: C_2  and  N_35
REMARK    4  A    between atoms: C_7  and  C_8
REMARK    5  A    between atoms: N_14  and  C_15
REMARK    6  A    between atoms: C_19  and  C_20
REMARK    7  A    between atoms: C_20  and  C_21
REMARK    8  A    between atoms: C_21  and  C_23
REMARK    9  A    between atoms: N_27  and  C_28
REMARK                            x       y       z     vdW  Elec       q    Type
REMARK                         _______ _______ _______ _____ _____    ______ ____
ROOT
ATOM      1  C   UNL     1       0.482  11.599  19.485  0.00  0.00    +0.000 A 
ATOM      2  C   UNL     1       1.106  10.753  18.557  0.00  0.00    +0.000 A 
ATOM      3  C   UNL     1       1.470   9.489  18.984  0.00  0.00    +0.000 A 
ATOM      4  C   UNL     1       1.196   9.014  20.267  0.00  0.00    +0.000 A 
ATOM      5  C   UNL     1       0.606   9.833  21.216  0.00  0.00    +0.000 A 
ATOM      6  C   UNL     1       0.297  11.145  20.817  0.00  0.00    +0.000 A 
ATOM      7  C   UNL     1       1.630   7.591  20.382  0.00  0.00    +0.000 C 
ATOM      8  N   UNL     1       2.229   7.325  19.090  0.00  0.00    +0.000 N 
ATOM      9  C   UNL     1       2.166   8.431  18.242  0.00  0.00    +0.000 C 
ATOM     10  O   UNL     1       2.569   8.580  17.102  0.00  0.00    +0.000 OA
ENDROOT
BRANCH   8  11
ATOM     11  C   UNL     1       2.942   6.133  18.846  0.00  0.00    +0.000 A 
ATOM     12  C   UNL     1       2.824   5.047  19.707  0.00  0.00    +0.000 A 
ATOM     13  C   UNL     1       3.510   3.870  19.438  0.00  0.00    +0.000 A 
ATOM     14  C   UNL     1       4.354   3.786  18.329  0.00  0.00    +0.000 A 
ATOM     15  C   UNL     1       4.520   4.854  17.429  0.00  0.00    +0.000 A 
ATOM     16  C   UNL     1       3.759   6.012  17.709  0.00  0.00    +0.000 A 
BRANCH  15  17
ATOM     17  C   UNL     1       5.531   4.786  16.159  0.00  0.00    +0.000 C 
ATOM     18  C   UNL     1       6.115   3.430  15.683  0.00  0.00    +0.000 C 
ATOM     19  O   UNL     1       5.682   3.684  14.320  0.00  0.00    +0.000 OA
ATOM     20  C   UNL     1       4.810   4.736  14.789  0.00  0.00    +0.000 C 
BRANCH  17  21
ATOM     21  C   UNL     1       6.646   5.849  16.268  0.00  0.00    +0.000 C 
ATOM     22  F   UNL     1       7.545   5.696  15.252  0.00  0.00    +0.000 F 
BRANCH  21  23
ATOM     23  C   UNL     1       7.358   5.791  17.587  0.00  0.00    +0.000 A 
ATOM     24  N   UNL     1       7.620   4.714  18.291  0.00  0.00    +0.000 NA
ATOM     25  N   UNL     1       8.158   5.101  19.496  0.00  0.00    +0.000 NA
ATOM     26  C   UNL     1       8.249   6.405  19.478  0.00  0.00    +0.000 A 
ATOM     27  N   UNL     1       7.817   6.880  18.278  0.00  0.00    +0.000 N 
ATOM     28  C   UNL     1       7.869   8.249  17.841  0.00  0.00    +0.000 C 
ENDBRANCH  21  23
ENDBRANCH  17  21
ENDBRANCH  15  17
ENDBRANCH   8  11
BRANCH   5  29
ATOM     29  C   UNL     1       0.269   9.360  22.604  0.00  0.00    +0.000 C 
ATOM     30  F   UNL     1      -0.352  10.304  23.366  0.00  0.00    +0.000 F 
ATOM     31  F   UNL     1      -0.553   8.279  22.605  0.00  0.00    +0.000 F 
ATOM     32  F   UNL     1       1.378   8.996  23.306  0.00  0.00    +0.000 F 
ENDBRANCH   5  29
BRANCH   1  34
ATOM     33  C   UNL     1       0.136  13.952  20.232  0.00  0.00    +0.000 C 
ATOM     34  C   UNL     1      -0.113  12.948  19.088  0.00  0.00    +0.000 C 
BRANCH  34  35
ATOM     35  N   UNL     1      -1.533  12.915  18.676  0.00  0.00    +0.000 NA
ATOM     36  C   UNL     1      -2.452  12.545  19.770  0.00  0.00    +0.000 C 
ATOM     37  C   UNL     1      -3.697  12.010  19.060  0.00  0.00    +0.000 C 
ATOM     38  C   UNL     1      -3.116  11.353  17.847  0.00  0.00    +0.000 C 
ATOM     39  C   UNL     1      -3.993  10.903  16.695  0.00  0.00    +0.000 C 
ATOM     40  C   UNL     1      -3.350   9.879  17.582  0.00  0.00    +0.000 C 
ATOM     41  C   UNL     1      -1.729  11.890  17.624  0.00  0.00    +0.000 C 
ENDBRANCH  34  35
ENDBRANCH   1  34
TORSDOF 7
ENDMDL
MODEL 4
REMARK VINA RESULT:      -9.9      1.985      3.294
REMARK  Name = 
REMARK  9 active torsions:
REMARK  status: ('A' for Active; 'I' for Inactive)
REMARK    1  A    between atoms: C_1  and  C_2
REMARK    2  A    between atoms: C_2  and  C_3
REMARK    3  A    between atoms: C_2  and  N_35
REMARK    4  A    between atoms: C_7  and  C_8
REMARK    5  A    between atoms: N_14  and  C_15
REMARK    6  A    between atoms: C_19  and  C_20
REMARK    7  A    between atoms: C_20  and  C_21
REMARK    8  A    between atoms: C_21  and  C_23
REMARK    9  A    between atoms: N_27  and  C_28
REMARK                            x       y       z     vdW  Elec       q    Type
REMARK                         _______ _______ _______ _____ _____    ______ ____
ROOT
ATOM      1  C   UNL     1       0.027  11.651  19.642  0.00  0.00    +0.000 A 
ATOM      2  C   UNL     1       0.722  10.810  18.761  0.00  0.00    +0.000 A 
ATOM      3  C   UNL     1       1.166   9.594  19.251  0.00  0.00    +0.000 A 
ATOM      4  C   UNL     1       0.907   9.160  20.550  0.00  0.00    +0.000 A 
ATOM      5  C   UNL     1       0.249   9.977  21.454  0.00  0.00    +0.000 A 
ATOM      6  C   UNL     1      -0.146  11.246  20.992  0.00  0.00    +0.000 A 
ATOM      7  C   UNL     1       1.436   7.778  20.735  0.00  0.00    +0.000 C 
ATOM      8  N   UNL     1       2.072   7.496  19.464  0.00  0.00    +0.000 N 
ATOM      9  C   UNL     1       1.944   8.555  18.565  0.00  0.00    +0.000 C 
ATOM     10  O   UNL     1       2.352   8.680  17.425  0.00  0.00    +0.000 OA
ENDROOT
BRANCH   8  11
ATOM     11  C   UNL     1       2.868   6.347  19.283  0.00  0.00    +0.000 A 
ATOM     12  C   UNL     1       2.336   5.077  19.478  0.00  0.00    +0.000 A 
ATOM     13  C   UNL     1       3.125   3.953  19.269  0.00  0.00    +0.000 A 
ATOM     14  C   UNL     1       4.466   4.094  18.906  0.00  0.00    +0.000 A 
ATOM     15  C   UNL     1       5.062   5.352  18.703  0.00  0.00    +0.000 A 
ATOM     16  C   UNL     1       4.206   6.466  18.870  0.00  0.00    +0.000 A 
BRANCH  15  17
ATOM     17  C   UNL     1       6.631   5.533  18.323  0.00  0.00    +0.000 C 
ATOM     18  C   UNL     1       7.152   6.864  17.722  0.00  0.00    +0.000 C 
ATOM     19  O   UNL     1       8.199   6.947  18.726  0.00  0.00    +0.000 OA
ATOM     20  C   UNL     1       7.519   5.950  19.522  0.00  0.00    +0.000 C 
BRANCH  17  21
ATOM     21  C   UNL     1       7.157   4.328  17.512  0.00  0.00    +0.000 C 
ATOM     22  F   UNL     1       8.477   4.116  17.785  0.00  0.00    +0.000 F 
BRANCH  21  23
ATOM     23  C   UNL     1       6.967   4.512  16.035  0.00  0.00    +0.000 A 
ATOM     24  N   UNL     1       7.685   5.273  15.241  0.00  0.00    +0.000 NA
ATOM     25  N   UNL     1       7.104   5.271  13.994  0.00  0.00    +0.000 NA
ATOM     26  C   UNL     1       6.068   4.475  14.051  0.00  0.00    +0.000 A 
ATOM     27  N   UNL     1       5.976   3.927  15.294  0.00  0.00    +0.000 N 
ATOM     28  C   UNL     1       5.037   2.920  15.708  0.00  0.00    +0.000 C 
ENDBRANCH  21  23
ENDBRANCH  17  21
ENDBRANCH  15  17
ENDBRANCH   8  11
BRANCH   5  29
ATOM     29  C   UNL     1      -0.076   9.546  22.859  0.00  0.00    +0.000 C 
ATOM     30  F   UNL     1      -0.775   8.378  22.923  0.00  0.00    +0.000 F 
ATOM     31  F   UNL     1       1.034   9.359  23.619  0.00  0.00    +0.000 F 
ATOM     32  F   UNL     1      -0.837  10.465  23.515  0.00  0.00    +0.000 F 
ENDBRANCH   5  29
BRANCH   1  34
ATOM     33  C   UNL     1       0.268  13.642  18.162  0.00  0.00    +0.000 C 
ATOM     34  C   UNL     1      -0.654  12.935  19.177  0.00  0.00    +0.000 C 
BRANCH  34  35
ATOM     35  N   UNL     1      -1.093  13.846  20.257  0.00  0.00    +0.000 NA
ATOM     36  C   UNL     1      -2.556  13.862  20.451  0.00  0.00    +0.000 C 
ATOM     37  C   UNL     1      -2.837  15.204  21.129  0.00  0.00    +0.000 C 
ATOM     38  C   UNL     1      -1.803  16.096  20.516  0.00  0.00    +0.000 C 
ATOM     39  C   UNL     1      -1.516  17.476  21.075  0.00  0.00    +0.000 C 
ATOM     40  C   UNL     1      -2.212  17.341  19.754  0.00  0.00    +0.000 C 
ATOM     41  C   UNL     1      -0.718  15.240  19.924  0.00  0.00    +0.000 C 
ENDBRANCH  34  35
ENDBRANCH   1  34
TORSDOF 7
ENDMDL
MODEL 5
REMARK VINA RESULT:      -9.9      1.439      2.773
REMARK  Name = 
REMARK  9 active torsions:
REMARK  status: ('A' for Active; 'I' for Inactive)
REMARK    1  A    between atoms: C_1  and  C_2
REMARK    2  A    between atoms: C_2  and  C_3
REMARK    3  A    between atoms: C_2  and  N_35
REMARK    4  A    between atoms: C_7  and  C_8
REMARK    5  A    between atoms: N_14  and  C_15
REMARK    6  A    between atoms: C_19  and  C_20
REMARK    7  A    between atoms: C_20  and  C_21
REMARK    8  A    between atoms: C_21  and  C_23
REMARK    9  A    between atoms: N_27  and  C_28
REMARK                            x       y       z     vdW  Elec       q    Type
REMARK                         _______ _______ _______ _____ _____    ______ ____
ROOT
ATOM      1  C   UNL     1       0.260  11.757  19.652  0.00  0.00    +0.000 A 
ATOM      2  C   UNL     1       0.934  10.923  18.748  0.00  0.00    +0.000 A 
ATOM      3  C   UNL     1       1.311   9.668  19.192  0.00  0.00    +0.000 A 
ATOM      4  C   UNL     1       1.006   9.191  20.466  0.00  0.00    +0.000 A 
ATOM      5  C   UNL     1       0.368   9.999  21.392  0.00  0.00    +0.000 A 
ATOM      6  C   UNL     1       0.041  11.303  20.979  0.00  0.00    +0.000 A 
ATOM      7  C   UNL     1       1.469   7.779  20.600  0.00  0.00    +0.000 C 
ATOM      8  N   UNL     1       2.117   7.523  19.330  0.00  0.00    +0.000 N 
ATOM      9  C   UNL     1       2.056   8.624  18.476  0.00  0.00    +0.000 C 
ATOM     10  O   UNL     1       2.492   8.779  17.350  0.00  0.00    +0.000 OA
ENDROOT
BRANCH   8  11
ATOM     11  C   UNL     1       2.864   6.347  19.114  0.00  0.00    +0.000 A 
ATOM     12  C   UNL     1       2.763   5.271  19.990  0.00  0.00    +0.000 A 
ATOM     13  C   UNL     1       3.483   4.109  19.748  0.00  0.00    +0.000 A 
ATOM     14  C   UNL     1       4.345   4.031  18.652  0.00  0.00    +0.000 A 
ATOM     15  C   UNL     1       4.495   5.089  17.737  0.00  0.00    +0.000 A 
ATOM     16  C   UNL     1       3.699   6.231  17.989  0.00  0.00    +0.000 A 
BRANCH  15  17
ATOM     17  C   UNL     1       5.524   5.029  16.482  0.00  0.00    +0.000 C 
ATOM     18  C   UNL     1       5.334   3.986  15.351  0.00  0.00    +0.000 C 
ATOM     19  O   UNL     1       5.397   5.025  14.337  0.00  0.00    +0.000 OA
ATOM     20  C   UNL     1       5.188   6.032  15.351  0.00  0.00    +0.000 C 
BRANCH  17  21
ATOM     21  C   UNL     1       6.994   5.053  16.957  0.00  0.00    +0.000 C 
ATOM     22  F   UNL     1       7.191   4.120  17.933  0.00  0.00    +0.000 F 
BRANCH  21  23
ATOM     23  C   UNL     1       7.406   6.406  17.457  0.00  0.00    +0.000 A 
ATOM     24  N   UNL     1       7.377   7.534  16.785  0.00  0.00    +0.000 NA
ATOM     25  N   UNL     1       7.965   8.513  17.551  0.00  0.00    +0.000 NA
ATOM     26  C   UNL     1       8.302   7.965  18.689  0.00  0.00    +0.000 A 
ATOM     27  N   UNL     1       7.917   6.659  18.702  0.00  0.00    +0.000 N 
ATOM     28  C   UNL     1       8.013   5.759  19.820  0.00  0.00    +0.000 C 
ENDBRANCH  21  23
ENDBRANCH  17  21
ENDBRANCH  15  17
ENDBRANCH   8  11
BRANCH   5  29
ATOM     29  C   UNL     1      -0.005   9.523  22.771  0.00  0.00    +0.000 C 
ATOM     30  F   UNL     1      -0.703  10.442  23.495  0.00  0.00    +0.000 F 
ATOM     31  F   UNL     1      -0.772   8.402  22.749  0.00  0.00    +0.000 F 
ATOM     32  F   UNL     1       1.090   9.220  23.522  0.00  0.00    +0.000 F 
ENDBRANCH   5  29
BRANCH   1  34
ATOM     33  C   UNL     1      -0.421  13.135  17.690  0.00  0.00    +0.000 C 
ATOM     34  C   UNL     1      -0.353  13.090  19.230  0.00  0.00    +0.000 C 
BRANCH  34  35
ATOM     35  N   UNL     1       0.300  14.292  19.793  0.00  0.00    +0.000 NA
ATOM     36  C   UNL     1      -0.508  15.518  19.649  0.00  0.00    +0.000 C 
ATOM     37  C   UNL     1       0.509  16.658  19.727  0.00  0.00    +0.000 C 
ATOM     38  C   UNL     1       1.714  16.057  19.074  0.00  0.00    +0.000 C 
ATOM     39  C   UNL     1       3.073  16.726  19.152  0.00  0.00    +0.000 C 
ATOM     40  C   UNL     1       2.331  16.703  17.849  0.00  0.00    +0.000 C 
ATOM     41  C   UNL     1       1.567  14.561  19.074  0.00  0.00    +0.000 C 
ENDBRANCH  34  35
ENDBRANCH   1  34
TORSDOF 7
ENDMDL
MODEL 6
REMARK VINA RESULT:      -9.7      2.685      9.268
REMARK  Name = 
REMARK  9 active torsions:
REMARK  status: ('A' for Active; 'I' for Inactive)
REMARK    1  A    between atoms: C_1  and  C_2
REMARK    2  A    between atoms: C_2  and  C_3
REMARK    3  A    between atoms: C_2  and  N_35
REMARK    4  A    between atoms: C_7  and  C_8
REMARK    5  A    between atoms: N_14  and  C_15
REMARK    6  A    between atoms: C_19  and  C_20
REMARK    7  A    between atoms: C_20  and  C_21
REMARK    8  A    between atoms: C_21  and  C_23
REMARK    9  A    between atoms: N_27  and  C_28
REMARK                            x       y       z     vdW  Elec       q    Type
REMARK                         _______ _______ _______ _____ _____    ______ ____
ROOT
ATOM      1  C   UNL     1       3.701   5.326  17.788  0.00  0.00    +0.000 A 
ATOM      2  C   UNL     1       3.343   6.677  17.895  0.00  0.00    +0.000 A 
ATOM      3  C   UNL     1       2.528   7.044  18.951  0.00  0.00    +0.000 A 
ATOM      4  C   UNL     1       2.101   6.144  19.927  0.00  0.00    +0.000 A 
ATOM      5  C   UNL     1       2.414   4.798  19.836  0.00  0.00    +0.000 A 
ATOM      6  C   UNL     1       3.181   4.397  18.728  0.00  0.00    +0.000 A 
ATOM      7  C   UNL     1       1.319   6.866  20.973  0.00  0.00    +0.000 C 
ATOM      8  N   UNL     1       1.282   8.226  20.474  0.00  0.00    +0.000 N 
ATOM      9  C   UNL     1       1.975   8.365  19.272  0.00  0.00    +0.000 C 
ATOM     10  O   UNL     1       2.148   9.342  18.565  0.00  0.00    +0.000 OA
ENDROOT
BRANCH   8  11
ATOM     11  C   UNL     1       0.469   9.205  21.081  0.00  0.00    +0.000 A 
ATOM     12  C   UNL     1       0.326   9.252  22.463  0.00  0.00    +0.000 A 
ATOM     13  C   UNL     1      -0.456  10.239  23.048  0.00  0.00    +0.000 A 
ATOM     14  C   UNL     1      -1.137  11.161  22.250  0.00  0.00    +0.000 A 
ATOM     15  C   UNL     1      -1.038  11.158  20.846  0.00  0.00    +0.000 A 
ATOM     16  C   UNL     1      -0.185  10.172  20.298  0.00  0.00    +0.000 A 
BRANCH  15  17
ATOM     17  C   UNL     1      -1.857  12.196  19.904  0.00  0.00    +0.000 C 
ATOM     18  C   UNL     1      -2.780  11.678  18.770  0.00  0.00    +0.000 C 
ATOM     19  O   UNL     1      -3.889  12.478  19.262  0.00  0.00    +0.000 OA
ATOM     20  C   UNL     1      -3.199  12.670  20.516  0.00  0.00    +0.000 C 
BRANCH  17  21
ATOM     21  C   UNL     1      -0.944  13.328  19.385  0.00  0.00    +0.000 C 
ATOM     22  F   UNL     1      -0.131  12.862  18.393  0.00  0.00    +0.000 F 
BRANCH  21  23
ATOM     23  C   UNL     1      -0.113  13.934  20.478  0.00  0.00    +0.000 A 
ATOM     24  N   UNL     1       1.092  13.562  20.845  0.00  0.00    +0.000 NA
ATOM     25  N   UNL     1       1.444  14.274  21.968  0.00  0.00    +0.000 NA
ATOM     26  C   UNL     1       0.459  15.092  22.232  0.00  0.00    +0.000 A 
ATOM     27  N   UNL     1      -0.515  14.960  21.291  0.00  0.00    +0.000 N 
ATOM     28  C   UNL     1      -1.700  15.766  21.179  0.00  0.00    +0.000 C 
ENDBRANCH  21  23
ENDBRANCH  17  21
ENDBRANCH  15  17
ENDBRANCH   8  11
BRANCH   5  29
ATOM     29  C   UNL     1       1.997   3.791  20.876  0.00  0.00    +0.000 C 
ATOM     30  F   UNL     1       2.480   2.538  20.646  0.00  0.00    +0.000 F 
ATOM     31  F   UNL     1       2.409   4.128  22.125  0.00  0.00    +0.000 F 
ATOM     32  F   UNL     1       0.644   3.655  20.944  0.00  0.00    +0.000 F 
ENDBRANCH   5  29
BRANCH   1  34
ATOM     33  C   UNL     1       4.561   3.306  16.608  0.00  0.00    +0.000 C 
ATOM     34  C   UNL     1       4.725   4.832  16.770  0.00  0.00    +0.000 C 
BRANCH  34  35
ATOM     35  N   UNL     1       6.127   5.214  17.046  0.00  0.00    +0.000 NA
ATOM     36  C   UNL     1       6.477   5.160  18.478  0.00  0.00    +0.000 C 
ATOM     37  C   UNL     1       7.676   6.101  18.614  0.00  0.00    +0.000 C 
ATOM     38  C   UNL     1       7.371   7.158  17.600  0.00  0.00    +0.000 C 
ATOM     39  C   UNL     1       8.412   8.177  17.182  0.00  0.00    +0.000 C 
ATOM     40  C   UNL     1       7.243   8.610  18.014  0.00  0.00    +0.000 C 
ATOM     41  C   UNL     1       6.358   6.616  16.629  0.00  0.00    +0.000 C 
ENDBRANCH  34  35
ENDBRANCH   1  34
TORSDOF 7
ENDMDL
MODEL 7
REMARK VINA RESULT:      -9.6      2.634      9.441
REMARK  Name = 
REMARK  9 active torsions:
REMARK  status: ('A' for Active; 'I' for Inactive)
REMARK    1  A    between atoms: C_1  and  C_2
REMARK    2  A    between atoms: C_2  and  C_3
REMARK    3  A    between atoms: C_2  and  N_35
REMARK    4  A    between atoms: C_7  and  C_8
REMARK    5  A    between atoms: N_14  and  C_15
REMARK    6  A    between atoms: C_19  and  C_20
REMARK    7  A    between atoms: C_20  and  C_21
REMARK    8  A    between atoms: C_21  and  C_23
REMARK    9  A    between atoms: N_27  and  C_28
REMARK                            x       y       z     vdW  Elec       q    Type
REMARK                         _______ _______ _______ _____ _____    ______ ____
ROOT
ATOM      1  C   UNL     1       3.277   5.184  17.736  0.00  0.00    +0.000 A 
ATOM      2  C   UNL     1       2.935   6.538  17.862  0.00  0.00    +0.000 A 
ATOM      3  C   UNL     1       2.265   6.927  19.008  0.00  0.00    +0.000 A 
ATOM      4  C   UNL     1       1.970   6.047  20.049  0.00  0.00    +0.000 A 
ATOM      5  C   UNL     1       2.269   4.698  19.945  0.00  0.00    +0.000 A 
ATOM      6  C   UNL     1       2.885   4.275  18.754  0.00  0.00    +0.000 A 
ATOM      7  C   UNL     1       1.330   6.790  21.173  0.00  0.00    +0.000 C 
ATOM      8  N   UNL     1       1.227   8.140  20.657  0.00  0.00    +0.000 N 
ATOM      9  C   UNL     1       1.757   8.255  19.372  0.00  0.00    +0.000 C 
ATOM     10  O   UNL     1       1.835   9.217  18.630  0.00  0.00    +0.000 OA
ENDROOT
BRANCH   8  11
ATOM     11  C   UNL     1       0.499   9.133  21.345  0.00  0.00    +0.000 A 
ATOM     12  C   UNL     1       0.282   9.032  22.715  0.00  0.00    +0.000 A 
ATOM     13  C   UNL     1      -0.412  10.031  23.384  0.00  0.00    +0.000 A 
ATOM     14  C   UNL     1      -0.934  11.117  22.678  0.00  0.00    +0.000 A 
ATOM     15  C   UNL     1      -0.755  11.268  21.291  0.00  0.00    +0.000 A 
ATOM     16  C   UNL     1       0.008  10.258  20.661  0.00  0.00    +0.000 A 
BRANCH  15  17
ATOM     17  C   UNL     1      -1.392  12.504  20.451  0.00  0.00    +0.000 C 
ATOM     18  C   UNL     1      -2.785  13.076  20.818  0.00  0.00    +0.000 C 
ATOM     19  O   UNL     1      -2.251  14.427  20.880  0.00  0.00    +0.000 OA
ATOM     20  C   UNL     1      -0.908  13.897  20.926  0.00  0.00    +0.000 C 
BRANCH  17  21
ATOM     21  C   UNL     1      -1.288  12.264  18.929  0.00  0.00    +0.000 C 
ATOM     22  F   UNL     1      -1.069  13.444  18.279  0.00  0.00    +0.000 F 
BRANCH  21  23
ATOM     23  C   UNL     1      -2.513  11.598  18.374  0.00  0.00    +0.000 A 
ATOM     24  N   UNL     1      -3.753  12.016  18.490  0.00  0.00    +0.000 NA
ATOM     25  N   UNL     1      -4.586  11.056  17.964  0.00  0.00    +0.000 NA
ATOM     26  C   UNL     1      -3.829  10.095  17.504  0.00  0.00    +0.000 A 
ATOM     27  N   UNL     1      -2.518  10.417  17.683  0.00  0.00    +0.000 N 
ATOM     28  C   UNL     1      -1.389   9.664  17.207  0.00  0.00    +0.000 C 
ENDBRANCH  21  23
ENDBRANCH  17  21
ENDBRANCH  15  17
ENDBRANCH   8  11
BRANCH   5  29
ATOM     29  C   UNL     1       1.993   3.713  21.049  0.00  0.00    +0.000 C 
ATOM     30  F   UNL     1       2.567   2.494  20.849  0.00  0.00    +0.000 F 
ATOM     31  F   UNL     1       2.439   4.143  22.258  0.00  0.00    +0.000 F 
ATOM     32  F   UNL     1       0.661   3.471  21.198  0.00  0.00    +0.000 F 
ENDBRANCH   5  29
BRANCH   1  34
ATOM     33  C   UNL     1       4.623   3.238  16.951  0.00  0.00    +0.000 C 
ATOM     34  C   UNL     1       4.160   4.668  16.603  0.00  0.00    +0.000 C 
BRANCH  34  35
ATOM     35  N   UNL     1       5.294   5.544  16.234  0.00  0.00    +0.000 NA
ATOM     36  C   UNL     1       6.522   4.801  15.893  0.00  0.00    +0.000 C 
ATOM     37  C   UNL     1       7.653   5.805  16.122  0.00  0.00    +0.000 C 
ATOM     38  C   UNL     1       7.142   6.605  17.279  0.00  0.00    +0.000 C 
ATOM     39  C   UNL     1       7.808   7.900  17.701  0.00  0.00    +0.000 C 
ATOM     40  C   UNL     1       7.932   6.685  18.570  0.00  0.00    +0.000 C 
ATOM     41  C   UNL     1       5.655   6.409  17.382  0.00  0.00    +0.000 C 
ENDBRANCH  34  35
ENDBRANCH   1  34
TORSDOF 7
ENDMDL
MODEL 8
REMARK VINA RESULT:      -9.6      2.408      9.401
REMARK  Name = 
REMARK  9 active torsions:
REMARK  status: ('A' for Active; 'I' for Inactive)
REMARK    1  A    between atoms: C_1  and  C_2
REMARK    2  A    between atoms: C_2  and  C_3
REMARK    3  A    between atoms: C_2  and  N_35
REMARK    4  A    between atoms: C_7  and  C_8
REMARK    5  A    between atoms: N_14  and  C_15
REMARK    6  A    between atoms: C_19  and  C_20
REMARK    7  A    between atoms: C_20  and  C_21
REMARK    8  A    between atoms: C_21  and  C_23
REMARK    9  A    between atoms: N_27  and  C_28
REMARK                            x       y       z     vdW  Elec       q    Type
REMARK                         _______ _______ _______ _____ _____    ______ ____
ROOT
ATOM      1  C   UNL     1       3.638   5.142  17.751  0.00  0.00    +0.000 A 
ATOM      2  C   UNL     1       3.314   6.505  17.806  0.00  0.00    +0.000 A 
ATOM      3  C   UNL     1       2.525   6.935  18.858  0.00  0.00    +0.000 A 
ATOM      4  C   UNL     1       2.090   6.086  19.876  0.00  0.00    +0.000 A 
ATOM      5  C   UNL     1       2.369   4.730  19.837  0.00  0.00    +0.000 A 
ATOM      6  C   UNL     1       3.110   4.266  18.735  0.00  0.00    +0.000 A 
ATOM      7  C   UNL     1       1.341   6.870  20.901  0.00  0.00    +0.000 C 
ATOM      8  N   UNL     1       1.330   8.209  20.347  0.00  0.00    +0.000 N 
ATOM      9  C   UNL     1       2.008   8.282  19.131  0.00  0.00    +0.000 C 
ATOM     10  O   UNL     1       2.194   9.224  18.382  0.00  0.00    +0.000 OA
ENDROOT
BRANCH   8  11
ATOM     11  C   UNL     1       0.549   9.232  20.924  0.00  0.00    +0.000 A 
ATOM     12  C   UNL     1       0.207   9.189  22.271  0.00  0.00    +0.000 A 
ATOM     13  C   UNL     1      -0.538  10.218  22.832  0.00  0.00    +0.000 A 
ATOM     14  C   UNL     1      -0.985  11.276  22.037  0.00  0.00    +0.000 A 
ATOM     15  C   UNL     1      -0.677  11.369  20.667  0.00  0.00    +0.000 A 
ATOM     16  C   UNL     1       0.132  10.330  20.152  0.00  0.00    +0.000 A 
BRANCH  15  17
ATOM     17  C   UNL     1      -1.224  12.570  19.721  0.00  0.00    +0.000 C 
ATOM     18  C   UNL     1      -0.972  14.053  20.099  0.00  0.00    +0.000 C 
ATOM     19  O   UNL     1      -0.421  14.330  18.783  0.00  0.00    +0.000 OA
ATOM     20  C   UNL     1      -0.283  12.912  18.539  0.00  0.00    +0.000 C 
BRANCH  17  21
ATOM     21  C   UNL     1      -2.703  12.353  19.332  0.00  0.00    +0.000 C 
ATOM     22  F   UNL     1      -3.397  11.833  20.386  0.00  0.00    +0.000 F 
BRANCH  21  23
ATOM     23  C   UNL     1      -2.850  11.459  18.137  0.00  0.00    +0.000 A 
ATOM     24  N   UNL     1      -1.959  10.609  17.678  0.00  0.00    +0.000 NA
ATOM     25  N   UNL     1      -2.423  10.089  16.493  0.00  0.00    +0.000 NA
ATOM     26  C   UNL     1      -3.605  10.605  16.279  0.00  0.00    +0.000 A 
ATOM     27  N   UNL     1      -3.943  11.424  17.313  0.00  0.00    +0.000 N 
ATOM     28  C   UNL     1      -5.209  12.082  17.494  0.00  0.00    +0.000 C 
ENDBRANCH  21  23
ENDBRANCH  17  21
ENDBRANCH  15  17
ENDBRANCH   8  11
BRANCH   5  29
ATOM     29  C   UNL     1       1.943   3.778  20.922  0.00  0.00    +0.000 C 
ATOM     30  F   UNL     1       0.593   3.623  21.013  0.00  0.00    +0.000 F 
ATOM     31  F   UNL     1       2.453   2.530  20.754  0.00  0.00    +0.000 F 
ATOM     32  F   UNL     1       2.348   4.192  22.155  0.00  0.00    +0.000 F 
ENDBRANCH   5  29
BRANCH   1  34
ATOM     33  C   UNL     1       4.464   3.049  16.679  0.00  0.00    +0.000 C 
ATOM     34  C   UNL     1       4.635   4.581  16.740  0.00  0.00    +0.000 C 
BRANCH  34  35
ATOM     35  N   UNL     1       6.044   4.975  16.955  0.00  0.00    +0.000 NA
ATOM     36  C   UNL     1       6.473   4.869  18.363  0.00  0.00    +0.000 C 
ATOM     37  C   UNL     1       7.664   5.823  18.474  0.00  0.00    +0.000 C 
ATOM     38  C   UNL     1       7.288   6.916  17.522  0.00  0.00    +0.000 C 
ATOM     39  C   UNL     1       8.289   7.969  17.091  0.00  0.00    +0.000 C 
ATOM     40  C   UNL     1       7.161   8.348  18.003  0.00  0.00    +0.000 C 
ATOM     41  C   UNL     1       6.231   6.398  16.586  0.00  0.00    +0.000 C 
ENDBRANCH  34  35
ENDBRANCH   1  34
TORSDOF 7
ENDMDL
MODEL 9
REMARK VINA RESULT:      -9.6      2.774      9.189
REMARK  Name = 
REMARK  9 active torsions:
REMARK  status: ('A' for Active; 'I' for Inactive)
REMARK    1  A    between atoms: C_1  and  C_2
REMARK    2  A    between atoms: C_2  and  C_3
REMARK    3  A    between atoms: C_2  and  N_35
REMARK    4  A    between atoms: C_7  and  C_8
REMARK    5  A    between atoms: N_14  and  C_15
REMARK    6  A    between atoms: C_19  and  C_20
REMARK    7  A    between atoms: C_20  and  C_21
REMARK    8  A    between atoms: C_21  and  C_23
REMARK    9  A    between atoms: N_27  and  C_28
REMARK                            x       y       z     vdW  Elec       q    Type
REMARK                         _______ _______ _______ _____ _____    ______ ____
ROOT
ATOM      1  C   UNL     1       3.249   4.887  17.743  0.00  0.00    +0.000 A 
ATOM      2  C   UNL     1       2.924   6.247  17.834  0.00  0.00    +0.000 A 
ATOM      3  C   UNL     1       2.283   6.678  18.982  0.00  0.00    +0.000 A 
ATOM      4  C   UNL     1       1.999   5.834  20.054  0.00  0.00    +0.000 A 
ATOM      5  C   UNL     1       2.281   4.479  19.985  0.00  0.00    +0.000 A 
ATOM      6  C   UNL     1       2.868   4.013  18.796  0.00  0.00    +0.000 A 
ATOM      7  C   UNL     1       1.391   6.618  21.168  0.00  0.00    +0.000 C 
ATOM      8  N   UNL     1       1.292   7.953  20.613  0.00  0.00    +0.000 N 
ATOM      9  C   UNL     1       1.797   8.023  19.315  0.00  0.00    +0.000 C 
ATOM     10  O   UNL     1       1.871   8.961  18.542  0.00  0.00    +0.000 OA
ENDROOT
BRANCH   8  11
ATOM     11  C   UNL     1       0.590   8.974  21.286  0.00  0.00    +0.000 A 
ATOM     12  C   UNL     1       0.378   8.905  22.658  0.00  0.00    +0.000 A 
ATOM     13  C   UNL     1      -0.291   9.931  23.311  0.00  0.00    +0.000 A 
ATOM     14  C   UNL     1      -0.793  11.015  22.587  0.00  0.00    +0.000 A 
ATOM     15  C   UNL     1      -0.618  11.135  21.196  0.00  0.00    +0.000 A 
ATOM     16  C   UNL     1       0.119  10.097  20.582  0.00  0.00    +0.000 A 
BRANCH  15  17
ATOM     17  C   UNL     1      -1.232  12.368  20.335  0.00  0.00    +0.000 C 
ATOM     18  C   UNL     1      -2.503  12.171  19.467  0.00  0.00    +0.000 C 
ATOM     19  O   UNL     1      -3.144  13.320  20.086  0.00  0.00    +0.000 OA
ATOM     20  C   UNL     1      -2.168  13.294  21.152  0.00  0.00    +0.000 C 
BRANCH  17  21
ATOM     21  C   UNL     1      -0.134  13.098  19.532  0.00  0.00    +0.000 C 
ATOM     22  F   UNL     1       0.595  12.201  18.806  0.00  0.00    +0.000 F 
BRANCH  21  23
ATOM     23  C   UNL     1       0.778  13.898  20.415  0.00  0.00    +0.000 A 
ATOM     24  N   UNL     1       1.466  13.451  21.441  0.00  0.00    +0.000 NA
ATOM     25  N   UNL     1       2.063  14.522  22.063  0.00  0.00    +0.000 NA
ATOM     26  C   UNL     1       1.756  15.591  21.376  0.00  0.00    +0.000 A 
ATOM     27  N   UNL     1       1.002  15.243  20.297  0.00  0.00    +0.000 N 
ATOM     28  C   UNL     1       0.566  16.125  19.248  0.00  0.00    +0.000 C 
ENDBRANCH  21  23
ENDBRANCH  17  21
ENDBRANCH  15  17
ENDBRANCH   8  11
BRANCH   5  29
ATOM     29  C   UNL     1       2.017   3.532  21.125  0.00  0.00    +0.000 C 
ATOM     30  F   UNL     1       2.661   2.337  21.001  0.00  0.00    +0.000 F 
ATOM     31  F   UNL     1       2.396   4.038  22.326  0.00  0.00    +0.000 F 
ATOM     32  F   UNL     1       0.696   3.224  21.239  0.00  0.00    +0.000 F 
ENDBRANCH   5  29
BRANCH   1  34
ATOM     33  C   UNL     1       4.533   2.892  16.978  0.00  0.00    +0.000 C 
ATOM     34  C   UNL     1       4.103   4.326  16.608  0.00  0.00    +0.000 C 
BRANCH  34  35
ATOM     35  N   UNL     1       5.253   5.166  16.207  0.00  0.00    +0.000 NA
ATOM     36  C   UNL     1       6.490   4.395  15.980  0.00  0.00    +0.000 C 
ATOM     37  C   UNL     1       7.616   5.414  16.162  0.00  0.00    +0.000 C 
ATOM     38  C   UNL     1       7.065   6.313  17.224  0.00  0.00    +0.000 C 
ATOM     39  C   UNL     1       7.720   7.640  17.556  0.00  0.00    +0.000 C 
ATOM     40  C   UNL     1       7.806   6.505  18.532  0.00  0.00    +0.000 C 
ATOM     41  C   UNL     1       5.574   6.128  17.287  0.00  0.00    +0.000 C 
ENDBRANCH  34  35
ENDBRANCH   1  34
TORSDOF 7
ENDMDL
