MODEL 1
REMARK VINA RESULT:      -9.0      0.000      0.000
REMARK  Name = 
REMARK  10 active torsions:
REMARK  status: ('A' for Active; 'I' for Inactive)
REMARK    1  A    between atoms: C_1  and  C_2
REMARK    2  A    between atoms: N_4  and  C_5
REMARK    3  A    between atoms: C_5  and  C_6
REMARK    4  A    between atoms: C_8  and  C_9
REMARK    5  A    between atoms: N_11  and  C_12
REMARK    6  A    between atoms: C_16  and  C_17
REMARK    7  A    between atoms: C_17  and  C_18
REMARK    8  A    between atoms: C_18  and  C_19
REMARK    9  A    between atoms: N_23  and  C_24
REMARK   10  A    between atoms: C_30  and  C_31
REMARK                            x       y       z     vdW  Elec       q    Type
REMARK                         _______ _______ _______ _____ _____    ______ ____
ROOT
ATOM      1  C   UNL     1       1.566   8.676  20.154  0.00  0.00    +0.000 C 
ATOM      2  O   UNL     1       1.411   8.903  21.344  0.00  0.00    +0.000 OA
ATOM      3  N   UNL     1       1.353   9.556  19.108  0.00  0.00    +0.000 N 
ATOM      4  H   UNL     1       1.391   9.153  18.174  0.00  0.00    +0.000 HD
ENDROOT
BRANCH   1   7
ATOM      5  C   UNL     1       3.168   5.846  18.324  0.00  0.00    +0.000 A 
ATOM      6  C   UNL     1       2.711   7.123  18.614  0.00  0.00    +0.000 A 
ATOM      7  C   UNL     1       1.921   7.293  19.739  0.00  0.00    +0.000 A 
ATOM      8  N   UNL     1       1.491   6.283  20.545  0.00  0.00    +0.000 NA
ATOM      9  C   UNL     1       1.829   5.022  20.189  0.00  0.00    +0.000 A 
ATOM     10  C   UNL     1       2.707   4.789  19.125  0.00  0.00    +0.000 A 
BRANCH   9  11
ATOM     11  C   UNL     1       1.241   3.858  20.952  0.00  0.00    +0.000 C 
ATOM     12  C   UNL     1       1.528   2.439  20.514  0.00  0.00    +0.000 C 
ATOM     13  C   UNL     1       2.150   2.963  21.772  0.00  0.00    +0.000 C 
ENDBRANCH   9  11
BRANCH   5  14
ATOM     14  C   UNL     1       4.168   5.624  17.214  0.00  0.00    +0.000 C 
BRANCH  14  18
ATOM     15  C   UNL     1       7.944   7.854  17.860  0.00  0.00    +0.000 C 
ATOM     16  C   UNL     1       6.946   6.915  17.201  0.00  0.00    +0.000 C 
ATOM     17  C   UNL     1       6.422   5.869  18.208  0.00  0.00    +0.000 C 
ATOM     18  N   UNL     1       5.419   4.956  17.614  0.00  0.00    +0.000 NA
ATOM     19  C   UNL     1       6.065   4.332  16.430  0.00  0.00    +0.000 C 
ATOM     20  C   UNL     1       6.679   5.349  15.444  0.00  0.00    +0.000 C 
ATOM     21  O   UNL     1       7.583   6.256  16.095  0.00  0.00    +0.000 OA
ENDBRANCH  14  18
ENDBRANCH   5  14
ENDBRANCH   1   7
BRANCH   3  22
ATOM     22  C   UNL     1       0.950  10.898  19.242  0.00  0.00    +0.000 A 
ATOM     23  C   UNL     1       1.749  11.967  18.840  0.00  0.00    +0.000 A 
ATOM     24  C   UNL     1       1.306  13.276  18.985  0.00  0.00    +0.000 A 
ATOM     25  C   UNL     1       0.064  13.525  19.563  0.00  0.00    +0.000 A 
ATOM     26  C   UNL     1      -0.764  12.480  20.024  0.00  0.00    +0.000 A 
ATOM     27  C   UNL     1      -0.301  11.163  19.807  0.00  0.00    +0.000 A 
BRANCH  26  28
ATOM     28  C   UNL     1      -2.134  12.772  20.796  0.00  0.00    +0.000 C 
ATOM     29  C   UNL     1      -2.796  14.176  20.651  0.00  0.00    +0.000 C 
ATOM     30  O   UNL     1      -4.098  13.556  20.432  0.00  0.00    +0.000 OA
ATOM     31  C   UNL     1      -3.420  12.342  20.021  0.00  0.00    +0.000 C 
BRANCH  28  32
ATOM     32  C   UNL     1      -2.090  12.259  22.250  0.00  0.00    +0.000 C 
BRANCH  32  33
ATOM     33  C   UNL     1      -1.869  13.338  23.265  0.00  0.00    +0.000 A 
ATOM     34  N   UNL     1      -0.713  13.908  23.553  0.00  0.00    +0.000 NA
ATOM     35  N   UNL     1      -0.922  14.848  24.532  0.00  0.00    +0.000 NA
ATOM     36  C   UNL     1      -2.201  14.844  24.823  0.00  0.00    +0.000 A 
ATOM     37  N   UNL     1      -2.835  13.922  24.045  0.00  0.00    +0.000 N 
ATOM     38  C   UNL     1      -4.250  13.663  24.068  0.00  0.00    +0.000 C 
ENDBRANCH  32  33
ENDBRANCH  28  32
ENDBRANCH  26  28
ENDBRANCH   3  22
TORSDOF 8
ENDMDL
MODEL 2
REMARK VINA RESULT:      -8.8      2.399      3.208
REMARK  Name = 
REMARK  10 active torsions:
REMARK  status: ('A' for Active; 'I' for Inactive)
REMARK    1  A    between atoms: C_1  and  C_2
REMARK    2  A    between atoms: N_4  and  C_5
REMARK    3  A    between atoms: C_5  and  C_6
REMARK    4  A    between atoms: C_8  and  C_9
REMARK    5  A    between atoms: N_11  and  C_12
REMARK    6  A    between atoms: C_16  and  C_17
REMARK    7  A    between atoms: C_17  and  C_18
REMARK    8  A    between atoms: C_18  and  C_19
REMARK    9  A    between atoms: N_23  and  C_24
REMARK   10  A    between atoms: C_30  and  C_31
REMARK                            x       y       z     vdW  Elec       q    Type
REMARK                         _______ _______ _______ _____ _____    ______ ____
ROOT
ATOM      1  C   UNL     1       1.545   8.406  19.980  0.00  0.00    +0.000 C 
ATOM      2  O   UNL     1       1.234   8.738  21.113  0.00  0.00    +0.000 OA
ATOM      3  N   UNL     1       1.358   9.138  18.821  0.00  0.00    +0.000 N 
ATOM      4  H   UNL     1       1.543   8.645  17.950  0.00  0.00    +0.000 HD
ENDROOT
BRANCH   1   7
ATOM      5  C   UNL     1       3.438   5.557  18.488  0.00  0.00    +0.000 A 
ATOM      6  C   UNL     1       2.798   6.783  18.606  0.00  0.00    +0.000 A 
ATOM      7  C   UNL     1       2.091   7.039  19.770  0.00  0.00    +0.000 A 
ATOM      8  N   UNL     1       1.909   6.145  20.779  0.00  0.00    +0.000 NA
ATOM      9  C   UNL     1       2.423   4.905  20.608  0.00  0.00    +0.000 A 
ATOM     10  C   UNL     1       3.233   4.612  19.506  0.00  0.00    +0.000 A 
BRANCH   9  11
ATOM     11  C   UNL     1       2.108   3.829  21.621  0.00  0.00    +0.000 C 
ATOM     12  C   UNL     1       1.230   2.658  21.239  0.00  0.00    +0.000 C 
ATOM     13  C   UNL     1       2.698   2.443  21.452  0.00  0.00    +0.000 C 
ENDBRANCH   9  11
BRANCH   5  14
ATOM     14  C   UNL     1       4.362   5.284  17.325  0.00  0.00    +0.000 C 
BRANCH  14  18
ATOM     15  C   UNL     1       7.851   7.986  17.729  0.00  0.00    +0.000 C 
ATOM     16  C   UNL     1       6.952   6.909  17.144  0.00  0.00    +0.000 C 
ATOM     17  C   UNL     1       6.607   5.841  18.204  0.00  0.00    +0.000 C 
ATOM     18  N   UNL     1       5.702   4.791  17.684  0.00  0.00    +0.000 NA
ATOM     19  C   UNL     1       6.370   4.212  16.489  0.00  0.00    +0.000 C 
ATOM     20  C   UNL     1       6.808   5.264  15.447  0.00  0.00    +0.000 C 
ATOM     21  O   UNL     1       7.618   6.298  16.029  0.00  0.00    +0.000 OA
ENDBRANCH  14  18
ENDBRANCH   5  14
ENDBRANCH   1   7
BRANCH   3  22
ATOM     22  C   UNL     1       0.800  10.428  18.754  0.00  0.00    +0.000 A 
ATOM     23  C   UNL     1      -0.531  10.654  18.407  0.00  0.00    +0.000 A 
ATOM     24  C   UNL     1      -1.041  11.946  18.360  0.00  0.00    +0.000 A 
ATOM     25  C   UNL     1      -0.208  13.028  18.633  0.00  0.00    +0.000 A 
ATOM     26  C   UNL     1       1.156  12.855  18.948  0.00  0.00    +0.000 A 
ATOM     27  C   UNL     1       1.620  11.524  19.040  0.00  0.00    +0.000 A 
BRANCH  26  28
ATOM     28  C   UNL     1       2.138  14.102  19.143  0.00  0.00    +0.000 C 
ATOM     29  C   UNL     1       3.123  14.473  17.993  0.00  0.00    +0.000 C 
ATOM     30  O   UNL     1       2.767  15.881  18.122  0.00  0.00    +0.000 OA
ATOM     31  C   UNL     1       1.521  15.482  18.745  0.00  0.00    +0.000 C 
BRANCH  28  32
ATOM     32  C   UNL     1       2.793  14.099  20.539  0.00  0.00    +0.000 C 
BRANCH  32  33
ATOM     33  C   UNL     1       2.028  14.875  21.567  0.00  0.00    +0.000 A 
ATOM     34  N   UNL     1       0.922  14.481  22.172  0.00  0.00    +0.000 NA
ATOM     35  N   UNL     1       0.528  15.467  23.044  0.00  0.00    +0.000 NA
ATOM     36  C   UNL     1       1.401  16.443  22.966  0.00  0.00    +0.000 A 
ATOM     37  N   UNL     1       2.364  16.110  22.061  0.00  0.00    +0.000 N 
ATOM     38  C   UNL     1       3.502  16.929  21.737  0.00  0.00    +0.000 C 
ENDBRANCH  32  33
ENDBRANCH  28  32
ENDBRANCH  26  28
ENDBRANCH   3  22
TORSDOF 8
ENDMDL
MODEL 3
REMARK VINA RESULT:      -8.7      1.686      2.360
REMARK  Name = 
REMARK  10 active torsions:
REMARK  status: ('A' for Active; 'I' for Inactive)
REMARK    1  A    between atoms: C_1  and  C_2
REMARK    2  A    between atoms: N_4  and  C_5
REMARK    3  A    between atoms: C_5  and  C_6
REMARK    4  A    between atoms: C_8  and  C_9
REMARK    5  A    between atoms: N_11  and  C_12
REMARK    6  A    between atoms: C_16  and  C_17
REMARK    7  A    between atoms: C_17  and  C_18
REMARK    8  A    between atoms: C_18  and  C_19
REMARK    9  A    between atoms: N_23  and  C_24
REMARK   10  A    between atoms: C_30  and  C_31
REMARK                            x       y       z     vdW  Elec       q    Type
REMARK                         _______ _______ _______ _____ _____    ______ ____
ROOT
ATOM      1  C   UNL     1       1.633   8.582  20.150  0.00  0.00    +0.000 C 
ATOM      2  O   UNL     1       1.438   8.818  21.333  0.00  0.00    +0.000 OA
ATOM      3  N   UNL     1       1.475   9.460  19.094  0.00  0.00    +0.000 N 
ATOM      4  H   UNL     1       1.540   9.052  18.164  0.00  0.00    +0.000 HD
ENDROOT
BRANCH   1   7
ATOM      5  C   UNL     1       3.199   5.714  18.349  0.00  0.00    +0.000 A 
ATOM      6  C   UNL     1       2.751   6.998  18.622  0.00  0.00    +0.000 A 
ATOM      7  C   UNL     1       1.977   7.190  19.756  0.00  0.00    +0.000 A 
ATOM      8  N   UNL     1       1.555   6.196  20.585  0.00  0.00    +0.000 NA
ATOM      9  C   UNL     1       1.885   4.928  20.246  0.00  0.00    +0.000 A 
ATOM     10  C   UNL     1       2.747   4.673  19.175  0.00  0.00    +0.000 A 
BRANCH   9  11
ATOM     11  C   UNL     1       1.304   3.780  21.039  0.00  0.00    +0.000 C 
ATOM     12  C   UNL     1       1.498   2.356  20.567  0.00  0.00    +0.000 C 
ATOM     13  C   UNL     1       2.230   2.837  21.782  0.00  0.00    +0.000 C 
ENDBRANCH   9  11
BRANCH   5  14
ATOM     14  C   UNL     1       4.183   5.469  17.229  0.00  0.00    +0.000 C 
BRANCH  14  18
ATOM     15  C   UNL     1       7.860   7.885  17.767  0.00  0.00    +0.000 C 
ATOM     16  C   UNL     1       6.899   6.883  17.147  0.00  0.00    +0.000 C 
ATOM     17  C   UNL     1       6.433   5.845  18.190  0.00  0.00    +0.000 C 
ATOM     18  N   UNL     1       5.466   4.871  17.635  0.00  0.00    +0.000 NA
ATOM     19  C   UNL     1       6.129   4.241  16.462  0.00  0.00    +0.000 C 
ATOM     20  C   UNL     1       6.687   5.255  15.440  0.00  0.00    +0.000 C 
ATOM     21  O   UNL     1       7.555   6.221  16.054  0.00  0.00    +0.000 OA
ENDBRANCH  14  18
ENDBRANCH   5  14
ENDBRANCH   1   7
BRANCH   3  22
ATOM     22  C   UNL     1       1.092  10.810  19.206  0.00  0.00    +0.000 A 
ATOM     23  C   UNL     1       1.709  11.829  18.483  0.00  0.00    +0.000 A 
ATOM     24  C   UNL     1       1.291  13.147  18.621  0.00  0.00    +0.000 A 
ATOM     25  C   UNL     1       0.268  13.459  19.511  0.00  0.00    +0.000 A 
ATOM     26  C   UNL     1      -0.360  12.469  20.297  0.00  0.00    +0.000 A 
ATOM     27  C   UNL     1       0.055  11.135  20.086  0.00  0.00    +0.000 A 
BRANCH  26  28
ATOM     28  C   UNL     1      -1.451  12.844  21.405  0.00  0.00    +0.000 C 
ATOM     29  C   UNL     1      -1.954  11.731  22.374  0.00  0.00    +0.000 C 
ATOM     30  O   UNL     1      -1.803  12.630  23.511  0.00  0.00    +0.000 OA
ATOM     31  C   UNL     1      -0.856  13.408  22.736  0.00  0.00    +0.000 C 
BRANCH  28  32
ATOM     32  C   UNL     1      -2.584  13.711  20.820  0.00  0.00    +0.000 C 
BRANCH  32  33
ATOM     33  C   UNL     1      -3.781  12.925  20.382  0.00  0.00    +0.000 A 
ATOM     34  N   UNL     1      -3.877  12.209  19.276  0.00  0.00    +0.000 NA
ATOM     35  N   UNL     1      -5.126  11.640  19.232  0.00  0.00    +0.000 NA
ATOM     36  C   UNL     1      -5.772  12.009  20.313  0.00  0.00    +0.000 A 
ATOM     37  N   UNL     1      -4.963  12.805  21.068  0.00  0.00    +0.000 N 
ATOM     38  C   UNL     1      -5.326  13.372  22.340  0.00  0.00    +0.000 C 
ENDBRANCH  32  33
ENDBRANCH  28  32
ENDBRANCH  26  28
ENDBRANCH   3  22
TORSDOF 8
ENDMDL
MODEL 4
REMARK VINA RESULT:      -8.6      0.670      1.238
REMARK  Name = 
REMARK  10 active torsions:
REMARK  status: ('A' for Active; 'I' for Inactive)
REMARK    1  A    between atoms: C_1  and  C_2
REMARK    2  A    between atoms: N_4  and  C_5
REMARK    3  A    between atoms: C_5  and  C_6
REMARK    4  A    between atoms: C_8  and  C_9
REMARK    5  A    between atoms: N_11  and  C_12
REMARK    6  A    between atoms: C_16  and  C_17
REMARK    7  A    between atoms: C_17  and  C_18
REMARK    8  A    between atoms: C_18  and  C_19
REMARK    9  A    between atoms: N_23  and  C_24
REMARK   10  A    between atoms: C_30  and  C_31
REMARK                            x       y       z     vdW  Elec       q    Type
REMARK                         _______ _______ _______ _____ _____    ______ ____
ROOT
ATOM      1  C   UNL     1       1.701   8.516  20.046  0.00  0.00    +0.000 C 
ATOM      2  O   UNL     1       1.657   8.798  21.233  0.00  0.00    +0.000 OA
ATOM      3  N   UNL     1       1.408   9.353  18.984  0.00  0.00    +0.000 N 
ATOM      4  H   UNL     1       1.355   8.910  18.070  0.00  0.00    +0.000 HD
ENDROOT
BRANCH   1   7
ATOM      5  C   UNL     1       3.141   5.577  18.253  0.00  0.00    +0.000 A 
ATOM      6  C   UNL     1       2.736   6.878  18.517  0.00  0.00    +0.000 A 
ATOM      7  C   UNL     1       1.994   7.109  19.664  0.00  0.00    +0.000 A 
ATOM      8  N   UNL     1       1.562   6.140  20.517  0.00  0.00    +0.000 NA
ATOM      9  C   UNL     1       1.846   4.858  20.191  0.00  0.00    +0.000 A 
ATOM     10  C   UNL     1       2.676   4.562  19.104  0.00  0.00    +0.000 A 
BRANCH   9  11
ATOM     11  C   UNL     1       1.250   3.739  21.013  0.00  0.00    +0.000 C 
ATOM     12  C   UNL     1       1.511   2.297  20.637  0.00  0.00    +0.000 C 
ATOM     13  C   UNL     1       2.154   2.869  21.863  0.00  0.00    +0.000 C 
ENDBRANCH   9  11
BRANCH   5  14
ATOM     14  C   UNL     1       4.091   5.287  17.116  0.00  0.00    +0.000 C 
BRANCH  14  18
ATOM     15  C   UNL     1       7.158   4.863  13.944  0.00  0.00    +0.000 C 
ATOM     16  C   UNL     1       6.553   4.880  15.339  0.00  0.00    +0.000 C 
ATOM     17  C   UNL     1       5.823   6.213  15.609  0.00  0.00    +0.000 C 
ATOM     18  N   UNL     1       5.187   6.256  16.945  0.00  0.00    +0.000 NA
ATOM     19  C   UNL     1       6.265   5.987  17.934  0.00  0.00    +0.000 C 
ATOM     20  C   UNL     1       7.074   4.705  17.643  0.00  0.00    +0.000 C 
ATOM     21  O   UNL     1       7.598   4.688  16.305  0.00  0.00    +0.000 OA
ENDBRANCH  14  18
ENDBRANCH   5  14
ENDBRANCH   1   7
BRANCH   3  22
ATOM     22  C   UNL     1       1.040  10.707  19.093  0.00  0.00    +0.000 A 
ATOM     23  C   UNL     1       1.839  11.745  18.614  0.00  0.00    +0.000 A 
ATOM     24  C   UNL     1       1.430  13.067  18.737  0.00  0.00    +0.000 A 
ATOM     25  C   UNL     1       0.226  13.363  19.370  0.00  0.00    +0.000 A 
ATOM     26  C   UNL     1      -0.598  12.352  19.908  0.00  0.00    +0.000 A 
ATOM     27  C   UNL     1      -0.174  11.019  19.712  0.00  0.00    +0.000 A 
BRANCH  26  28
ATOM     28  C   UNL     1      -1.920  12.700  20.738  0.00  0.00    +0.000 C 
ATOM     29  C   UNL     1      -2.531  14.129  20.618  0.00  0.00    +0.000 C 
ATOM     30  O   UNL     1      -3.865  13.562  20.458  0.00  0.00    +0.000 OA
ATOM     31  C   UNL     1      -3.256  12.322  20.021  0.00  0.00    +0.000 C 
BRANCH  28  32
ATOM     32  C   UNL     1      -1.833  12.187  22.190  0.00  0.00    +0.000 C 
BRANCH  32  33
ATOM     33  C   UNL     1      -1.728  13.278  23.212  0.00  0.00    +0.000 A 
ATOM     34  N   UNL     1      -0.634  13.949  23.520  0.00  0.00    +0.000 NA
ATOM     35  N   UNL     1      -0.944  14.863  24.498  0.00  0.00    +0.000 NA
ATOM     36  C   UNL     1      -2.223  14.741  24.767  0.00  0.00    +0.000 A 
ATOM     37  N   UNL     1      -2.756  13.768  23.976  0.00  0.00    +0.000 N 
ATOM     38  C   UNL     1      -4.142  13.380  23.975  0.00  0.00    +0.000 C 
ENDBRANCH  32  33
ENDBRANCH  28  32
ENDBRANCH  26  28
ENDBRANCH   3  22
TORSDOF 8
ENDMDL
MODEL 5
REMARK VINA RESULT:      -8.5      2.257      3.407
REMARK  Name = 
REMARK  10 active torsions:
REMARK  status: ('A' for Active; 'I' for Inactive)
REMARK    1  A    between atoms: C_1  and  C_2
REMARK    2  A    between atoms: N_4  and  C_5
REMARK    3  A    between atoms: C_5  and  C_6
REMARK    4  A    between atoms: C_8  and  C_9
REMARK    5  A    between atoms: N_11  and  C_12
REMARK    6  A    between atoms: C_16  and  C_17
REMARK    7  A    between atoms: C_17  and  C_18
REMARK    8  A    between atoms: C_18  and  C_19
REMARK    9  A    between atoms: N_23  and  C_24
REMARK   10  A    between atoms: C_30  and  C_31
REMARK                            x       y       z     vdW  Elec       q    Type
REMARK                         _______ _______ _______ _____ _____    ______ ____
ROOT
ATOM      1  C   UNL     1       1.443   8.572  20.307  0.00  0.00    +0.000 C 
ATOM      2  O   UNL     1       1.451   8.835  21.499  0.00  0.00    +0.000 OA
ATOM      3  N   UNL     1       0.976   9.378  19.284  0.00  0.00    +0.000 N 
ATOM      4  H   UNL     1       0.911   8.940  18.368  0.00  0.00    +0.000 HD
ENDROOT
BRANCH   1   7
ATOM      5  C   UNL     1       3.216   5.857  18.460  0.00  0.00    +0.000 A 
ATOM      6  C   UNL     1       2.686   7.104  18.760  0.00  0.00    +0.000 A 
ATOM      7  C   UNL     1       1.877   7.216  19.880  0.00  0.00    +0.000 A 
ATOM      8  N   UNL     1       1.496   6.174  20.668  0.00  0.00    +0.000 NA
ATOM      9  C   UNL     1       1.907   4.937  20.301  0.00  0.00    +0.000 A 
ATOM     10  C   UNL     1       2.807   4.767  19.244  0.00  0.00    +0.000 A 
BRANCH   9  11
ATOM     11  C   UNL     1       1.378   3.733  21.045  0.00  0.00    +0.000 C 
ATOM     12  C   UNL     1       1.535   2.348  20.458  0.00  0.00    +0.000 C 
ATOM     13  C   UNL     1       2.348   2.741  21.654  0.00  0.00    +0.000 C 
ENDBRANCH   9  11
BRANCH   5  14
ATOM     14  C   UNL     1       4.237   5.705  17.358  0.00  0.00    +0.000 C 
BRANCH  14  18
ATOM     15  C   UNL     1       8.014   7.972  17.845  0.00  0.00    +0.000 C 
ATOM     16  C   UNL     1       7.007   7.008  17.240  0.00  0.00    +0.000 C 
ATOM     17  C   UNL     1       6.511   5.993  18.292  0.00  0.00    +0.000 C 
ATOM     18  N   UNL     1       5.500   5.057  17.751  0.00  0.00    +0.000 NA
ATOM     19  C   UNL     1       6.123   4.397  16.574  0.00  0.00    +0.000 C 
ATOM     20  C   UNL     1       6.710   5.383  15.541  0.00  0.00    +0.000 C 
ATOM     21  O   UNL     1       7.623   6.316  16.142  0.00  0.00    +0.000 OA
ENDBRANCH  14  18
ENDBRANCH   5  14
ENDBRANCH   1   7
BRANCH   3  22
ATOM     22  C   UNL     1       0.454  10.675  19.443  0.00  0.00    +0.000 A 
ATOM     23  C   UNL     1      -0.913  10.930  19.535  0.00  0.00    +0.000 A 
ATOM     24  C   UNL     1      -1.382  12.227  19.698  0.00  0.00    +0.000 A 
ATOM     25  C   UNL     1      -0.482  13.288  19.742  0.00  0.00    +0.000 A 
ATOM     26  C   UNL     1       0.909  13.087  19.612  0.00  0.00    +0.000 A 
ATOM     27  C   UNL     1       1.348  11.749  19.504  0.00  0.00    +0.000 A 
BRANCH  26  28
ATOM     28  C   UNL     1       1.931  14.315  19.542  0.00  0.00    +0.000 C 
ATOM     29  C   UNL     1       3.378  14.123  20.090  0.00  0.00    +0.000 C 
ATOM     30  O   UNL     1       3.930  14.762  18.901  0.00  0.00    +0.000 OA
ATOM     31  C   UNL     1       2.709  14.435  18.192  0.00  0.00    +0.000 C 
BRANCH  28  32
ATOM     32  C   UNL     1       1.271  15.634  19.993  0.00  0.00    +0.000 C 
BRANCH  32  33
ATOM     33  C   UNL     1       1.668  16.069  21.370  0.00  0.00    +0.000 A 
ATOM     34  N   UNL     1       1.232  15.549  22.503  0.00  0.00    +0.000 NA
ATOM     35  N   UNL     1       1.828  16.216  23.546  0.00  0.00    +0.000 NA
ATOM     36  C   UNL     1       2.622  17.127  23.036  0.00  0.00    +0.000 A 
ATOM     37  N   UNL     1       2.563  17.062  21.676  0.00  0.00    +0.000 N 
ATOM     38  C   UNL     1       3.326  17.892  20.781  0.00  0.00    +0.000 C 
ENDBRANCH  32  33
ENDBRANCH  28  32
ENDBRANCH  26  28
ENDBRANCH   3  22
TORSDOF 8
ENDMDL
MODEL 6
REMARK VINA RESULT:      -8.5      2.330      3.361
REMARK  Name = 
REMARK  10 active torsions:
REMARK  status: ('A' for Active; 'I' for Inactive)
REMARK    1  A    between atoms: C_1  and  C_2
REMARK    2  A    between atoms: N_4  and  C_5
REMARK    3  A    between atoms: C_5  and  C_6
REMARK    4  A    between atoms: C_8  and  C_9
REMARK    5  A    between atoms: N_11  and  C_12
REMARK    6  A    between atoms: C_16  and  C_17
REMARK    7  A    between atoms: C_17  and  C_18
REMARK    8  A    between atoms: C_18  and  C_19
REMARK    9  A    between atoms: N_23  and  C_24
REMARK   10  A    between atoms: C_30  and  C_31
REMARK                            x       y       z     vdW  Elec       q    Type
REMARK                         _______ _______ _______ _____ _____    ______ ____
ROOT
ATOM      1  C   UNL     1       1.752   7.774  19.676  0.00  0.00    +0.000 C 
ATOM      2  O   UNL     1       1.949   8.676  18.878  0.00  0.00    +0.000 OA
ATOM      3  N   UNL     1       1.109   7.874  20.897  0.00  0.00    +0.000 N 
ATOM      4  H   UNL     1       1.164   7.054  21.496  0.00  0.00    +0.000 HD
ENDROOT
BRANCH   1   7
ATOM      5  C   UNL     1       3.641   5.044  17.972  0.00  0.00    +0.000 A 
ATOM      6  C   UNL     1       2.962   6.238  18.170  0.00  0.00    +0.000 A 
ATOM      7  C   UNL     1       2.336   6.437  19.390  0.00  0.00    +0.000 A 
ATOM      8  N   UNL     1       2.270   5.513  20.388  0.00  0.00    +0.000 NA
ATOM      9  C   UNL     1       2.821   4.301  20.145  0.00  0.00    +0.000 A 
ATOM     10  C   UNL     1       3.555   4.068  18.977  0.00  0.00    +0.000 A 
BRANCH   9  11
ATOM     11  C   UNL     1       2.630   3.190  21.152  0.00  0.00    +0.000 C 
ATOM     12  C   UNL     1       1.296   3.010  21.841  0.00  0.00    +0.000 C 
ATOM     13  C   UNL     1       1.736   2.014  20.811  0.00  0.00    +0.000 C 
ENDBRANCH   9  11
BRANCH   5  14
ATOM     14  C   UNL     1       4.483   4.838  16.735  0.00  0.00    +0.000 C 
BRANCH  14  18
ATOM     15  C   UNL     1       7.935   7.349  17.927  0.00  0.00    +0.000 C 
ATOM     16  C   UNL     1       7.057   6.467  17.053  0.00  0.00    +0.000 C 
ATOM     17  C   UNL     1       6.708   5.147  17.774  0.00  0.00    +0.000 C 
ATOM     18  N   UNL     1       5.823   4.274  16.970  0.00  0.00    +0.000 NA
ATOM     19  C   UNL     1       6.516   4.050  15.673  0.00  0.00    +0.000 C 
ATOM     20  C   UNL     1       6.958   5.350  14.967  0.00  0.00    +0.000 C 
ATOM     21  O   UNL     1       7.747   6.190  15.825  0.00  0.00    +0.000 OA
ENDBRANCH  14  18
ENDBRANCH   5  14
ENDBRANCH   1   7
BRANCH   3  22
ATOM     22  C   UNL     1       0.531   9.046  21.419  0.00  0.00    +0.000 A 
ATOM     23  C   UNL     1      -0.161   9.068  22.629  0.00  0.00    +0.000 A 
ATOM     24  C   UNL     1      -0.709  10.251  23.110  0.00  0.00    +0.000 A 
ATOM     25  C   UNL     1      -0.593  11.421  22.363  0.00  0.00    +0.000 A 
ATOM     26  C   UNL     1       0.061  11.442  21.113  0.00  0.00    +0.000 A 
ATOM     27  C   UNL     1       0.652  10.231  20.687  0.00  0.00    +0.000 A 
BRANCH  26  28
ATOM     28  C   UNL     1       0.088  12.756  20.202  0.00  0.00    +0.000 C 
ATOM     29  C   UNL     1       0.754  12.683  18.794  0.00  0.00    +0.000 C 
ATOM     30  O   UNL     1      -0.378  13.389  18.205  0.00  0.00    +0.000 OA
ATOM     31  C   UNL     1      -1.191  12.968  19.329  0.00  0.00    +0.000 C 
BRANCH  28  32
ATOM     32  C   UNL     1       0.495  14.003  21.012  0.00  0.00    +0.000 C 
BRANCH  32  33
ATOM     33  C   UNL     1       1.957  14.322  20.938  0.00  0.00    +0.000 A 
ATOM     34  N   UNL     1       2.926  13.665  21.549  0.00  0.00    +0.000 NA
ATOM     35  N   UNL     1       4.123  14.260  21.233  0.00  0.00    +0.000 NA
ATOM     36  C   UNL     1       3.869  15.265  20.429  0.00  0.00    +0.000 A 
ATOM     37  N   UNL     1       2.526  15.334  20.208  0.00  0.00    +0.000 N 
ATOM     38  C   UNL     1       1.884  16.295  19.351  0.00  0.00    +0.000 C 
ENDBRANCH  32  33
ENDBRANCH  28  32
ENDBRANCH  26  28
ENDBRANCH   3  22
TORSDOF 8
ENDMDL
MODEL 7
REMARK VINA RESULT:      -8.4      2.406      3.579
REMARK  Name = 
REMARK  10 active torsions:
REMARK  status: ('A' for Active; 'I' for Inactive)
REMARK    1  A    between atoms: C_1  and  C_2
REMARK    2  A    between atoms: N_4  and  C_5
REMARK    3  A    between atoms: C_5  and  C_6
REMARK    4  A    between atoms: C_8  and  C_9
REMARK    5  A    between atoms: N_11  and  C_12
REMARK    6  A    between atoms: C_16  and  C_17
REMARK    7  A    between atoms: C_17  and  C_18
REMARK    8  A    between atoms: C_18  and  C_19
REMARK    9  A    between atoms: N_23  and  C_24
REMARK   10  A    between atoms: C_30  and  C_31
REMARK                            x       y       z     vdW  Elec       q    Type
REMARK                         _______ _______ _______ _____ _____    ______ ____
ROOT
ATOM      1  C   UNL     1       1.610   7.936  19.889  0.00  0.00    +0.000 C 
ATOM      2  O   UNL     1       1.773   8.798  19.040  0.00  0.00    +0.000 OA
ATOM      3  N   UNL     1       1.011   8.094  21.126  0.00  0.00    +0.000 N 
ATOM      4  H   UNL     1       1.093   7.304  21.763  0.00  0.00    +0.000 HD
ENDROOT
BRANCH   1   7
ATOM      5  C   UNL     1       3.467   5.137  18.263  0.00  0.00    +0.000 A 
ATOM      6  C   UNL     1       2.791   6.338  18.424  0.00  0.00    +0.000 A 
ATOM      7  C   UNL     1       2.190   6.588  19.647  0.00  0.00    +0.000 A 
ATOM      8  N   UNL     1       2.146   5.708  20.684  0.00  0.00    +0.000 NA
ATOM      9  C   UNL     1       2.693   4.486  20.482  0.00  0.00    +0.000 A 
ATOM     10  C   UNL     1       3.403   4.205  19.310  0.00  0.00    +0.000 A 
BRANCH   9  11
ATOM     11  C   UNL     1       2.525   3.419  21.539  0.00  0.00    +0.000 C 
ATOM     12  C   UNL     1       1.158   2.839  21.822  0.00  0.00    +0.000 C 
ATOM     13  C   UNL     1       2.185   2.001  21.125  0.00  0.00    +0.000 C 
ENDBRANCH   9  11
BRANCH   5  14
ATOM     14  C   UNL     1       4.283   4.880  17.018  0.00  0.00    +0.000 C 
BRANCH  14  18
ATOM     15  C   UNL     1       7.041   4.515  13.568  0.00  0.00    +0.000 C 
ATOM     16  C   UNL     1       6.582   4.585  15.016  0.00  0.00    +0.000 C 
ATOM     17  C   UNL     1       5.739   5.853  15.269  0.00  0.00    +0.000 C 
ATOM     18  N   UNL     1       5.241   5.940  16.660  0.00  0.00    +0.000 NA
ATOM     19  C   UNL     1       6.436   5.866  17.541  0.00  0.00    +0.000 C 
ATOM     20  C   UNL     1       7.351   4.655  17.255  0.00  0.00    +0.000 C 
ATOM     21  O   UNL     1       7.735   4.582  15.873  0.00  0.00    +0.000 OA
ENDBRANCH  14  18
ENDBRANCH   5  14
ENDBRANCH   1   7
BRANCH   3  22
ATOM     22  C   UNL     1       0.447   9.289  21.611  0.00  0.00    +0.000 A 
ATOM     23  C   UNL     1      -0.465   9.315  22.665  0.00  0.00    +0.000 A 
ATOM     24  C   UNL     1      -0.991  10.520  23.115  0.00  0.00    +0.000 A 
ATOM     25  C   UNL     1      -0.628  11.710  22.491  0.00  0.00    +0.000 A 
ATOM     26  C   UNL     1       0.259  11.732  21.394  0.00  0.00    +0.000 A 
ATOM     27  C   UNL     1       0.815  10.493  21.003  0.00  0.00    +0.000 A 
BRANCH  26  28
ATOM     28  C   UNL     1       0.582  13.084  20.602  0.00  0.00    +0.000 C 
ATOM     29  C   UNL     1       1.568  14.111  21.236  0.00  0.00    +0.000 C 
ATOM     30  O   UNL     1       2.259  14.259  19.960  0.00  0.00    +0.000 OA
ATOM     31  C   UNL     1       1.742  12.965  19.561  0.00  0.00    +0.000 C 
BRANCH  28  32
ATOM     32  C   UNL     1      -0.696  13.728  20.029  0.00  0.00    +0.000 C 
BRANCH  32  33
ATOM     33  C   UNL     1      -1.521  12.797  19.195  0.00  0.00    +0.000 A 
ATOM     34  N   UNL     1      -1.141  12.221  18.069  0.00  0.00    +0.000 NA
ATOM     35  N   UNL     1      -2.174  11.442  17.608  0.00  0.00    +0.000 NA
ATOM     36  C   UNL     1      -3.166  11.548  18.460  0.00  0.00    +0.000 A 
ATOM     37  N   UNL     1      -2.797  12.377  19.476  0.00  0.00    +0.000 N 
ATOM     38  C   UNL     1      -3.622  12.704  20.609  0.00  0.00    +0.000 C 
ENDBRANCH  32  33
ENDBRANCH  28  32
ENDBRANCH  26  28
ENDBRANCH   3  22
TORSDOF 8
ENDMDL
MODEL 8
REMARK VINA RESULT:      -8.4      1.782      2.618
REMARK  Name = 
REMARK  10 active torsions:
REMARK  status: ('A' for Active; 'I' for Inactive)
REMARK    1  A    between atoms: C_1  and  C_2
REMARK    2  A    between atoms: N_4  and  C_5
REMARK    3  A    between atoms: C_5  and  C_6
REMARK    4  A    between atoms: C_8  and  C_9
REMARK    5  A    between atoms: N_11  and  C_12
REMARK    6  A    between atoms: C_16  and  C_17
REMARK    7  A    between atoms: C_17  and  C_18
REMARK    8  A    between atoms: C_18  and  C_19
REMARK    9  A    between atoms: N_23  and  C_24
REMARK   10  A    between atoms: C_30  and  C_31
REMARK                            x       y       z     vdW  Elec       q    Type
REMARK                         _______ _______ _______ _____ _____    ______ ____
ROOT
ATOM      1  C   UNL     1       1.531   8.518  19.834  0.00  0.00    +0.000 C 
ATOM      2  O   UNL     1       1.449   8.954  20.972  0.00  0.00    +0.000 OA
ATOM      3  N   UNL     1       1.082   9.131  18.678  0.00  0.00    +0.000 N 
ATOM      4  H   UNL     1       1.101   8.559  17.837  0.00  0.00    +0.000 HD
ENDROOT
BRANCH   1   7
ATOM      5  C   UNL     1       3.428   5.647  18.390  0.00  0.00    +0.000 A 
ATOM      6  C   UNL     1       2.796   6.878  18.491  0.00  0.00    +0.000 A 
ATOM      7  C   UNL     1       2.070   7.146  19.641  0.00  0.00    +0.000 A 
ATOM      8  N   UNL     1       1.865   6.259  20.652  0.00  0.00    +0.000 NA
ATOM      9  C   UNL     1       2.373   5.014  20.496  0.00  0.00    +0.000 A 
ATOM     10  C   UNL     1       3.199   4.709  19.410  0.00  0.00    +0.000 A 
BRANCH   9  11
ATOM     11  C   UNL     1       2.033   3.947  21.510  0.00  0.00    +0.000 C 
ATOM     12  C   UNL     1       1.188   2.758  21.108  0.00  0.00    +0.000 C 
ATOM     13  C   UNL     1       2.649   2.567  21.383  0.00  0.00    +0.000 C 
ENDBRANCH   9  11
BRANCH   5  14
ATOM     14  C   UNL     1       4.370   5.362  17.245  0.00  0.00    +0.000 C 
BRANCH  14  18
ATOM     15  C   UNL     1       7.865   8.040  17.744  0.00  0.00    +0.000 C 
ATOM     16  C   UNL     1       6.972   6.972  17.132  0.00  0.00    +0.000 C 
ATOM     17  C   UNL     1       6.599   5.899  18.176  0.00  0.00    +0.000 C 
ATOM     18  N   UNL     1       5.699   4.858  17.629  0.00  0.00    +0.000 NA
ATOM     19  C   UNL     1       6.389   4.284  16.445  0.00  0.00    +0.000 C 
ATOM     20  C   UNL     1       6.856   5.340  15.420  0.00  0.00    +0.000 C 
ATOM     21  O   UNL     1       7.659   6.365  16.027  0.00  0.00    +0.000 OA
ENDBRANCH  14  18
ENDBRANCH   5  14
ENDBRANCH   1   7
BRANCH   3  22
ATOM     22  C   UNL     1       0.476  10.399  18.611  0.00  0.00    +0.000 A 
ATOM     23  C   UNL     1      -0.809  10.592  18.105  0.00  0.00    +0.000 A 
ATOM     24  C   UNL     1      -1.370  11.863  18.065  0.00  0.00    +0.000 A 
ATOM     25  C   UNL     1      -0.633  12.959  18.506  0.00  0.00    +0.000 A 
ATOM     26  C   UNL     1       0.687  12.821  18.987  0.00  0.00    +0.000 A 
ATOM     27  C   UNL     1       1.199  11.507  19.063  0.00  0.00    +0.000 A 
BRANCH  26  28
ATOM     28  C   UNL     1       1.574  14.093  19.379  0.00  0.00    +0.000 C 
ATOM     29  C   UNL     1       2.930  14.321  18.644  0.00  0.00    +0.000 C 
ATOM     30  O   UNL     1       2.609  15.730  18.455  0.00  0.00    +0.000 OA
ATOM     31  C   UNL     1       1.205  15.403  18.612  0.00  0.00    +0.000 C 
BRANCH  28  32
ATOM     32  C   UNL     1       1.662  14.277  20.907  0.00  0.00    +0.000 C 
BRANCH  32  33
ATOM     33  C   UNL     1       0.395  13.938  21.631  0.00  0.00    +0.000 A 
ATOM     34  N   UNL     1       0.135  12.799  22.246  0.00  0.00    +0.000 NA
ATOM     35  N   UNL     1      -1.126  12.875  22.788  0.00  0.00    +0.000 NA
ATOM     36  C   UNL     1      -1.612  14.059  22.503  0.00  0.00    +0.000 A 
ATOM     37  N   UNL     1      -0.689  14.763  21.790  0.00  0.00    +0.000 N 
ATOM     38  C   UNL     1      -0.865  16.116  21.330  0.00  0.00    +0.000 C 
ENDBRANCH  32  33
ENDBRANCH  28  32
ENDBRANCH  26  28
ENDBRANCH   3  22
TORSDOF 8
ENDMDL
MODEL 9
REMARK VINA RESULT:      -8.4      0.890      1.089
REMARK  Name = 
REMARK  10 active torsions:
REMARK  status: ('A' for Active; 'I' for Inactive)
REMARK    1  A    between atoms: C_1  and  C_2
REMARK    2  A    between atoms: N_4  and  C_5
REMARK    3  A    between atoms: C_5  and  C_6
REMARK    4  A    between atoms: C_8  and  C_9
REMARK    5  A    between atoms: N_11  and  C_12
REMARK    6  A    between atoms: C_16  and  C_17
REMARK    7  A    between atoms: C_17  and  C_18
REMARK    8  A    between atoms: C_18  and  C_19
REMARK    9  A    between atoms: N_23  and  C_24
REMARK   10  A    between atoms: C_30  and  C_31
REMARK                            x       y       z     vdW  Elec       q    Type
REMARK                         _______ _______ _______ _____ _____    ______ ____
ROOT
ATOM      1  C   UNL     1       1.780   8.677  19.816  0.00  0.00    +0.000 C 
ATOM      2  O   UNL     1       1.631   8.977  20.991  0.00  0.00    +0.000 OA
ATOM      3  N   UNL     1       1.626   9.511  18.723  0.00  0.00    +0.000 N 
ATOM      4  H   UNL     1       1.645   9.056  17.812  0.00  0.00    +0.000 HD
ENDROOT
BRANCH   1   7
ATOM      5  C   UNL     1       3.203   5.664  18.138  0.00  0.00    +0.000 A 
ATOM      6  C   UNL     1       2.818   6.979  18.357  0.00  0.00    +0.000 A 
ATOM      7  C   UNL     1       2.054   7.255  19.480  0.00  0.00    +0.000 A 
ATOM      8  N   UNL     1       1.583   6.319  20.348  0.00  0.00    +0.000 NA
ATOM      9  C   UNL     1       1.849   5.022  20.063  0.00  0.00    +0.000 A 
ATOM     10  C   UNL     1       2.698   4.681  19.005  0.00  0.00    +0.000 A 
BRANCH   9  11
ATOM     11  C   UNL     1       1.211   3.938  20.900  0.00  0.00    +0.000 C 
ATOM     12  C   UNL     1       1.529   2.484  20.630  0.00  0.00    +0.000 C 
ATOM     13  C   UNL     1       2.062   3.139  21.868  0.00  0.00    +0.000 C 
ENDBRANCH   9  11
BRANCH   5  14
ATOM     14  C   UNL     1       4.174   5.324  17.032  0.00  0.00    +0.000 C 
BRANCH  14  18
ATOM     15  C   UNL     1       7.832   7.685  17.861  0.00  0.00    +0.000 C 
ATOM     16  C   UNL     1       6.897   6.721  17.148  0.00  0.00    +0.000 C 
ATOM     17  C   UNL     1       6.377   5.637  18.115  0.00  0.00    +0.000 C 
ATOM     18  N   UNL     1       5.434   4.698  17.468  0.00  0.00    +0.000 NA
ATOM     19  C   UNL     1       6.148   4.122  16.298  0.00  0.00    +0.000 C 
ATOM     20  C   UNL     1       6.758   5.181  15.354  0.00  0.00    +0.000 C 
ATOM     21  O   UNL     1       7.600   6.110  16.055  0.00  0.00    +0.000 OA
ENDBRANCH  14  18
ENDBRANCH   5  14
ENDBRANCH   1   7
BRANCH   3  22
ATOM     22  C   UNL     1       1.302  10.879  18.781  0.00  0.00    +0.000 A 
ATOM     23  C   UNL     1       2.135  11.871  18.267  0.00  0.00    +0.000 A 
ATOM     24  C   UNL     1       1.770  13.210  18.340  0.00  0.00    +0.000 A 
ATOM     25  C   UNL     1       0.575  13.568  18.958  0.00  0.00    +0.000 A 
ATOM     26  C   UNL     1      -0.283  12.605  19.530  0.00  0.00    +0.000 A 
ATOM     27  C   UNL     1       0.097  11.252  19.385  0.00  0.00    +0.000 A 
BRANCH  26  28
ATOM     28  C   UNL     1      -1.594  13.026  20.344  0.00  0.00    +0.000 C 
ATOM     29  C   UNL     1      -2.969  12.424  19.922  0.00  0.00    +0.000 C 
ATOM     30  O   UNL     1      -3.288  12.138  21.315  0.00  0.00    +0.000 OA
ATOM     31  C   UNL     1      -1.871  12.165  21.618  0.00  0.00    +0.000 C 
BRANCH  28  32
ATOM     32  C   UNL     1      -1.640  14.546  20.604  0.00  0.00    +0.000 C 
BRANCH  32  33
ATOM     33  C   UNL     1      -1.253  14.932  21.999  0.00  0.00    +0.000 A 
ATOM     34  N   UNL     1      -0.021  15.020  22.466  0.00  0.00    +0.000 NA
ATOM     35  N   UNL     1      -0.081  15.402  23.784  0.00  0.00    +0.000 NA
ATOM     36  C   UNL     1      -1.346  15.549  24.100  0.00  0.00    +0.000 A 
ATOM     37  N   UNL     1      -2.115  15.276  23.009  0.00  0.00    +0.000 N 
ATOM     38  C   UNL     1      -3.551  15.363  22.975  0.00  0.00    +0.000 C 
ENDBRANCH  32  33
ENDBRANCH  28  32
ENDBRANCH  26  28
ENDBRANCH   3  22
TORSDOF 8
ENDMDL
