MODEL 1
REMARK VINA RESULT:      -9.9      0.000      0.000
REMARK  Name = 
REMARK  7 active torsions:
REMARK  status: ('A' for Active; 'I' for Inactive)
REMARK    1  A    between atoms: C_1  and  N_2
REMARK    2  A    between atoms: C_6  and  C_7
REMARK    3  A    between atoms: C_7  and  C_8
REMARK    4  A    between atoms: C_8  and  C_9
REMARK    5  A    between atoms: C_13  and  N_14
REMARK    6  A    between atoms: C_19  and  C_20
REMARK    7  A    between atoms: C_27  and  C_28
REMARK                            x       y       z     vdW  Elec       q    Type
REMARK                         _______ _______ _______ _____ _____    ______ ____
ROOT
ATOM      1  N   UNL     1       1.134   8.628  20.523  0.00  0.00    +0.000 N 
ATOM      2  C   UNL     1       1.359   7.253  20.926  0.00  0.00    +0.000 C 
ATOM      3  C   UNL     1       2.143   6.669  19.816  0.00  0.00    +0.000 A 
ATOM      4  C   UNL     1       2.457   7.661  18.894  0.00  0.00    +0.000 A 
ATOM      5  C   UNL     1       3.239   7.379  17.787  0.00  0.00    +0.000 A 
ATOM      6  C   UNL     1       3.715   6.061  17.624  0.00  0.00    +0.000 A 
ATOM      7  C   UNL     1       3.339   5.060  18.549  0.00  0.00    +0.000 A 
ATOM      8  C   UNL     1       2.538   5.347  19.663  0.00  0.00    +0.000 A 
ATOM      9  C   UNL     1       1.794   8.919  19.325  0.00  0.00    +0.000 C 
ATOM     10  O   UNL     1       1.850   9.955  18.684  0.00  0.00    +0.000 OA
ENDROOT
BRANCH   1  15
ATOM     11  C   UNL     1      -1.262  11.412  21.290  0.00  0.00    +0.000 A 
ATOM     12  C   UNL     1      -1.392  11.244  22.676  0.00  0.00    +0.000 A 
ATOM     13  C   UNL     1      -0.731  10.206  23.355  0.00  0.00    +0.000 A 
ATOM     14  C   UNL     1       0.102   9.309  22.671  0.00  0.00    +0.000 A 
ATOM     15  C   UNL     1       0.270   9.439  21.301  0.00  0.00    +0.000 A 
ATOM     16  C   UNL     1      -0.437  10.471  20.652  0.00  0.00    +0.000 A 
BRANCH  11  17
ATOM     17  C   UNL     1      -1.984  12.571  20.423  0.00  0.00    +0.000 C 
ATOM     18  C   UNL     1      -3.523  12.673  20.600  0.00  0.00    +0.000 C 
ATOM     19  O   UNL     1      -3.773  12.391  19.210  0.00  0.00    +0.000 OA
ATOM     20  C   UNL     1      -2.364  12.239  18.946  0.00  0.00    +0.000 C 
BRANCH  17  21
ATOM     21  C   UNL     1      -1.261  13.934  20.577  0.00  0.00    +0.000 C 
BRANCH  21  27
ATOM     22  C   UNL     1       0.950  13.334  18.384  0.00  0.00    +0.000 C 
ATOM     23  N   UNL     1       1.156  13.585  19.786  0.00  0.00    +0.000 N 
ATOM     24  C   UNL     1       2.374  13.578  20.405  0.00  0.00    +0.000 A 
ATOM     25  N   UNL     1       2.210  13.798  21.687  0.00  0.00    +0.000 NA
ATOM     26  N   UNL     1       0.867  13.938  21.917  0.00  0.00    +0.000 NA
ATOM     27  C   UNL     1       0.227  13.842  20.767  0.00  0.00    +0.000 A 
ENDBRANCH  21  27
ENDBRANCH  17  21
ENDBRANCH  11  17
ENDBRANCH   1  15
BRANCH   6  28
ATOM     28  C   UNL     1       4.635   5.664  16.483  0.00  0.00    +0.000 C 
ATOM     29  C   UNL     1       4.774   4.138  16.363  0.00  0.00    +0.000 C 
ATOM     30  C   UNL     1       5.781   3.770  15.278  0.00  0.00    +0.000 C 
ATOM     31  C   UNL     1       7.083   4.534  15.477  0.00  0.00    +0.000 C 
ATOM     32  O   UNL     1       6.842   5.941  15.476  0.00  0.00    +0.000 OA
ATOM     33  C   UNL     1       6.009   6.341  16.567  0.00  0.00    +0.000 C 
ENDBRANCH   6  28
BRANCH   8  34
ATOM     34  C   UNL     1       2.122   4.254  20.616  0.00  0.00    +0.000 C 
ATOM     35  F   UNL     1       2.496   4.478  21.907  0.00  0.00    +0.000 F 
ATOM     36  F   UNL     1       0.775   4.078  20.643  0.00  0.00    +0.000 F 
ATOM     37  F   UNL     1       2.658   3.049  20.287  0.00  0.00    +0.000 F 
ENDBRANCH   8  34
TORSDOF 6
ENDMDL
MODEL 2
REMARK VINA RESULT:      -9.9      2.006      3.028
REMARK  Name = 
REMARK  7 active torsions:
REMARK  status: ('A' for Active; 'I' for Inactive)
REMARK    1  A    between atoms: C_1  and  N_2
REMARK    2  A    between atoms: C_6  and  C_7
REMARK    3  A    between atoms: C_7  and  C_8
REMARK    4  A    between atoms: C_8  and  C_9
REMARK    5  A    between atoms: C_13  and  N_14
REMARK    6  A    between atoms: C_19  and  C_20
REMARK    7  A    between atoms: C_27  and  C_28
REMARK                            x       y       z     vdW  Elec       q    Type
REMARK                         _______ _______ _______ _____ _____    ______ ____
ROOT
ATOM      1  N   UNL     1       1.137   8.680  20.440  0.00  0.00    +0.000 N 
ATOM      2  C   UNL     1       1.353   7.314  20.874  0.00  0.00    +0.000 C 
ATOM      3  C   UNL     1       2.146   6.704  19.784  0.00  0.00    +0.000 A 
ATOM      4  C   UNL     1       2.472   7.676  18.844  0.00  0.00    +0.000 A 
ATOM      5  C   UNL     1       3.263   7.369  17.751  0.00  0.00    +0.000 A 
ATOM      6  C   UNL     1       3.737   6.047  17.619  0.00  0.00    +0.000 A 
ATOM      7  C   UNL     1       3.349   5.067  18.562  0.00  0.00    +0.000 A 
ATOM      8  C   UNL     1       2.539   5.378  19.662  0.00  0.00    +0.000 A 
ATOM      9  C   UNL     1       1.808   8.945  19.242  0.00  0.00    +0.000 C 
ATOM     10  O   UNL     1       1.872   9.967  18.581  0.00  0.00    +0.000 OA
ENDROOT
BRANCH   1  15
ATOM     11  C   UNL     1      -1.162  11.559  21.159  0.00  0.00    +0.000 A 
ATOM     12  C   UNL     1      -1.384  11.354  22.528  0.00  0.00    +0.000 A 
ATOM     13  C   UNL     1      -0.818  10.262  23.209  0.00  0.00    +0.000 A 
ATOM     14  C   UNL     1       0.010   9.346  22.546  0.00  0.00    +0.000 A 
ATOM     15  C   UNL     1       0.268   9.510  21.193  0.00  0.00    +0.000 A 
ATOM     16  C   UNL     1      -0.347  10.597  20.539  0.00  0.00    +0.000 A 
BRANCH  11  17
ATOM     17  C   UNL     1      -1.772  12.780  20.292  0.00  0.00    +0.000 C 
ATOM     18  C   UNL     1      -1.037  13.081  18.958  0.00  0.00    +0.000 C 
ATOM     19  O   UNL     1      -0.685  14.415  19.369  0.00  0.00    +0.000 OA
ATOM     20  C   UNL     1      -1.310  14.227  20.655  0.00  0.00    +0.000 C 
BRANCH  17  21
ATOM     21  C   UNL     1      -3.308  12.652  20.127  0.00  0.00    +0.000 C 
BRANCH  21  27
ATOM     22  C   UNL     1      -6.050  12.986  18.571  0.00  0.00    +0.000 C 
ATOM     23  N   UNL     1      -4.951  12.123  18.227  0.00  0.00    +0.000 N 
ATOM     24  C   UNL     1      -4.936  11.273  17.158  0.00  0.00    +0.000 A 
ATOM     25  N   UNL     1      -3.811  10.601  17.155  0.00  0.00    +0.000 NA
ATOM     26  N   UNL     1      -3.082  11.003  18.243  0.00  0.00    +0.000 NA
ATOM     27  C   UNL     1      -3.753  11.945  18.878  0.00  0.00    +0.000 A 
ENDBRANCH  21  27
ENDBRANCH  17  21
ENDBRANCH  11  17
ENDBRANCH   1  15
BRANCH   6  28
ATOM     28  C   UNL     1       4.666   5.624  16.495  0.00  0.00    +0.000 C 
ATOM     29  C   UNL     1       4.839   4.098  16.438  0.00  0.00    +0.000 C 
ATOM     30  C   UNL     1       5.854   3.708  15.370  0.00  0.00    +0.000 C 
ATOM     31  C   UNL     1       7.140   4.508  15.536  0.00  0.00    +0.000 C 
ATOM     32  O   UNL     1       6.867   5.908  15.477  0.00  0.00    +0.000 OA
ATOM     33  C   UNL     1       6.024   6.334  16.551  0.00  0.00    +0.000 C 
ENDBRANCH   6  28
BRANCH   8  34
ATOM     34  C   UNL     1       2.111   4.307  20.634  0.00  0.00    +0.000 C 
ATOM     35  F   UNL     1       2.610   3.072  20.347  0.00  0.00    +0.000 F 
ATOM     36  F   UNL     1       2.501   4.580  21.907  0.00  0.00    +0.000 F 
ATOM     37  F   UNL     1       0.761   4.153  20.672  0.00  0.00    +0.000 F 
ENDBRANCH   8  34
TORSDOF 6
ENDMDL
MODEL 3
REMARK VINA RESULT:      -9.8      0.594      1.221
REMARK  Name = 
REMARK  7 active torsions:
REMARK  status: ('A' for Active; 'I' for Inactive)
REMARK    1  A    between atoms: C_1  and  N_2
REMARK    2  A    between atoms: C_6  and  C_7
REMARK    3  A    between atoms: C_7  and  C_8
REMARK    4  A    between atoms: C_8  and  C_9
REMARK    5  A    between atoms: C_13  and  N_14
REMARK    6  A    between atoms: C_19  and  C_20
REMARK    7  A    between atoms: C_27  and  C_28
REMARK                            x       y       z     vdW  Elec       q    Type
REMARK                         _______ _______ _______ _____ _____    ______ ____
ROOT
ATOM      1  N   UNL     1       1.158   8.761  20.396  0.00  0.00    +0.000 N 
ATOM      2  C   UNL     1       1.389   7.397  20.828  0.00  0.00    +0.000 C 
ATOM      3  C   UNL     1       2.209   6.805  19.748  0.00  0.00    +0.000 A 
ATOM      4  C   UNL     1       2.535   7.786  18.819  0.00  0.00    +0.000 A 
ATOM      5  C   UNL     1       3.349   7.496  17.737  0.00  0.00    +0.000 A 
ATOM      6  C   UNL     1       3.846   6.182  17.608  0.00  0.00    +0.000 A 
ATOM      7  C   UNL     1       3.458   5.192  18.539  0.00  0.00    +0.000 A 
ATOM      8  C   UNL     1       2.625   5.486  19.627  0.00  0.00    +0.000 A 
ATOM      9  C   UNL     1       1.845   9.042  19.211  0.00  0.00    +0.000 C 
ATOM     10  O   UNL     1       1.904  10.068  18.556  0.00  0.00    +0.000 OA
ENDROOT
BRANCH   1  15
ATOM     11  C   UNL     1      -1.393  11.440  21.028  0.00  0.00    +0.000 A 
ATOM     12  C   UNL     1      -1.475  11.371  22.426  0.00  0.00    +0.000 A 
ATOM     13  C   UNL     1      -0.731  10.431  23.160  0.00  0.00    +0.000 A 
ATOM     14  C   UNL     1       0.141   9.539  22.519  0.00  0.00    +0.000 A 
ATOM     15  C   UNL     1       0.264   9.574  21.138  0.00  0.00    +0.000 A 
ATOM     16  C   UNL     1      -0.526  10.507  20.437  0.00  0.00    +0.000 A 
BRANCH  11  17
ATOM     17  C   UNL     1      -2.212  12.482  20.101  0.00  0.00    +0.000 C 
ATOM     18  C   UNL     1      -3.719  12.633  20.440  0.00  0.00    +0.000 C 
ATOM     19  O   UNL     1      -4.131  12.168  19.141  0.00  0.00    +0.000 OA
ATOM     20  C   UNL     1      -2.763  11.958  18.737  0.00  0.00    +0.000 C 
BRANCH  17  21
ATOM     21  C   UNL     1      -1.475  13.841  19.980  0.00  0.00    +0.000 C 
BRANCH  21  27
ATOM     22  C   UNL     1       1.090  14.379  21.765  0.00  0.00    +0.000 C 
ATOM     23  N   UNL     1       1.057  13.978  20.384  0.00  0.00    +0.000 N 
ATOM     24  C   UNL     1       2.162  13.787  19.604  0.00  0.00    +0.000 A 
ATOM     25  N   UNL     1       1.785  13.471  18.388  0.00  0.00    +0.000 NA
ATOM     26  N   UNL     1       0.416  13.468  18.365  0.00  0.00    +0.000 NA
ATOM     27  C   UNL     1      -0.030  13.742  19.575  0.00  0.00    +0.000 A 
ENDBRANCH  21  27
ENDBRANCH  17  21
ENDBRANCH  11  17
ENDBRANCH   1  15
BRANCH   6  28
ATOM     28  C   UNL     1       4.800   5.779  16.498  0.00  0.00    +0.000 C 
ATOM     29  C   UNL     1       4.758   4.267  16.227  0.00  0.00    +0.000 C 
ATOM     30  C   UNL     1       5.797   3.875  15.182  0.00  0.00    +0.000 C 
ATOM     31  C   UNL     1       7.164   4.438  15.549  0.00  0.00    +0.000 C 
ATOM     32  O   UNL     1       7.100   5.858  15.681  0.00  0.00    +0.000 OA
ATOM     33  C   UNL     1       6.235   6.258  16.748  0.00  0.00    +0.000 C 
ENDBRANCH   6  28
BRANCH   8  34
ATOM     34  C   UNL     1       2.198   4.403  20.587  0.00  0.00    +0.000 C 
ATOM     35  F   UNL     1       2.792   3.199  20.359  0.00  0.00    +0.000 F 
ATOM     36  F   UNL     1       2.479   4.719  21.879  0.00  0.00    +0.000 F 
ATOM     37  F   UNL     1       0.861   4.163  20.535  0.00  0.00    +0.000 F 
ENDBRANCH   8  34
TORSDOF 6
ENDMDL
MODEL 4
REMARK VINA RESULT:      -9.8      0.985      1.314
REMARK  Name = 
REMARK  7 active torsions:
REMARK  status: ('A' for Active; 'I' for Inactive)
REMARK    1  A    between atoms: C_1  and  N_2
REMARK    2  A    between atoms: C_6  and  C_7
REMARK    3  A    between atoms: C_7  and  C_8
REMARK    4  A    between atoms: C_8  and  C_9
REMARK    5  A    between atoms: C_13  and  N_14
REMARK    6  A    between atoms: C_19  and  C_20
REMARK    7  A    between atoms: C_27  and  C_28
REMARK                            x       y       z     vdW  Elec       q    Type
REMARK                         _______ _______ _______ _____ _____    ______ ____
ROOT
ATOM      1  N   UNL     1       1.145   8.725  20.439  0.00  0.00    +0.000 N 
ATOM      2  C   UNL     1       1.358   7.353  20.853  0.00  0.00    +0.000 C 
ATOM      3  C   UNL     1       2.174   6.765  19.768  0.00  0.00    +0.000 A 
ATOM      4  C   UNL     1       2.515   7.754  18.852  0.00  0.00    +0.000 A 
ATOM      5  C   UNL     1       3.328   7.469  17.769  0.00  0.00    +0.000 A 
ATOM      6  C   UNL     1       3.809   6.151  17.624  0.00  0.00    +0.000 A 
ATOM      7  C   UNL     1       3.407   5.153  18.541  0.00  0.00    +0.000 A 
ATOM      8  C   UNL     1       2.574   5.442  19.631  0.00  0.00    +0.000 A 
ATOM      9  C   UNL     1       1.839   9.013  19.259  0.00  0.00    +0.000 C 
ATOM     10  O   UNL     1       1.912  10.047  18.618  0.00  0.00    +0.000 OA
ENDROOT
BRANCH   1  15
ATOM     11  C   UNL     1      -1.137  11.611  21.181  0.00  0.00    +0.000 A 
ATOM     12  C   UNL     1      -1.419  11.355  22.530  0.00  0.00    +0.000 A 
ATOM     13  C   UNL     1      -0.898  10.229  23.188  0.00  0.00    +0.000 A 
ATOM     14  C   UNL     1      -0.057   9.325  22.523  0.00  0.00    +0.000 A 
ATOM     15  C   UNL     1       0.259   9.539  21.189  0.00  0.00    +0.000 A 
ATOM     16  C   UNL     1      -0.312  10.661  20.556  0.00  0.00    +0.000 A 
BRANCH  11  17
ATOM     17  C   UNL     1      -1.693  12.875  20.340  0.00  0.00    +0.000 C 
ATOM     18  C   UNL     1      -1.898  14.180  21.156  0.00  0.00    +0.000 C 
ATOM     19  O   UNL     1      -3.311  14.214  20.883  0.00  0.00    +0.000 OA
ATOM     20  C   UNL     1      -3.237  12.985  20.132  0.00  0.00    +0.000 C 
BRANCH  17  21
ATOM     21  C   UNL     1      -0.884  13.093  19.035  0.00  0.00    +0.000 C 
BRANCH  21  27
ATOM     22  C   UNL     1       2.062  13.307  20.186  0.00  0.00    +0.000 C 
ATOM     23  N   UNL     1       1.297  14.345  19.549  0.00  0.00    +0.000 N 
ATOM     24  C   UNL     1       1.732  15.627  19.362  0.00  0.00    +0.000 A 
ATOM     25  N   UNL     1       0.781  16.328  18.795  0.00  0.00    +0.000 NA
ATOM     26  N   UNL     1      -0.298  15.503  18.619  0.00  0.00    +0.000 NA
ATOM     27  C   UNL     1       0.019  14.295  19.044  0.00  0.00    +0.000 A 
ENDBRANCH  21  27
ENDBRANCH  17  21
ENDBRANCH  11  17
ENDBRANCH   1  15
BRANCH   6  28
ATOM     28  C   UNL     1       4.761   5.750  16.511  0.00  0.00    +0.000 C 
ATOM     29  C   UNL     1       4.786   4.229  16.297  0.00  0.00    +0.000 C 
ATOM     30  C   UNL     1       5.824   3.847  15.248  0.00  0.00    +0.000 C 
ATOM     31  C   UNL     1       7.169   4.486  15.568  0.00  0.00    +0.000 C 
ATOM     32  O   UNL     1       7.040   5.905  15.648  0.00  0.00    +0.000 OA
ATOM     33  C   UNL     1       6.177   6.305  16.716  0.00  0.00    +0.000 C 
ENDBRANCH   6  28
BRANCH   8  34
ATOM     34  C   UNL     1       2.132   4.353  20.575  0.00  0.00    +0.000 C 
ATOM     35  F   UNL     1       2.493   4.567  21.871  0.00  0.00    +0.000 F 
ATOM     36  F   UNL     1       0.782   4.195  20.585  0.00  0.00    +0.000 F 
ATOM     37  F   UNL     1       2.656   3.141  20.249  0.00  0.00    +0.000 F 
ENDBRANCH   8  34
TORSDOF 6
ENDMDL
MODEL 5
REMARK VINA RESULT:      -9.7      0.964      1.259
REMARK  Name = 
REMARK  7 active torsions:
REMARK  status: ('A' for Active; 'I' for Inactive)
REMARK    1  A    between atoms: C_1  and  N_2
REMARK    2  A    between atoms: C_6  and  C_7
REMARK    3  A    between atoms: C_7  and  C_8
REMARK    4  A    between atoms: C_8  and  C_9
REMARK    5  A    between atoms: C_13  and  N_14
REMARK    6  A    between atoms: C_19  and  C_20
REMARK    7  A    between atoms: C_27  and  C_28
REMARK                            x       y       z     vdW  Elec       q    Type
REMARK                         _______ _______ _______ _____ _____    ______ ____
ROOT
ATOM      1  N   UNL     1       1.108   8.696  20.453  0.00  0.00    +0.000 N 
ATOM      2  C   UNL     1       1.319   7.327  20.878  0.00  0.00    +0.000 C 
ATOM      3  C   UNL     1       2.113   6.721  19.787  0.00  0.00    +0.000 A 
ATOM      4  C   UNL     1       2.446   7.699  18.855  0.00  0.00    +0.000 A 
ATOM      5  C   UNL     1       3.239   7.396  17.762  0.00  0.00    +0.000 A 
ATOM      6  C   UNL     1       3.709   6.073  17.623  0.00  0.00    +0.000 A 
ATOM      7  C   UNL     1       3.315   5.088  18.558  0.00  0.00    +0.000 A 
ATOM      8  C   UNL     1       2.502   5.395  19.657  0.00  0.00    +0.000 A 
ATOM      9  C   UNL     1       1.785   8.967  19.259  0.00  0.00    +0.000 C 
ATOM     10  O   UNL     1       1.856   9.993  18.605  0.00  0.00    +0.000 OA
ENDROOT
BRANCH   1  15
ATOM     11  C   UNL     1      -1.159  11.594  21.193  0.00  0.00    +0.000 A 
ATOM     12  C   UNL     1      -1.406  11.366  22.554  0.00  0.00    +0.000 A 
ATOM     13  C   UNL     1      -0.867  10.253  23.222  0.00  0.00    +0.000 A 
ATOM     14  C   UNL     1      -0.042   9.338  22.553  0.00  0.00    +0.000 A 
ATOM     15  C   UNL     1       0.240   9.524  21.208  0.00  0.00    +0.000 A 
ATOM     16  C   UNL     1      -0.348  10.633  20.567  0.00  0.00    +0.000 A 
BRANCH  11  17
ATOM     17  C   UNL     1      -1.737  12.841  20.340  0.00  0.00    +0.000 C 
ATOM     18  C   UNL     1      -2.121  14.095  21.171  0.00  0.00    +0.000 C 
ATOM     19  O   UNL     1      -3.502  14.028  20.768  0.00  0.00    +0.000 OA
ATOM     20  C   UNL     1      -3.260  12.836  19.993  0.00  0.00    +0.000 C 
BRANCH  17  21
ATOM     21  C   UNL     1      -0.834  13.169  19.123  0.00  0.00    +0.000 C 
BRANCH  21  27
ATOM     22  C   UNL     1      -0.442  16.267  18.577  0.00  0.00    +0.000 C 
ATOM     23  N   UNL     1       0.495  15.364  19.190  0.00  0.00    +0.000 N 
ATOM     24  C   UNL     1       1.744  15.713  19.619  0.00  0.00    +0.000 A 
ATOM     25  N   UNL     1       2.355  14.651  20.086  0.00  0.00    +0.000 NA
ATOM     26  N   UNL     1       1.503  13.587  19.949  0.00  0.00    +0.000 NA
ATOM     27  C   UNL     1       0.366  14.017  19.437  0.00  0.00    +0.000 A 
ENDBRANCH  21  27
ENDBRANCH  17  21
ENDBRANCH  11  17
ENDBRANCH   1  15
BRANCH   6  28
ATOM     28  C   UNL     1       4.641   5.654  16.500  0.00  0.00    +0.000 C 
ATOM     29  C   UNL     1       4.800   4.127  16.426  0.00  0.00    +0.000 C 
ATOM     30  C   UNL     1       5.818   3.740  15.359  0.00  0.00    +0.000 C 
ATOM     31  C   UNL     1       7.109   4.527  15.541  0.00  0.00    +0.000 C 
ATOM     32  O   UNL     1       6.850   5.930  15.497  0.00  0.00    +0.000 OA
ATOM     33  C   UNL     1       6.005   6.352  16.571  0.00  0.00    +0.000 C 
ENDBRANCH   6  28
BRANCH   8  34
ATOM     34  C   UNL     1       2.066   4.318  20.620  0.00  0.00    +0.000 C 
ATOM     35  F   UNL     1       0.716   4.161  20.697  0.00  0.00    +0.000 F 
ATOM     36  F   UNL     1       2.566   3.098  20.291  0.00  0.00    +0.000 F 
ATOM     37  F   UNL     1       2.475   4.568  21.893  0.00  0.00    +0.000 F 
ENDBRANCH   8  34
TORSDOF 6
ENDMDL
MODEL 6
REMARK VINA RESULT:      -9.7      2.001      2.895
REMARK  Name = 
REMARK  7 active torsions:
REMARK  status: ('A' for Active; 'I' for Inactive)
REMARK    1  A    between atoms: C_1  and  N_2
REMARK    2  A    between atoms: C_6  and  C_7
REMARK    3  A    between atoms: C_7  and  C_8
REMARK    4  A    between atoms: C_8  and  C_9
REMARK    5  A    between atoms: C_13  and  N_14
REMARK    6  A    between atoms: C_19  and  C_20
REMARK    7  A    between atoms: C_27  and  C_28
REMARK                            x       y       z     vdW  Elec       q    Type
REMARK                         _______ _______ _______ _____ _____    ______ ____
ROOT
ATOM      1  N   UNL     1       1.166   8.551  20.537  0.00  0.00    +0.000 N 
ATOM      2  C   UNL     1       1.374   7.176  20.944  0.00  0.00    +0.000 C 
ATOM      3  C   UNL     1       2.153   6.579  19.837  0.00  0.00    +0.000 A 
ATOM      4  C   UNL     1       2.481   7.566  18.913  0.00  0.00    +0.000 A 
ATOM      5  C   UNL     1       3.261   7.272  17.809  0.00  0.00    +0.000 A 
ATOM      6  C   UNL     1       3.722   5.948  17.649  0.00  0.00    +0.000 A 
ATOM      7  C   UNL     1       3.333   4.954  18.576  0.00  0.00    +0.000 A 
ATOM      8  C   UNL     1       2.533   5.252  19.688  0.00  0.00    +0.000 A 
ATOM      9  C   UNL     1       1.831   8.832  19.340  0.00  0.00    +0.000 C 
ATOM     10  O   UNL     1       1.900   9.865  18.697  0.00  0.00    +0.000 OA
ENDROOT
BRANCH   1  15
ATOM     11  C   UNL     1      -1.221  11.349  21.287  0.00  0.00    +0.000 A 
ATOM     12  C   UNL     1      -1.338  11.201  22.676  0.00  0.00    +0.000 A 
ATOM     13  C   UNL     1      -0.671  10.173  23.363  0.00  0.00    +0.000 A 
ATOM     14  C   UNL     1       0.155   9.265  22.685  0.00  0.00    +0.000 A 
ATOM     15  C   UNL     1       0.310   9.374  21.312  0.00  0.00    +0.000 A 
ATOM     16  C   UNL     1      -0.403  10.398  20.655  0.00  0.00    +0.000 A 
BRANCH  11  17
ATOM     17  C   UNL     1      -1.951  12.495  20.410  0.00  0.00    +0.000 C 
ATOM     18  C   UNL     1      -2.860  11.978  19.262  0.00  0.00    +0.000 C 
ATOM     19  O   UNL     1      -2.071  12.628  18.248  0.00  0.00    +0.000 OA
ATOM     20  C   UNL     1      -1.145  13.130  19.233  0.00  0.00    +0.000 C 
BRANCH  17  21
ATOM     21  C   UNL     1      -2.646  13.548  21.312  0.00  0.00    +0.000 C 
BRANCH  21  27
ATOM     22  C   UNL     1      -5.113  15.271  20.313  0.00  0.00    +0.000 C 
ATOM     23  N   UNL     1      -5.151  14.070  21.104  0.00  0.00    +0.000 N 
ATOM     24  C   UNL     1      -6.292  13.487  21.579  0.00  0.00    +0.000 A 
ATOM     25  N   UNL     1      -5.976  12.437  22.297  0.00  0.00    +0.000 NA
ATOM     26  N   UNL     1      -4.610  12.335  22.307  0.00  0.00    +0.000 NA
ATOM     27  C   UNL     1      -4.107  13.300  21.562  0.00  0.00    +0.000 A 
ENDBRANCH  21  27
ENDBRANCH  17  21
ENDBRANCH  11  17
ENDBRANCH   1  15
BRANCH   6  28
ATOM     28  C   UNL     1       4.639   5.537  16.511  0.00  0.00    +0.000 C 
ATOM     29  C   UNL     1       4.853   4.016  16.467  0.00  0.00    +0.000 C 
ATOM     30  C   UNL     1       5.857   3.642  15.382  0.00  0.00    +0.000 C 
ATOM     31  C   UNL     1       7.123   4.478  15.513  0.00  0.00    +0.000 C 
ATOM     32  O   UNL     1       6.811   5.870  15.445  0.00  0.00    +0.000 OA
ATOM     33  C   UNL     1       5.979   6.285  16.531  0.00  0.00    +0.000 C 
ENDBRANCH   6  28
BRANCH   8  34
ATOM     34  C   UNL     1       2.103   4.167  20.643  0.00  0.00    +0.000 C 
ATOM     35  F   UNL     1       0.754   3.980  20.693  0.00  0.00    +0.000 F 
ATOM     36  F   UNL     1       2.636   2.958  20.325  0.00  0.00    +0.000 F 
ATOM     37  F   UNL     1       2.480   4.426  21.924  0.00  0.00    +0.000 F 
ENDBRANCH   8  34
TORSDOF 6
ENDMDL
MODEL 7
REMARK VINA RESULT:      -9.7      1.991      2.871
REMARK  Name = 
REMARK  7 active torsions:
REMARK  status: ('A' for Active; 'I' for Inactive)
REMARK    1  A    between atoms: C_1  and  N_2
REMARK    2  A    between atoms: C_6  and  C_7
REMARK    3  A    between atoms: C_7  and  C_8
REMARK    4  A    between atoms: C_8  and  C_9
REMARK    5  A    between atoms: C_13  and  N_14
REMARK    6  A    between atoms: C_19  and  C_20
REMARK    7  A    between atoms: C_27  and  C_28
REMARK                            x       y       z     vdW  Elec       q    Type
REMARK                         _______ _______ _______ _____ _____    ______ ____
ROOT
ATOM      1  N   UNL     1       1.082   8.738  20.496  0.00  0.00    +0.000 N 
ATOM      2  C   UNL     1       1.308   7.366  20.907  0.00  0.00    +0.000 C 
ATOM      3  C   UNL     1       2.106   6.781  19.807  0.00  0.00    +0.000 A 
ATOM      4  C   UNL     1       2.425   7.771  18.885  0.00  0.00    +0.000 A 
ATOM      5  C   UNL     1       3.219   7.488  17.787  0.00  0.00    +0.000 A 
ATOM      6  C   UNL     1       3.703   6.172  17.633  0.00  0.00    +0.000 A 
ATOM      7  C   UNL     1       3.322   5.173  18.558  0.00  0.00    +0.000 A 
ATOM      8  C   UNL     1       2.509   5.460  19.663  0.00  0.00    +0.000 A 
ATOM      9  C   UNL     1       1.752   9.028  19.304  0.00  0.00    +0.000 C 
ATOM     10  O   UNL     1       1.809  10.061  18.660  0.00  0.00    +0.000 OA
ENDROOT
BRANCH   1  15
ATOM     11  C   UNL     1      -1.247  11.580  21.259  0.00  0.00    +0.000 A 
ATOM     12  C   UNL     1      -1.461  11.356  22.627  0.00  0.00    +0.000 A 
ATOM     13  C   UNL     1      -0.880  10.264  23.292  0.00  0.00    +0.000 A 
ATOM     14  C   UNL     1      -0.044   9.365  22.614  0.00  0.00    +0.000 A 
ATOM     15  C   UNL     1       0.206   9.548  21.263  0.00  0.00    +0.000 A 
ATOM     16  C   UNL     1      -0.424  10.636  20.624  0.00  0.00    +0.000 A 
BRANCH  11  17
ATOM     17  C   UNL     1      -1.875  12.804  20.409  0.00  0.00    +0.000 C 
ATOM     18  C   UNL     1      -1.066  13.227  19.153  0.00  0.00    +0.000 C 
ATOM     19  O   UNL     1      -0.842  14.557  19.657  0.00  0.00    +0.000 OA
ATOM     20  C   UNL     1      -1.546  14.256  20.879  0.00  0.00    +0.000 C 
BRANCH  17  21
ATOM     21  C   UNL     1      -3.382  12.583  20.118  0.00  0.00    +0.000 C 
BRANCH  21  27
ATOM     22  C   UNL     1      -5.033  15.287  20.257  0.00  0.00    +0.000 C 
ATOM     23  N   UNL     1      -5.015  14.225  21.227  0.00  0.00    +0.000 N 
ATOM     24  C   UNL     1      -5.711  14.234  22.402  0.00  0.00    +0.000 A 
ATOM     25  N   UNL     1      -5.441  13.141  23.074  0.00  0.00    +0.000 NA
ATOM     26  N   UNL     1      -4.547  12.410  22.339  0.00  0.00    +0.000 NA
ATOM     27  C   UNL     1      -4.310  13.044  21.207  0.00  0.00    +0.000 A 
ENDBRANCH  21  27
ENDBRANCH  17  21
ENDBRANCH  11  17
ENDBRANCH   1  15
BRANCH   6  28
ATOM     28  C   UNL     1       4.635   5.774  16.503  0.00  0.00    +0.000 C 
ATOM     29  C   UNL     1       4.730   4.248  16.347  0.00  0.00    +0.000 C 
ATOM     30  C   UNL     1       5.749   3.876  15.276  0.00  0.00    +0.000 C 
ATOM     31  C   UNL     1       7.070   4.593  15.522  0.00  0.00    +0.000 C 
ATOM     32  O   UNL     1       6.872   6.007  15.552  0.00  0.00    +0.000 OA
ATOM     33  C   UNL     1       6.027   6.406  16.634  0.00  0.00    +0.000 C 
ENDBRANCH   6  28
BRANCH   8  34
ATOM     34  C   UNL     1       2.088   4.369  20.617  0.00  0.00    +0.000 C 
ATOM     35  F   UNL     1       2.467   4.590  21.907  0.00  0.00    +0.000 F 
ATOM     36  F   UNL     1       0.740   4.201  20.647  0.00  0.00    +0.000 F 
ATOM     37  F   UNL     1       2.617   3.161  20.286  0.00  0.00    +0.000 F 
ENDBRANCH   8  34
TORSDOF 6
ENDMDL
MODEL 8
REMARK VINA RESULT:      -9.6      1.924      2.786
REMARK  Name = 
REMARK  7 active torsions:
REMARK  status: ('A' for Active; 'I' for Inactive)
REMARK    1  A    between atoms: C_1  and  N_2
REMARK    2  A    between atoms: C_6  and  C_7
REMARK    3  A    between atoms: C_7  and  C_8
REMARK    4  A    between atoms: C_8  and  C_9
REMARK    5  A    between atoms: C_13  and  N_14
REMARK    6  A    between atoms: C_19  and  C_20
REMARK    7  A    between atoms: C_27  and  C_28
REMARK                            x       y       z     vdW  Elec       q    Type
REMARK                         _______ _______ _______ _____ _____    ______ ____
ROOT
ATOM      1  N   UNL     1       1.113   8.688  20.519  0.00  0.00    +0.000 N 
ATOM      2  C   UNL     1       1.310   7.310  20.923  0.00  0.00    +0.000 C 
ATOM      3  C   UNL     1       2.105   6.715  19.826  0.00  0.00    +0.000 A 
ATOM      4  C   UNL     1       2.450   7.704  18.912  0.00  0.00    +0.000 A 
ATOM      5  C   UNL     1       3.247   7.412  17.819  0.00  0.00    +0.000 A 
ATOM      6  C   UNL     1       3.707   6.088  17.661  0.00  0.00    +0.000 A 
ATOM      7  C   UNL     1       3.299   5.091  18.577  0.00  0.00    +0.000 A 
ATOM      8  C   UNL     1       2.482   5.388  19.677  0.00  0.00    +0.000 A 
ATOM      9  C   UNL     1       1.799   8.972  19.333  0.00  0.00    +0.000 C 
ATOM     10  O   UNL     1       1.881  10.007  18.696  0.00  0.00    +0.000 OA
ENDROOT
BRANCH   1  15
ATOM     11  C   UNL     1      -1.309  11.464  21.232  0.00  0.00    +0.000 A 
ATOM     12  C   UNL     1      -1.421  11.335  22.624  0.00  0.00    +0.000 A 
ATOM     13  C   UNL     1      -0.740  10.326  23.325  0.00  0.00    +0.000 A 
ATOM     14  C   UNL     1       0.097   9.419  22.658  0.00  0.00    +0.000 A 
ATOM     15  C   UNL     1       0.248   9.511  21.283  0.00  0.00    +0.000 A 
ATOM     16  C   UNL     1      -0.480  10.515  20.612  0.00  0.00    +0.000 A 
BRANCH  11  17
ATOM     17  C   UNL     1      -2.056  12.588  20.341  0.00  0.00    +0.000 C 
ATOM     18  C   UNL     1      -1.904  14.048  20.847  0.00  0.00    +0.000 C 
ATOM     19  O   UNL     1      -3.322  14.204  21.043  0.00  0.00    +0.000 OA
ATOM     20  C   UNL     1      -3.570  12.847  20.622  0.00  0.00    +0.000 C 
BRANCH  17  21
ATOM     21  C   UNL     1      -1.734  12.428  18.832  0.00  0.00    +0.000 C 
BRANCH  21  27
ATOM     22  C   UNL     1      -1.273   9.694  17.294  0.00  0.00    +0.000 C 
ATOM     23  N   UNL     1      -2.500  10.438  17.404  0.00  0.00    +0.000 N 
ATOM     24  C   UNL     1      -3.682  10.076  16.822  0.00  0.00    +0.000 A 
ATOM     25  N   UNL     1      -4.588  10.988  17.079  0.00  0.00    +0.000 NA
ATOM     26  N   UNL     1      -3.992  11.968  17.827  0.00  0.00    +0.000 NA
ATOM     27  C   UNL     1      -2.739  11.626  18.054  0.00  0.00    +0.000 A 
ENDBRANCH  21  27
ENDBRANCH  17  21
ENDBRANCH  11  17
ENDBRANCH   1  15
BRANCH   6  28
ATOM     28  C   UNL     1       4.640   5.679  16.536  0.00  0.00    +0.000 C 
ATOM     29  C   UNL     1       4.805   4.153  16.454  0.00  0.00    +0.000 C 
ATOM     30  C   UNL     1       5.826   3.776  15.385  0.00  0.00    +0.000 C 
ATOM     31  C   UNL     1       7.114   4.566  15.573  0.00  0.00    +0.000 C 
ATOM     32  O   UNL     1       6.850   5.968  15.537  0.00  0.00    +0.000 OA
ATOM     33  C   UNL     1       6.002   6.381  16.612  0.00  0.00    +0.000 C 
ENDBRANCH   6  28
BRANCH   8  34
ATOM     34  C   UNL     1       2.033   4.300  20.621  0.00  0.00    +0.000 C 
ATOM     35  F   UNL     1       2.478   3.058  20.281  0.00  0.00    +0.000 F 
ATOM     36  F   UNL     1       2.458   4.513  21.894  0.00  0.00    +0.000 F 
ATOM     37  F   UNL     1       0.679   4.196  20.683  0.00  0.00    +0.000 F 
ENDBRANCH   8  34
TORSDOF 6
ENDMDL
MODEL 9
REMARK VINA RESULT:      -9.6      2.125      3.096
REMARK  Name = 
REMARK  7 active torsions:
REMARK  status: ('A' for Active; 'I' for Inactive)
REMARK    1  A    between atoms: C_1  and  N_2
REMARK    2  A    between atoms: C_6  and  C_7
REMARK    3  A    between atoms: C_7  and  C_8
REMARK    4  A    between atoms: C_8  and  C_9
REMARK    5  A    between atoms: C_13  and  N_14
REMARK    6  A    between atoms: C_19  and  C_20
REMARK    7  A    between atoms: C_27  and  C_28
REMARK                            x       y       z     vdW  Elec       q    Type
REMARK                         _______ _______ _______ _____ _____    ______ ____
ROOT
ATOM      1  N   UNL     1       1.141   8.726  20.385  0.00  0.00    +0.000 N 
ATOM      2  C   UNL     1       1.345   7.355  20.811  0.00  0.00    +0.000 C 
ATOM      3  C   UNL     1       2.164   6.754  19.737  0.00  0.00    +0.000 A 
ATOM      4  C   UNL     1       2.516   7.734  18.815  0.00  0.00    +0.000 A 
ATOM      5  C   UNL     1       3.334   7.435  17.740  0.00  0.00    +0.000 A 
ATOM      6  C   UNL     1       3.810   6.113  17.609  0.00  0.00    +0.000 A 
ATOM      7  C   UNL     1       3.396   5.125  18.532  0.00  0.00    +0.000 A 
ATOM      8  C   UNL     1       2.558   5.429  19.613  0.00  0.00    +0.000 A 
ATOM      9  C   UNL     1       1.844   9.000  19.207  0.00  0.00    +0.000 C 
ATOM     10  O   UNL     1       1.927  10.027  18.557  0.00  0.00    +0.000 OA
ENDROOT
BRANCH   1  15
ATOM     11  C   UNL     1      -1.209  11.574  21.055  0.00  0.00    +0.000 A 
ATOM     12  C   UNL     1      -1.436  11.383  22.425  0.00  0.00    +0.000 A 
ATOM     13  C   UNL     1      -0.856  10.309  23.122  0.00  0.00    +0.000 A 
ATOM     14  C   UNL     1      -0.009   9.399  22.475  0.00  0.00    +0.000 A 
ATOM     15  C   UNL     1       0.254   9.550  21.122  0.00  0.00    +0.000 A 
ATOM     16  C   UNL     1      -0.374  10.619  20.452  0.00  0.00    +0.000 A 
BRANCH  11  17
ATOM     17  C   UNL     1      -1.833  12.774  20.169  0.00  0.00    +0.000 C 
ATOM     18  C   UNL     1      -0.811  13.578  19.321  0.00  0.00    +0.000 C 
ATOM     19  O   UNL     1      -1.105  14.811  20.004  0.00  0.00    +0.000 OA
ATOM     20  C   UNL     1      -2.052  14.153  20.870  0.00  0.00    +0.000 C 
BRANCH  17  21
ATOM     21  C   UNL     1      -3.064  12.301  19.353  0.00  0.00    +0.000 C 
BRANCH  21  27
ATOM     22  C   UNL     1      -5.951  11.547  18.282  0.00  0.00    +0.000 C 
ATOM     23  N   UNL     1      -5.585  11.901  19.627  0.00  0.00    +0.000 N 
ATOM     24  C   UNL     1      -6.460  11.992  20.672  0.00  0.00    +0.000 A 
ATOM     25  N   UNL     1      -5.815  12.379  21.746  0.00  0.00    +0.000 NA
ATOM     26  N   UNL     1      -4.502  12.558  21.400  0.00  0.00    +0.000 NA
ATOM     27  C   UNL     1      -4.350  12.241  20.129  0.00  0.00    +0.000 A 
ENDBRANCH  21  27
ENDBRANCH  17  21
ENDBRANCH  11  17
ENDBRANCH   1  15
BRANCH   6  28
ATOM     28  C   UNL     1       4.767   5.698  16.505  0.00  0.00    +0.000 C 
ATOM     29  C   UNL     1       4.811   4.173  16.328  0.00  0.00    +0.000 C 
ATOM     30  C   UNL     1       5.853   3.779  15.287  0.00  0.00    +0.000 C 
ATOM     31  C   UNL     1       7.190   4.442  15.591  0.00  0.00    +0.000 C 
ATOM     32  O   UNL     1       7.043   5.862  15.637  0.00  0.00    +0.000 OA
ATOM     33  C   UNL     1       6.175   6.275  16.696  0.00  0.00    +0.000 C 
ENDBRANCH   6  28
BRANCH   8  34
ATOM     34  C   UNL     1       2.104   4.349  20.564  0.00  0.00    +0.000 C 
ATOM     35  F   UNL     1       2.590   3.112  20.266  0.00  0.00    +0.000 F 
ATOM     36  F   UNL     1       2.480   4.599  21.846  0.00  0.00    +0.000 F 
ATOM     37  F   UNL     1       0.751   4.212  20.582  0.00  0.00    +0.000 F 
ENDBRANCH   8  34
TORSDOF 6
ENDMDL
