MODEL 1
REMARK VINA RESULT:      -9.6      0.000      0.000
REMARK  Name = 
REMARK  6 active torsions:
REMARK  status: ('A' for Active; 'I' for Inactive)
REMARK    1  A    between atoms: C_1  and  N_2
REMARK    2  A    between atoms: C_6  and  C_7
REMARK    3  A    between atoms: C_7  and  C_8
REMARK    4  A    between atoms: C_8  and  C_9
REMARK    5  A    between atoms: C_13  and  N_14
REMARK    6  A    between atoms: C_15  and  C_17
REMARK                            x       y       z     vdW  Elec       q    Type
REMARK                         _______ _______ _______ _____ _____    ______ ____
ROOT
ATOM      1  C   UNL     1       4.555   4.819  17.278  0.00  0.00    +0.000 A 
ATOM      2  C   UNL     1       3.798   3.633  17.199  0.00  0.00    +0.000 A 
ATOM      3  C   UNL     1       2.466   3.577  17.605  0.00  0.00    +0.000 A 
ATOM      4  C   UNL     1       1.843   4.717  18.106  0.00  0.00    +0.000 A 
ATOM      5  C   UNL     1       2.548   5.911  18.206  0.00  0.00    +0.000 A 
ATOM      6  C   UNL     1       3.887   5.951  17.793  0.00  0.00    +0.000 A 
ENDROOT
BRANCH   1   7
ATOM      7  C   UNL     1       6.080   4.883  16.782  0.00  0.00    +0.000 C 
ATOM      8  C   UNL     1       7.158   4.676  17.887  0.00  0.00    +0.000 C 
ATOM      9  O   UNL     1       7.734   5.975  17.664  0.00  0.00    +0.000 OA
ATOM     10  C   UNL     1       6.755   6.276  16.647  0.00  0.00    +0.000 C 
BRANCH   7  11
ATOM     11  C   UNL     1       6.290   3.937  15.584  0.00  0.00    +0.000 C 
BRANCH  11  17
ATOM     12  C   UNL     1       5.728   3.375  12.490  0.00  0.00    +0.000 C 
ATOM     13  N   UNL     1       6.689   4.276  13.065  0.00  0.00    +0.000 N 
ATOM     14  C   UNL     1       7.580   5.018  12.347  0.00  0.00    +0.000 A 
ATOM     15  N   UNL     1       8.298   5.752  13.162  0.00  0.00    +0.000 NA
ATOM     16  N   UNL     1       7.886   5.475  14.440  0.00  0.00    +0.000 NA
ATOM     17  C   UNL     1       6.926   4.570  14.388  0.00  0.00    +0.000 A 
ENDBRANCH  11  17
ENDBRANCH   7  11
ENDBRANCH   1   7
BRANCH   5  18
ATOM     18  N   UNL     1       1.989   7.106  18.682  0.00  0.00    +0.000 N 
ATOM     19  C   UNL     1       2.018   8.351  18.087  0.00  0.00    +0.000 C 
ATOM     20  O   UNL     1       2.520   8.620  17.002  0.00  0.00    +0.000 OA
ATOM     21  H   UNL     1       1.461   7.048  19.549  0.00  0.00    +0.000 HD
BRANCH  19  22
ATOM     22  C   UNL     1       1.362   9.366  18.863  0.00  0.00    +0.000 A 
ATOM     23  N   UNL     1       0.844  10.509  18.301  0.00  0.00    +0.000 N 
ATOM     24  N   UNL     1       0.194  11.312  19.178  0.00  0.00    +0.000 NA
ATOM     25  C   UNL     1       0.320  10.660  20.336  0.00  0.00    +0.000 A 
ATOM     26  C   UNL     1       1.071   9.486  20.197  0.00  0.00    +0.000 A 
ATOM     27  O   UNL     1       1.364   8.586  21.162  0.00  0.00    +0.000 OA
ATOM     28  C   UNL     1       1.074   9.112  22.477  0.00  0.00    +0.000 C 
ATOM     29  C   UNL     1      -0.277   9.848  22.559  0.00  0.00    +0.000 C 
ATOM     30  C   UNL     1      -0.287  11.066  21.618  0.00  0.00    +0.000 C 
ATOM     31  H   UNL     1       0.875  10.777  17.322  0.00  0.00    +0.000 HD
ENDBRANCH  19  22
ENDBRANCH   5  18
TORSDOF 5
ENDMDL
MODEL 2
REMARK VINA RESULT:      -9.5      1.450      1.981
REMARK  Name = 
REMARK  6 active torsions:
REMARK  status: ('A' for Active; 'I' for Inactive)
REMARK    1  A    between atoms: C_1  and  N_2
REMARK    2  A    between atoms: C_6  and  C_7
REMARK    3  A    between atoms: C_7  and  C_8
REMARK    4  A    between atoms: C_8  and  C_9
REMARK    5  A    between atoms: C_13  and  N_14
REMARK    6  A    between atoms: C_15  and  C_17
REMARK                            x       y       z     vdW  Elec       q    Type
REMARK                         _______ _______ _______ _____ _____    ______ ____
ROOT
ATOM      1  C   UNL     1       4.635   4.770  17.170  0.00  0.00    +0.000 A 
ATOM      2  C   UNL     1       3.777   3.696  16.858  0.00  0.00    +0.000 A 
ATOM      3  C   UNL     1       2.444   3.673  17.266  0.00  0.00    +0.000 A 
ATOM      4  C   UNL     1       1.923   4.733  18.002  0.00  0.00    +0.000 A 
ATOM      5  C   UNL     1       2.730   5.814  18.337  0.00  0.00    +0.000 A 
ATOM      6  C   UNL     1       4.069   5.824  17.920  0.00  0.00    +0.000 A 
ENDROOT
BRANCH   1   7
ATOM      7  C   UNL     1       6.161   4.804  16.674  0.00  0.00    +0.000 C 
ATOM      8  C   UNL     1       7.235   4.560  17.775  0.00  0.00    +0.000 C 
ATOM      9  O   UNL     1       7.841   5.847  17.565  0.00  0.00    +0.000 OA
ATOM     10  C   UNL     1       6.868   6.181  16.552  0.00  0.00    +0.000 C 
BRANCH   7  11
ATOM     11  C   UNL     1       6.348   3.865  15.466  0.00  0.00    +0.000 C 
BRANCH  11  17
ATOM     12  C   UNL     1       5.698   3.269  12.395  0.00  0.00    +0.000 C 
ATOM     13  N   UNL     1       6.643   4.208  12.934  0.00  0.00    +0.000 N 
ATOM     14  C   UNL     1       7.479   4.981  12.182  0.00  0.00    +0.000 A 
ATOM     15  N   UNL     1       8.198   5.744  12.968  0.00  0.00    +0.000 NA
ATOM     16  N   UNL     1       7.843   5.457  14.261  0.00  0.00    +0.000 NA
ATOM     17  C   UNL     1       6.916   4.517  14.246  0.00  0.00    +0.000 A 
ENDBRANCH  11  17
ENDBRANCH   7  11
ENDBRANCH   1   7
BRANCH   5  18
ATOM     18  N   UNL     1       2.278   6.928  19.060  0.00  0.00    +0.000 N 
ATOM     19  C   UNL     1       1.835   6.969  20.366  0.00  0.00    +0.000 C 
ATOM     20  O   UNL     1       1.792   6.022  21.142  0.00  0.00    +0.000 OA
ATOM     21  H   UNL     1       2.319   7.826  18.583  0.00  0.00    +0.000 HD
BRANCH  19  22
ATOM     22  C   UNL     1       1.422   8.279  20.785  0.00  0.00    +0.000 A 
ATOM     23  N   UNL     1       1.497   8.696  22.093  0.00  0.00    +0.000 N 
ATOM     24  N   UNL     1       1.136   9.989  22.283  0.00  0.00    +0.000 NA
ATOM     25  C   UNL     1       0.809  10.396  21.055  0.00  0.00    +0.000 A 
ATOM     26  C   UNL     1       0.924   9.365  20.113  0.00  0.00    +0.000 A 
ATOM     27  O   UNL     1       0.695   9.446  18.784  0.00  0.00    +0.000 OA
ATOM     28  C   UNL     1       0.001  10.668  18.443  0.00  0.00    +0.000 C 
ATOM     29  C   UNL     1       0.565  11.913  19.157  0.00  0.00    +0.000 C 
ATOM     30  C   UNL     1       0.421  11.770  20.683  0.00  0.00    +0.000 C 
ATOM     31  H   UNL     1       1.816   8.154  22.890  0.00  0.00    +0.000 HD
ENDBRANCH  19  22
ENDBRANCH   5  18
TORSDOF 5
ENDMDL
MODEL 3
REMARK VINA RESULT:      -9.3      1.359      1.616
REMARK  Name = 
REMARK  6 active torsions:
REMARK  status: ('A' for Active; 'I' for Inactive)
REMARK    1  A    between atoms: C_1  and  N_2
REMARK    2  A    between atoms: C_6  and  C_7
REMARK    3  A    between atoms: C_7  and  C_8
REMARK    4  A    between atoms: C_8  and  C_9
REMARK    5  A    between atoms: C_13  and  N_14
REMARK    6  A    between atoms: C_15  and  C_17
REMARK                            x       y       z     vdW  Elec       q    Type
REMARK                         _______ _______ _______ _____ _____    ______ ____
ROOT
ATOM      1  C   UNL     1       4.517   4.721  17.398  0.00  0.00    +0.000 A 
ATOM      2  C   UNL     1       3.714   3.638  16.988  0.00  0.00    +0.000 A 
ATOM      3  C   UNL     1       2.392   3.500  17.406  0.00  0.00    +0.000 A 
ATOM      4  C   UNL     1       1.825   4.449  18.251  0.00  0.00    +0.000 A 
ATOM      5  C   UNL     1       2.578   5.535  18.684  0.00  0.00    +0.000 A 
ATOM      6  C   UNL     1       3.907   5.661  18.256  0.00  0.00    +0.000 A 
ENDROOT
BRANCH   1   7
ATOM      7  C   UNL     1       6.032   4.890  16.891  0.00  0.00    +0.000 C 
ATOM      8  C   UNL     1       7.127   4.792  17.993  0.00  0.00    +0.000 C 
ATOM      9  O   UNL     1       7.601   6.125  17.736  0.00  0.00    +0.000 OA
ATOM     10  C   UNL     1       6.597   6.326  16.718  0.00  0.00    +0.000 C 
BRANCH   7  11
ATOM     11  C   UNL     1       6.308   3.934  15.714  0.00  0.00    +0.000 C 
BRANCH  11  17
ATOM     12  C   UNL     1       5.681   3.402  12.627  0.00  0.00    +0.000 C 
ATOM     13  N   UNL     1       6.654   4.297  13.191  0.00  0.00    +0.000 N 
ATOM     14  C   UNL     1       7.530   5.046  12.462  0.00  0.00    +0.000 A 
ATOM     15  N   UNL     1       8.266   5.771  13.269  0.00  0.00    +0.000 NA
ATOM     16  N   UNL     1       7.881   5.482  14.552  0.00  0.00    +0.000 NA
ATOM     17  C   UNL     1       6.919   4.578  14.511  0.00  0.00    +0.000 A 
ENDBRANCH  11  17
ENDBRANCH   7  11
ENDBRANCH   1   7
BRANCH   5  18
ATOM     18  N   UNL     1       2.077   6.544  19.520  0.00  0.00    +0.000 N 
ATOM     19  C   UNL     1       1.895   7.880  19.223  0.00  0.00    +0.000 C 
ATOM     20  O   UNL     1       2.114   8.412  18.141  0.00  0.00    +0.000 OA
ATOM     21  H   UNL     1       1.770   6.256  20.447  0.00  0.00    +0.000 HD
BRANCH  19  22
ATOM     22  C   UNL     1       1.380   8.642  20.325  0.00  0.00    +0.000 A 
ATOM     23  N   UNL     1       1.781   8.430  21.623  0.00  0.00    +0.000 N 
ATOM     24  N   UNL     1       1.246   9.297  22.516  0.00  0.00    +0.000 NA
ATOM     25  C   UNL     1       0.469  10.073  21.758  0.00  0.00    +0.000 A 
ATOM     26  C   UNL     1       0.484   9.676  20.414  0.00  0.00    +0.000 A 
ATOM     27  O   UNL     1      -0.168  10.259  19.384  0.00  0.00    +0.000 OA
ATOM     28  C   UNL     1      -1.166  11.193  19.854  0.00  0.00    +0.000 C 
ATOM     29  C   UNL     1      -0.669  12.096  21.001  0.00  0.00    +0.000 C 
ATOM     30  C   UNL     1      -0.288  11.249  22.228  0.00  0.00    +0.000 C 
ATOM     31  H   UNL     1       2.440   7.732  21.953  0.00  0.00    +0.000 HD
ENDBRANCH  19  22
ENDBRANCH   5  18
TORSDOF 5
ENDMDL
MODEL 4
REMARK VINA RESULT:      -8.9      1.108      1.160
REMARK  Name = 
REMARK  6 active torsions:
REMARK  status: ('A' for Active; 'I' for Inactive)
REMARK    1  A    between atoms: C_1  and  N_2
REMARK    2  A    between atoms: C_6  and  C_7
REMARK    3  A    between atoms: C_7  and  C_8
REMARK    4  A    between atoms: C_8  and  C_9
REMARK    5  A    between atoms: C_13  and  N_14
REMARK    6  A    between atoms: C_15  and  C_17
REMARK                            x       y       z     vdW  Elec       q    Type
REMARK                         _______ _______ _______ _____ _____    ______ ____
ROOT
ATOM      1  C   UNL     1       4.721   5.023  17.278  0.00  0.00    +0.000 A 
ATOM      2  C   UNL     1       3.908   3.892  17.061  0.00  0.00    +0.000 A 
ATOM      3  C   UNL     1       2.553   3.883  17.385  0.00  0.00    +0.000 A 
ATOM      4  C   UNL     1       1.961   5.015  17.938  0.00  0.00    +0.000 A 
ATOM      5  C   UNL     1       2.722   6.155  18.173  0.00  0.00    +0.000 A 
ATOM      6  C   UNL     1       4.084   6.149  17.842  0.00  0.00    +0.000 A 
ENDROOT
BRANCH   1   7
ATOM      7  C   UNL     1       6.275   5.036  16.877  0.00  0.00    +0.000 C 
ATOM      8  C   UNL     1       7.278   4.865  18.056  0.00  0.00    +0.000 C 
ATOM      9  O   UNL     1       7.893   6.141  17.808  0.00  0.00    +0.000 OA
ATOM     10  C   UNL     1       6.985   6.408  16.718  0.00  0.00    +0.000 C 
BRANCH   7  11
ATOM     11  C   UNL     1       6.541   4.028  15.742  0.00  0.00    +0.000 C 
BRANCH  11  17
ATOM     12  C   UNL     1       5.666   3.374  12.740  0.00  0.00    +0.000 C 
ATOM     13  N   UNL     1       6.671   4.299  13.187  0.00  0.00    +0.000 N 
ATOM     14  C   UNL     1       7.474   5.028  12.361  0.00  0.00    +0.000 A 
ATOM     15  N   UNL     1       8.265   5.791  13.075  0.00  0.00    +0.000 NA
ATOM     16  N   UNL     1       7.991   5.546  14.396  0.00  0.00    +0.000 NA
ATOM     17  C   UNL     1       7.041   4.632  14.469  0.00  0.00    +0.000 A 
ENDBRANCH  11  17
ENDBRANCH   7  11
ENDBRANCH   1   7
BRANCH   5  18
ATOM     18  N   UNL     1       2.199   7.341  18.709  0.00  0.00    +0.000 N 
ATOM     19  C   UNL     1       1.684   7.547  19.973  0.00  0.00    +0.000 C 
ATOM     20  O   UNL     1       1.626   6.714  20.870  0.00  0.00    +0.000 OA
ATOM     21  H   UNL     1       2.240   8.166  18.114  0.00  0.00    +0.000 HD
BRANCH  19  22
ATOM     22  C   UNL     1       1.212   8.886  20.183  0.00  0.00    +0.000 A 
ATOM     23  N   UNL     1       1.301   9.862  19.219  0.00  0.00    +0.000 N 
ATOM     24  N   UNL     1       0.732  11.041  19.571  0.00  0.00    +0.000 NA
ATOM     25  C   UNL     1       0.284  10.805  20.806  0.00  0.00    +0.000 A 
ATOM     26  C   UNL     1       0.600   9.510  21.239  0.00  0.00    +0.000 A 
ATOM     27  O   UNL     1       0.274   8.944  22.422  0.00  0.00    +0.000 OA
ATOM     28  C   UNL     1      -0.195   9.932  23.367  0.00  0.00    +0.000 C 
ATOM     29  C   UNL     1      -1.179  10.948  22.755  0.00  0.00    +0.000 C 
ATOM     30  C   UNL     1      -0.500  11.747  21.628  0.00  0.00    +0.000 C 
ATOM     31  H   UNL     1       1.707   9.772  18.293  0.00  0.00    +0.000 HD
ENDBRANCH  19  22
ENDBRANCH   5  18
TORSDOF 5
ENDMDL
MODEL 5
REMARK VINA RESULT:      -8.9      2.217      3.466
REMARK  Name = 
REMARK  6 active torsions:
REMARK  status: ('A' for Active; 'I' for Inactive)
REMARK    1  A    between atoms: C_1  and  N_2
REMARK    2  A    between atoms: C_6  and  C_7
REMARK    3  A    between atoms: C_7  and  C_8
REMARK    4  A    between atoms: C_8  and  C_9
REMARK    5  A    between atoms: C_13  and  N_14
REMARK    6  A    between atoms: C_15  and  C_17
REMARK                            x       y       z     vdW  Elec       q    Type
REMARK                         _______ _______ _______ _____ _____    ______ ____
ROOT
ATOM      1  C   UNL     1       4.320   4.476  16.950  0.00  0.00    +0.000 A 
ATOM      2  C   UNL     1       3.521   3.316  16.971  0.00  0.00    +0.000 A 
ATOM      3  C   UNL     1       2.319   3.260  17.674  0.00  0.00    +0.000 A 
ATOM      4  C   UNL     1       1.873   4.372  18.382  0.00  0.00    +0.000 A 
ATOM      5  C   UNL     1       2.627   5.540  18.393  0.00  0.00    +0.000 A 
ATOM      6  C   UNL     1       3.835   5.582  17.682  0.00  0.00    +0.000 A 
ENDROOT
BRANCH   1   7
ATOM      7  C   UNL     1       5.690   4.544  16.116  0.00  0.00    +0.000 C 
ATOM      8  C   UNL     1       5.781   5.682  15.057  0.00  0.00    +0.000 C 
ATOM      9  O   UNL     1       5.949   4.752  13.973  0.00  0.00    +0.000 OA
ATOM     10  C   UNL     1       5.842   3.627  14.871  0.00  0.00    +0.000 C 
BRANCH   7  11
ATOM     11  C   UNL     1       6.897   4.548  17.075  0.00  0.00    +0.000 C 
BRANCH  11  17
ATOM     12  C   UNL     1       7.994   5.615  19.879  0.00  0.00    +0.000 C 
ATOM     13  N   UNL     1       7.850   6.345  18.649  0.00  0.00    +0.000 N 
ATOM     14  C   UNL     1       8.121   7.674  18.502  0.00  0.00    +0.000 A 
ATOM     15  N   UNL     1       7.911   8.031  17.259  0.00  0.00    +0.000 NA
ATOM     16  N   UNL     1       7.477   6.922  16.578  0.00  0.00    +0.000 NA
ATOM     17  C   UNL     1       7.421   5.905  17.419  0.00  0.00    +0.000 A 
ENDBRANCH  11  17
ENDBRANCH   7  11
ENDBRANCH   1   7
BRANCH   5  18
ATOM     18  N   UNL     1       2.241   6.709  19.065  0.00  0.00    +0.000 N 
ATOM     19  C   UNL     1       1.793   6.832  20.365  0.00  0.00    +0.000 C 
ATOM     20  O   UNL     1       1.686   5.921  21.178  0.00  0.00    +0.000 OA
ATOM     21  H   UNL     1       2.341   7.582  18.553  0.00  0.00    +0.000 HD
BRANCH  19  22
ATOM     22  C   UNL     1       1.460   8.181  20.726  0.00  0.00    +0.000 A 
ATOM     23  N   UNL     1       1.607   8.663  22.005  0.00  0.00    +0.000 N 
ATOM     24  N   UNL     1       1.316   9.980  22.137  0.00  0.00    +0.000 NA
ATOM     25  C   UNL     1       0.959  10.337  20.901  0.00  0.00    +0.000 A 
ATOM     26  C   UNL     1       0.986   9.252  20.014  0.00  0.00    +0.000 A 
ATOM     27  O   UNL     1       0.707   9.274  18.692  0.00  0.00    +0.000 OA
ATOM     28  C   UNL     1       0.059  10.508  18.311  0.00  0.00    +0.000 C 
ATOM     29  C   UNL     1       0.709  11.760  18.933  0.00  0.00    +0.000 C 
ATOM     30  C   UNL     1       0.621  11.707  20.468  0.00  0.00    +0.000 C 
ATOM     31  H   UNL     1       1.932   8.150  22.818  0.00  0.00    +0.000 HD
ENDBRANCH  19  22
ENDBRANCH   5  18
TORSDOF 5
ENDMDL
MODEL 6
REMARK VINA RESULT:      -8.8      2.444      3.618
REMARK  Name = 
REMARK  6 active torsions:
REMARK  status: ('A' for Active; 'I' for Inactive)
REMARK    1  A    between atoms: C_1  and  N_2
REMARK    2  A    between atoms: C_6  and  C_7
REMARK    3  A    between atoms: C_7  and  C_8
REMARK    4  A    between atoms: C_8  and  C_9
REMARK    5  A    between atoms: C_13  and  N_14
REMARK    6  A    between atoms: C_15  and  C_17
REMARK                            x       y       z     vdW  Elec       q    Type
REMARK                         _______ _______ _______ _____ _____    ______ ____
ROOT
ATOM      1  C   UNL     1       4.307   4.706  16.755  0.00  0.00    +0.000 A 
ATOM      2  C   UNL     1       3.564   3.510  16.810  0.00  0.00    +0.000 A 
ATOM      3  C   UNL     1       2.411   3.391  17.584  0.00  0.00    +0.000 A 
ATOM      4  C   UNL     1       1.960   4.474  18.332  0.00  0.00    +0.000 A 
ATOM      5  C   UNL     1       2.660   5.676  18.313  0.00  0.00    +0.000 A 
ATOM      6  C   UNL     1       3.818   5.781  17.529  0.00  0.00    +0.000 A 
ENDROOT
BRANCH   1   7
ATOM      7  C   UNL     1       5.618   4.845  15.839  0.00  0.00    +0.000 C 
ATOM      8  C   UNL     1       5.377   4.794  14.302  0.00  0.00    +0.000 C 
ATOM      9  O   UNL     1       6.205   3.630  14.141  0.00  0.00    +0.000 OA
ATOM     10  C   UNL     1       6.462   3.571  15.561  0.00  0.00    +0.000 C 
BRANCH   7  11
ATOM     11  C   UNL     1       6.429   6.087  16.257  0.00  0.00    +0.000 C 
BRANCH  11  17
ATOM     12  C   UNL     1       7.970   8.348  17.906  0.00  0.00    +0.000 C 
ATOM     13  N   UNL     1       7.796   6.964  18.252  0.00  0.00    +0.000 N 
ATOM     14  C   UNL     1       8.331   6.370  19.357  0.00  0.00    +0.000 A 
ATOM     15  N   UNL     1       7.969   5.110  19.398  0.00  0.00    +0.000 NA
ATOM     16  N   UNL     1       7.198   4.866  18.291  0.00  0.00    +0.000 NA
ATOM     17  C   UNL     1       7.105   5.978  17.586  0.00  0.00    +0.000 A 
ENDBRANCH  11  17
ENDBRANCH   7  11
ENDBRANCH   1   7
BRANCH   5  18
ATOM     18  N   UNL     1       2.263   6.819  19.022  0.00  0.00    +0.000 N 
ATOM     19  C   UNL     1       1.760   6.889  20.305  0.00  0.00    +0.000 C 
ATOM     20  O   UNL     1       1.604   5.944  21.070  0.00  0.00    +0.000 OA
ATOM     21  H   UNL     1       2.398   7.713  18.555  0.00  0.00    +0.000 HD
BRANCH  19  22
ATOM     22  C   UNL     1       1.433   8.226  20.715  0.00  0.00    +0.000 A 
ATOM     23  N   UNL     1       1.576   8.659  22.012  0.00  0.00    +0.000 N 
ATOM     24  N   UNL     1       1.292   9.972  22.191  0.00  0.00    +0.000 NA
ATOM     25  C   UNL     1       0.943  10.377  20.968  0.00  0.00    +0.000 A 
ATOM     26  C   UNL     1       0.969   9.326  20.041  0.00  0.00    +0.000 A 
ATOM     27  O   UNL     1       0.697   9.398  18.720  0.00  0.00    +0.000 OA
ATOM     28  C   UNL     1       0.058  10.650  18.381  0.00  0.00    +0.000 C 
ATOM     29  C   UNL     1       0.711  11.874  19.053  0.00  0.00    +0.000 C 
ATOM     30  C   UNL     1       0.615  11.764  20.585  0.00  0.00    +0.000 C 
ATOM     31  H   UNL     1       1.894   8.114  22.806  0.00  0.00    +0.000 HD
ENDBRANCH  19  22
ENDBRANCH   5  18
TORSDOF 5
ENDMDL
MODEL 7
REMARK VINA RESULT:      -8.8      2.748      4.182
REMARK  Name = 
REMARK  6 active torsions:
REMARK  status: ('A' for Active; 'I' for Inactive)
REMARK    1  A    between atoms: C_1  and  N_2
REMARK    2  A    between atoms: C_6  and  C_7
REMARK    3  A    between atoms: C_7  and  C_8
REMARK    4  A    between atoms: C_8  and  C_9
REMARK    5  A    between atoms: C_13  and  N_14
REMARK    6  A    between atoms: C_15  and  C_17
REMARK                            x       y       z     vdW  Elec       q    Type
REMARK                         _______ _______ _______ _____ _____    ______ ____
ROOT
ATOM      1  C   UNL     1       3.133   5.508  18.511  0.00  0.00    +0.000 A 
ATOM      2  C   UNL     1       3.701   6.138  17.385  0.00  0.00    +0.000 A 
ATOM      3  C   UNL     1       3.534   7.499  17.138  0.00  0.00    +0.000 A 
ATOM      4  C   UNL     1       2.789   8.281  18.017  0.00  0.00    +0.000 A 
ATOM      5  C   UNL     1       2.206   7.704  19.140  0.00  0.00    +0.000 A 
ATOM      6  C   UNL     1       2.383   6.334  19.376  0.00  0.00    +0.000 A 
ENDROOT
BRANCH   1   7
ATOM      7  C   UNL     1       3.352   3.945  18.804  0.00  0.00    +0.000 C 
ATOM      8  C   UNL     1       2.195   3.005  18.356  0.00  0.00    +0.000 C 
ATOM      9  O   UNL     1       1.964   2.538  19.697  0.00  0.00    +0.000 OA
ATOM     10  C   UNL     1       2.997   3.402  20.216  0.00  0.00    +0.000 C 
BRANCH   7  11
ATOM     11  C   UNL     1       4.717   3.487  18.253  0.00  0.00    +0.000 C 
BRANCH  11  17
ATOM     12  C   UNL     1       7.042   4.632  16.386  0.00  0.00    +0.000 C 
ATOM     13  N   UNL     1       6.880   4.805  17.804  0.00  0.00    +0.000 N 
ATOM     14  C   UNL     1       7.760   5.466  18.608  0.00  0.00    +0.000 A 
ATOM     15  N   UNL     1       7.315   5.467  19.841  0.00  0.00    +0.000 NA
ATOM     16  N   UNL     1       6.129   4.779  19.852  0.00  0.00    +0.000 NA
ATOM     17  C   UNL     1       5.871   4.361  18.626  0.00  0.00    +0.000 A 
ENDBRANCH  11  17
ENDBRANCH   7  11
ENDBRANCH   1   7
BRANCH   5  18
ATOM     18  N   UNL     1       1.457   8.423  20.083  0.00  0.00    +0.000 N 
ATOM     19  C   UNL     1       0.862   9.660  19.930  0.00  0.00    +0.000 C 
ATOM     20  O   UNL     1       0.863  10.337  18.909  0.00  0.00    +0.000 OA
ATOM     21  H   UNL     1       1.291   7.966  20.977  0.00  0.00    +0.000 HD
BRANCH  19  22
ATOM     22  C   UNL     1       0.186  10.115  21.112  0.00  0.00    +0.000 A 
ATOM     23  N   UNL     1       0.486   9.638  22.366  0.00  0.00    +0.000 N 
ATOM     24  N   UNL     1      -0.201  10.242  23.367  0.00  0.00    +0.000 NA
ATOM     25  C   UNL     1      -0.971  11.119  22.719  0.00  0.00    +0.000 A 
ATOM     26  C   UNL     1      -0.800  11.041  21.331  0.00  0.00    +0.000 A 
ATOM     27  O   UNL     1      -1.405  11.801  20.392  0.00  0.00    +0.000 OA
ATOM     28  C   UNL     1      -2.519  12.537  20.947  0.00  0.00    +0.000 C 
ATOM     29  C   UNL     1      -2.208  13.183  22.311  0.00  0.00    +0.000 C 
ATOM     30  C   UNL     1      -1.866  12.105  23.354  0.00  0.00    +0.000 C 
ATOM     31  H   UNL     1       1.171   8.927  22.602  0.00  0.00    +0.000 HD
ENDBRANCH  19  22
ENDBRANCH   5  18
TORSDOF 5
ENDMDL
MODEL 8
REMARK VINA RESULT:      -8.7      0.885      1.384
REMARK  Name = 
REMARK  6 active torsions:
REMARK  status: ('A' for Active; 'I' for Inactive)
REMARK    1  A    between atoms: C_1  and  N_2
REMARK    2  A    between atoms: C_6  and  C_7
REMARK    3  A    between atoms: C_7  and  C_8
REMARK    4  A    between atoms: C_8  and  C_9
REMARK    5  A    between atoms: C_13  and  N_14
REMARK    6  A    between atoms: C_15  and  C_17
REMARK                            x       y       z     vdW  Elec       q    Type
REMARK                         _______ _______ _______ _____ _____    ______ ____
ROOT
ATOM      1  C   UNL     1       4.436   5.302  17.183  0.00  0.00    +0.000 A 
ATOM      2  C   UNL     1       3.725   4.089  17.286  0.00  0.00    +0.000 A 
ATOM      3  C   UNL     1       2.493   4.007  17.932  0.00  0.00    +0.000 A 
ATOM      4  C   UNL     1       1.928   5.145  18.500  0.00  0.00    +0.000 A 
ATOM      5  C   UNL     1       2.592   6.365  18.428  0.00  0.00    +0.000 A 
ATOM      6  C   UNL     1       3.830   6.432  17.773  0.00  0.00    +0.000 A 
ENDROOT
BRANCH   1   7
ATOM      7  C   UNL     1       5.841   5.395  16.413  0.00  0.00    +0.000 C 
ATOM      8  C   UNL     1       6.743   4.129  16.498  0.00  0.00    +0.000 C 
ATOM      9  O   UNL     1       7.810   4.849  17.139  0.00  0.00    +0.000 OA
ATOM     10  C   UNL     1       7.038   6.069  17.138  0.00  0.00    +0.000 C 
BRANCH   7  11
ATOM     11  C   UNL     1       5.620   5.851  14.957  0.00  0.00    +0.000 C 
BRANCH  11  17
ATOM     12  C   UNL     1       8.227   5.567  13.132  0.00  0.00    +0.000 C 
ATOM     13  N   UNL     1       7.046   4.747  13.123  0.00  0.00    +0.000 N 
ATOM     14  C   UNL     1       6.830   3.712  12.260  0.00  0.00    +0.000 A 
ATOM     15  N   UNL     1       5.675   3.153  12.525  0.00  0.00    +0.000 NA
ATOM     16  N   UNL     1       5.112   3.842  13.569  0.00  0.00    +0.000 NA
ATOM     17  C   UNL     1       5.929   4.817  13.921  0.00  0.00    +0.000 A 
ENDBRANCH  11  17
ENDBRANCH   7  11
ENDBRANCH   1   7
BRANCH   5  18
ATOM     18  N   UNL     1       2.083   7.560  18.957  0.00  0.00    +0.000 N 
ATOM     19  C   UNL     1       1.872   8.757  18.302  0.00  0.00    +0.000 C 
ATOM     20  O   UNL     1       2.070   8.969  17.111  0.00  0.00    +0.000 OA
ATOM     21  H   UNL     1       1.791   7.538  19.932  0.00  0.00    +0.000 HD
BRANCH  19  22
ATOM     22  C   UNL     1       1.357   9.789  19.156  0.00  0.00    +0.000 A 
ATOM     23  N   UNL     1       1.187  11.085  18.731  0.00  0.00    +0.000 N 
ATOM     24  N   UNL     1       0.617  11.899  19.652  0.00  0.00    +0.000 NA
ATOM     25  C   UNL     1       0.435  11.092  20.700  0.00  0.00    +0.000 A 
ATOM     26  C   UNL     1       0.920   9.800  20.455  0.00  0.00    +0.000 A 
ATOM     27  O   UNL     1       0.871   8.740  21.291  0.00  0.00    +0.000 OA
ATOM     28  C   UNL     1       0.527   9.145  22.635  0.00  0.00    +0.000 C 
ATOM     29  C   UNL     1      -0.627  10.165  22.692  0.00  0.00    +0.000 C 
ATOM     30  C   UNL     1      -0.238  11.461  21.960  0.00  0.00    +0.000 C 
ATOM     31  H   UNL     1       1.411  11.463  17.815  0.00  0.00    +0.000 HD
ENDBRANCH  19  22
ENDBRANCH   5  18
TORSDOF 5
ENDMDL
MODEL 9
REMARK VINA RESULT:      -8.7      1.613      2.373
REMARK  Name = 
REMARK  6 active torsions:
REMARK  status: ('A' for Active; 'I' for Inactive)
REMARK    1  A    between atoms: C_1  and  N_2
REMARK    2  A    between atoms: C_6  and  C_7
REMARK    3  A    between atoms: C_7  and  C_8
REMARK    4  A    between atoms: C_8  and  C_9
REMARK    5  A    between atoms: C_13  and  N_14
REMARK    6  A    between atoms: C_15  and  C_17
REMARK                            x       y       z     vdW  Elec       q    Type
REMARK                         _______ _______ _______ _____ _____    ______ ____
ROOT
ATOM      1  C   UNL     1       4.528   5.089  16.990  0.00  0.00    +0.000 A 
ATOM      2  C   UNL     1       3.770   3.909  16.849  0.00  0.00    +0.000 A 
ATOM      3  C   UNL     1       2.521   3.757  17.449  0.00  0.00    +0.000 A 
ATOM      4  C   UNL     1       1.986   4.790  18.212  0.00  0.00    +0.000 A 
ATOM      5  C   UNL     1       2.696   5.973  18.383  0.00  0.00    +0.000 A 
ATOM      6  C   UNL     1       3.951   6.112  17.773  0.00  0.00    +0.000 A 
ENDROOT
BRANCH   1   7
ATOM      7  C   UNL     1       5.954   5.268  16.273  0.00  0.00    +0.000 C 
ATOM      8  C   UNL     1       6.903   4.035  16.342  0.00  0.00    +0.000 C 
ATOM      9  O   UNL     1       7.918   4.770  17.048  0.00  0.00    +0.000 OA
ATOM     10  C   UNL     1       7.097   5.958  17.066  0.00  0.00    +0.000 C 
BRANCH   7  11
ATOM     11  C   UNL     1       5.764   5.772  14.829  0.00  0.00    +0.000 C 
BRANCH  11  17
ATOM     12  C   UNL     1       8.327   5.461  12.948  0.00  0.00    +0.000 C 
ATOM     13  N   UNL     1       7.127   4.670  12.946  0.00  0.00    +0.000 N 
ATOM     14  C   UNL     1       6.868   3.659  12.068  0.00  0.00    +0.000 A 
ATOM     15  N   UNL     1       5.705   3.123  12.345  0.00  0.00    +0.000 NA
ATOM     16  N   UNL     1       5.179   3.804  13.413  0.00  0.00    +0.000 NA
ATOM     17  C   UNL     1       6.027   4.752  13.768  0.00  0.00    +0.000 A 
ENDBRANCH  11  17
ENDBRANCH   7  11
ENDBRANCH   1   7
BRANCH   5  18
ATOM     18  N   UNL     1       2.220   7.067  19.120  0.00  0.00    +0.000 N 
ATOM     19  C   UNL     1       1.821   7.091  20.441  0.00  0.00    +0.000 C 
ATOM     20  O   UNL     1       1.846   6.144  21.218  0.00  0.00    +0.000 OA
ATOM     21  H   UNL     1       2.204   7.965  18.642  0.00  0.00    +0.000 HD
BRANCH  19  22
ATOM     22  C   UNL     1       1.365   8.382  20.874  0.00  0.00    +0.000 A 
ATOM     23  N   UNL     1       1.422   8.786  22.186  0.00  0.00    +0.000 N 
ATOM     24  N   UNL     1       1.019  10.064  22.390  0.00  0.00    +0.000 NA
ATOM     25  C   UNL     1       0.683  10.475  21.166  0.00  0.00    +0.000 A 
ATOM     26  C   UNL     1       0.833   9.459  20.213  0.00  0.00    +0.000 A 
ATOM     27  O   UNL     1       0.606   9.548  18.884  0.00  0.00    +0.000 OA
ATOM     28  C   UNL     1      -0.126  10.751  18.554  0.00  0.00    +0.000 C 
ATOM     29  C   UNL     1       0.395  12.004  19.285  0.00  0.00    +0.000 C 
ATOM     30  C   UNL     1       0.251  11.840  20.808  0.00  0.00    +0.000 C 
ATOM     31  H   UNL     1       1.756   8.245  22.978  0.00  0.00    +0.000 HD
ENDBRANCH  19  22
ENDBRANCH   5  18
TORSDOF 5
ENDMDL
