MODEL 1
REMARK VINA RESULT:      -8.4      0.000      0.000
REMARK  Name = 
REMARK  6 active torsions:
REMARK  status: ('A' for Active; 'I' for Inactive)
REMARK    1  A    between atoms: C_1  and  C_2
REMARK    2  A    between atoms: C_2  and  C_3
REMARK    3  A    between atoms: C_2  and  C_10
REMARK    4  A    between atoms: C_3  and  C_4
REMARK    5  A    between atoms: N_8  and  C_9
REMARK    6  A    between atoms: C_14  and  N_15
REMARK                            x       y       z     vdW  Elec       q    Type
REMARK                         _______ _______ _______ _____ _____    ______ ____
ROOT
ATOM      1  C   UNL     1       4.434   4.524  16.770  0.00  0.00    +0.000 A 
ATOM      2  C   UNL     1       3.715   3.322  16.744  0.00  0.00    +0.000 A 
ATOM      3  C   UNL     1       2.488   3.200  17.400  0.00  0.00    +0.000 A 
ATOM      4  C   UNL     1       1.961   4.272  18.117  0.00  0.00    +0.000 A 
ATOM      5  C   UNL     1       2.663   5.468  18.190  0.00  0.00    +0.000 A 
ATOM      6  C   UNL     1       3.885   5.592  17.505  0.00  0.00    +0.000 A 
ENDROOT
BRANCH   5   7
ATOM      7  N   UNL     1       2.210   6.591  18.901  0.00  0.00    +0.000 N 
ATOM      8  C   UNL     1       1.835   6.705  20.220  0.00  0.00    +0.000 C 
ATOM      9  O   UNL     1       1.881   5.777  21.028  0.00  0.00    +0.000 OA
ATOM     10  N   UNL     1       1.354   7.971  20.598  0.00  0.00    +0.000 N 
ATOM     11  C   UNL     1       0.917   8.136  21.983  0.00  0.00    +0.000 C 
ATOM     12  C   UNL     1      -0.300   9.036  22.092  0.00  0.00    +0.000 C 
ATOM     13  C   UNL     1       0.027  10.408  21.528  0.00  0.00    +0.000 C 
ATOM     14  C   UNL     1       0.758  10.320  20.218  0.00  0.00    +0.000 A 
ATOM     15  C   UNL     1       0.845  11.462  19.409  0.00  0.00    +0.000 A 
ATOM     16  C   UNL     1       1.523  11.409  18.198  0.00  0.00    +0.000 A 
ATOM     17  C   UNL     1       2.091  10.208  17.833  0.00  0.00    +0.000 A 
ATOM     18  N   UNL     1       2.027   9.092  18.589  0.00  0.00    +0.000 NA
ATOM     19  C   UNL     1       1.381   9.145  19.783  0.00  0.00    +0.000 A 
ATOM     20  H   UNL     1       2.236   7.479  18.409  0.00  0.00    +0.000 HD
ENDBRANCH   5   7
BRANCH   1  22
ATOM     21  C   UNL     1       5.941   3.733  14.848  0.00  0.00    +0.000 C 
ATOM     22  C   UNL     1       5.750   4.724  16.012  0.00  0.00    +0.000 C 
BRANCH  22  23
ATOM     23  C   UNL     1       6.961   4.689  16.977  0.00  0.00    +0.000 C 
BRANCH  23  24
ATOM     24  C   UNL     1       7.406   6.054  17.391  0.00  0.00    +0.000 A 
ATOM     25  N   UNL     1       7.500   7.117  16.615  0.00  0.00    +0.000 NA
ATOM     26  N   UNL     1       8.022   8.149  17.360  0.00  0.00    +0.000 NA
ATOM     27  C   UNL     1       8.224   7.699  18.576  0.00  0.00    +0.000 A 
ATOM     28  N   UNL     1       7.836   6.398  18.647  0.00  0.00    +0.000 N 
ATOM     29  C   UNL     1       7.888   5.560  19.815  0.00  0.00    +0.000 C 
ENDBRANCH  23  24
ENDBRANCH  22  23
ENDBRANCH   1  22
TORSDOF 4
ENDMDL
MODEL 2
REMARK VINA RESULT:      -8.3      1.281      2.474
REMARK  Name = 
REMARK  6 active torsions:
REMARK  status: ('A' for Active; 'I' for Inactive)
REMARK    1  A    between atoms: C_1  and  C_2
REMARK    2  A    between atoms: C_2  and  C_3
REMARK    3  A    between atoms: C_2  and  C_10
REMARK    4  A    between atoms: C_3  and  C_4
REMARK    5  A    between atoms: N_8  and  C_9
REMARK    6  A    between atoms: C_14  and  N_15
REMARK                            x       y       z     vdW  Elec       q    Type
REMARK                         _______ _______ _______ _____ _____    ______ ____
ROOT
ATOM      1  C   UNL     1       4.136   5.183  17.104  0.00  0.00    +0.000 A 
ATOM      2  C   UNL     1       3.532   3.971  17.461  0.00  0.00    +0.000 A 
ATOM      3  C   UNL     1       2.391   3.942  18.266  0.00  0.00    +0.000 A 
ATOM      4  C   UNL     1       1.840   5.126  18.751  0.00  0.00    +0.000 A 
ATOM      5  C   UNL     1       2.433   6.344  18.442  0.00  0.00    +0.000 A 
ATOM      6  C   UNL     1       3.566   6.367  17.610  0.00  0.00    +0.000 A 
ENDROOT
BRANCH   5   7
ATOM      7  N   UNL     1       1.949   7.580  18.901  0.00  0.00    +0.000 N 
ATOM      8  C   UNL     1       1.937   8.806  18.276  0.00  0.00    +0.000 C 
ATOM      9  O   UNL     1       2.348   8.996  17.131  0.00  0.00    +0.000 OA
ATOM     10  N   UNL     1       1.441   9.868  19.053  0.00  0.00    +0.000 N 
ATOM     11  C   UNL     1       1.432  11.197  18.444  0.00  0.00    +0.000 C 
ATOM     12  C   UNL     1       1.771  12.284  19.448  0.00  0.00    +0.000 C 
ATOM     13  C   UNL     1       0.756  12.271  20.577  0.00  0.00    +0.000 C 
ATOM     14  C   UNL     1       0.480  10.879  21.071  0.00  0.00    +0.000 A 
ATOM     15  C   UNL     1      -0.166  10.708  22.304  0.00  0.00    +0.000 A 
ATOM     16  C   UNL     1      -0.441   9.433  22.778  0.00  0.00    +0.000 A 
ATOM     17  C   UNL     1      -0.054   8.363  22.001  0.00  0.00    +0.000 A 
ATOM     18  N   UNL     1       0.568   8.491  20.810  0.00  0.00    +0.000 NA
ATOM     19  C   UNL     1       0.821   9.739  20.334  0.00  0.00    +0.000 A 
ATOM     20  H   UNL     1       1.454   7.572  19.787  0.00  0.00    +0.000 HD
ENDBRANCH   5   7
BRANCH   1  22
ATOM     21  C   UNL     1       5.276   4.284  14.986  0.00  0.00    +0.000 C 
ATOM     22  C   UNL     1       5.348   5.266  16.171  0.00  0.00    +0.000 C 
BRANCH  22  23
ATOM     23  C   UNL     1       6.671   5.092  16.957  0.00  0.00    +0.000 C 
BRANCH  23  24
ATOM     24  C   UNL     1       7.238   6.393  17.426  0.00  0.00    +0.000 A 
ATOM     25  N   UNL     1       7.238   7.532  16.761  0.00  0.00    +0.000 NA
ATOM     26  N   UNL     1       7.924   8.464  17.505  0.00  0.00    +0.000 NA
ATOM     27  C   UNL     1       8.317   7.879  18.612  0.00  0.00    +0.000 A 
ATOM     28  N   UNL     1       7.894   6.586  18.615  0.00  0.00    +0.000 N 
ATOM     29  C   UNL     1       8.113   5.625  19.660  0.00  0.00    +0.000 C 
ENDBRANCH  23  24
ENDBRANCH  22  23
ENDBRANCH   1  22
TORSDOF 4
ENDMDL
MODEL 3
REMARK VINA RESULT:      -8.2      1.810      3.515
REMARK  Name = 
REMARK  6 active torsions:
REMARK  status: ('A' for Active; 'I' for Inactive)
REMARK    1  A    between atoms: C_1  and  C_2
REMARK    2  A    between atoms: C_2  and  C_3
REMARK    3  A    between atoms: C_2  and  C_10
REMARK    4  A    between atoms: C_3  and  C_4
REMARK    5  A    between atoms: N_8  and  C_9
REMARK    6  A    between atoms: C_14  and  N_15
REMARK                            x       y       z     vdW  Elec       q    Type
REMARK                         _______ _______ _______ _____ _____    ______ ____
ROOT
ATOM      1  C   UNL     1       4.471   5.183  19.238  0.00  0.00    +0.000 A 
ATOM      2  C   UNL     1       3.848   4.009  19.682  0.00  0.00    +0.000 A 
ATOM      3  C   UNL     1       2.549   4.030  20.194  0.00  0.00    +0.000 A 
ATOM      4  C   UNL     1       1.849   5.231  20.296  0.00  0.00    +0.000 A 
ATOM      5  C   UNL     1       2.449   6.418  19.895  0.00  0.00    +0.000 A 
ATOM      6  C   UNL     1       3.747   6.385  19.356  0.00  0.00    +0.000 A 
ENDROOT
BRANCH   5   7
ATOM      7  N   UNL     1       1.820   7.670  19.976  0.00  0.00    +0.000 N 
ATOM      8  C   UNL     1       1.681   8.648  19.018  0.00  0.00    +0.000 C 
ATOM      9  O   UNL     1       2.091   8.539  17.862  0.00  0.00    +0.000 OA
ATOM     10  N   UNL     1       1.053   9.828  19.455  0.00  0.00    +0.000 N 
ATOM     11  C   UNL     1       0.906  10.909  18.482  0.00  0.00    +0.000 C 
ATOM     12  C   UNL     1       1.099  12.275  19.116  0.00  0.00    +0.000 C 
ATOM     13  C   UNL     1       0.070  12.479  20.214  0.00  0.00    +0.000 C 
ATOM     14  C   UNL     1      -0.055  11.272  21.100  0.00  0.00    +0.000 A 
ATOM     15  C   UNL     1      -0.703  11.399  22.337  0.00  0.00    +0.000 A 
ATOM     16  C   UNL     1      -0.841  10.296  23.170  0.00  0.00    +0.000 A 
ATOM     17  C   UNL     1      -0.320   9.097  22.737  0.00  0.00    +0.000 A 
ATOM     18  N   UNL     1       0.307   8.939  21.552  0.00  0.00    +0.000 NA
ATOM     19  C   UNL     1       0.427  10.012  20.726  0.00  0.00    +0.000 A 
ATOM     20  H   UNL     1       1.312   7.867  20.832  0.00  0.00    +0.000 HD
ENDBRANCH   5   7
BRANCH   1  22
ATOM     21  C   UNL     1       6.993   5.468  19.625  0.00  0.00    +0.000 C 
ATOM     22  C   UNL     1       5.867   5.198  18.609  0.00  0.00    +0.000 C 
BRANCH  22  23
ATOM     23  C   UNL     1       5.935   6.195  17.425  0.00  0.00    +0.000 C 
BRANCH  23  24
ATOM     24  C   UNL     1       6.449   5.565  16.171  0.00  0.00    +0.000 A 
ATOM     25  N   UNL     1       7.571   5.868  15.545  0.00  0.00    +0.000 NA
ATOM     26  N   UNL     1       7.637   5.119  14.393  0.00  0.00    +0.000 NA
ATOM     27  C   UNL     1       6.563   4.367  14.346  0.00  0.00    +0.000 A 
ATOM     28  N   UNL     1       5.799   4.599  15.447  0.00  0.00    +0.000 N 
ATOM     29  C   UNL     1       4.552   3.958  15.765  0.00  0.00    +0.000 C 
ENDBRANCH  23  24
ENDBRANCH  22  23
ENDBRANCH   1  22
TORSDOF 4
ENDMDL
MODEL 4
REMARK VINA RESULT:      -8.2      3.117      8.646
REMARK  Name = 
REMARK  6 active torsions:
REMARK  status: ('A' for Active; 'I' for Inactive)
REMARK    1  A    between atoms: C_1  and  C_2
REMARK    2  A    between atoms: C_2  and  C_3
REMARK    3  A    between atoms: C_2  and  C_10
REMARK    4  A    between atoms: C_3  and  C_4
REMARK    5  A    between atoms: N_8  and  C_9
REMARK    6  A    between atoms: C_14  and  N_15
REMARK                            x       y       z     vdW  Elec       q    Type
REMARK                         _______ _______ _______ _____ _____    ______ ____
ROOT
ATOM      1  C   UNL     1      -0.054  10.473  19.924  0.00  0.00    +0.000 A 
ATOM      2  C   UNL     1      -0.173  10.756  21.290  0.00  0.00    +0.000 A 
ATOM      3  C   UNL     1       0.413   9.931  22.253  0.00  0.00    +0.000 A 
ATOM      4  C   UNL     1       1.113   8.788  21.871  0.00  0.00    +0.000 A 
ATOM      5  C   UNL     1       1.223   8.460  20.526  0.00  0.00    +0.000 A 
ATOM      6  C   UNL     1       0.653   9.310  19.561  0.00  0.00    +0.000 A 
ENDROOT
BRANCH   5   7
ATOM      7  N   UNL     1       1.899   7.322  20.058  0.00  0.00    +0.000 N 
ATOM      8  C   UNL     1       2.745   7.182  18.982  0.00  0.00    +0.000 C 
ATOM      9  O   UNL     1       3.078   8.111  18.245  0.00  0.00    +0.000 OA
ATOM     10  N   UNL     1       3.199   5.872  18.745  0.00  0.00    +0.000 N 
ATOM     11  C   UNL     1       4.079   5.665  17.596  0.00  0.00    +0.000 C 
ATOM     12  C   UNL     1       3.801   4.347  16.897  0.00  0.00    +0.000 C 
ATOM     13  C   UNL     1       4.009   3.199  17.870  0.00  0.00    +0.000 C 
ATOM     14  C   UNL     1       3.373   3.469  19.204  0.00  0.00    +0.000 A 
ATOM     15  C   UNL     1       3.184   2.404  20.097  0.00  0.00    +0.000 A 
ATOM     16  C   UNL     1       2.608   2.628  21.340  0.00  0.00    +0.000 A 
ATOM     17  C   UNL     1       2.233   3.917  21.650  0.00  0.00    +0.000 A 
ATOM     18  N   UNL     1       2.402   4.964  20.815  0.00  0.00    +0.000 NA
ATOM     19  C   UNL     1       2.983   4.752  19.605  0.00  0.00    +0.000 A 
ATOM     20  H   UNL     1       1.835   6.488  20.634  0.00  0.00    +0.000 HD
ENDBRANCH   5   7
BRANCH   1  22
ATOM     21  C   UNL     1      -0.177  12.853  18.968  0.00  0.00    +0.000 C 
ATOM     22  C   UNL     1      -0.623  11.384  18.832  0.00  0.00    +0.000 C 
BRANCH  22  23
ATOM     23  C   UNL     1      -2.167  11.275  18.762  0.00  0.00    +0.000 C 
BRANCH  23  24
ATOM     24  C   UNL     1      -2.651  10.811  17.428  0.00  0.00    +0.000 A 
ATOM     25  N   UNL     1      -1.985  10.062  16.569  0.00  0.00    +0.000 NA
ATOM     26  N   UNL     1      -2.749   9.927  15.433  0.00  0.00    +0.000 NA
ATOM     27  C   UNL     1      -3.867  10.584  15.625  0.00  0.00    +0.000 A 
ATOM     28  N   UNL     1      -3.859  11.139  16.867  0.00  0.00    +0.000 N 
ATOM     29  C   UNL     1      -4.912  11.922  17.453  0.00  0.00    +0.000 C 
ENDBRANCH  23  24
ENDBRANCH  22  23
ENDBRANCH   1  22
TORSDOF 4
ENDMDL
MODEL 5
REMARK VINA RESULT:      -8.1      3.186      8.925
REMARK  Name = 
REMARK  6 active torsions:
REMARK  status: ('A' for Active; 'I' for Inactive)
REMARK    1  A    between atoms: C_1  and  C_2
REMARK    2  A    between atoms: C_2  and  C_3
REMARK    3  A    between atoms: C_2  and  C_10
REMARK    4  A    between atoms: C_3  and  C_4
REMARK    5  A    between atoms: N_8  and  C_9
REMARK    6  A    between atoms: C_14  and  N_15
REMARK                            x       y       z     vdW  Elec       q    Type
REMARK                         _______ _______ _______ _____ _____    ______ ____
ROOT
ATOM      1  C   UNL     1       0.444  10.269  20.963  0.00  0.00    +0.000 A 
ATOM      2  C   UNL     1       0.192  11.139  19.895  0.00  0.00    +0.000 A 
ATOM      3  C   UNL     1       0.538  10.795  18.586  0.00  0.00    +0.000 A 
ATOM      4  C   UNL     1       1.167   9.580  18.318  0.00  0.00    +0.000 A 
ATOM      5  C   UNL     1       1.460   8.708  19.359  0.00  0.00    +0.000 A 
ATOM      6  C   UNL     1       1.085   9.050  20.670  0.00  0.00    +0.000 A 
ENDROOT
BRANCH   5   7
ATOM      7  N   UNL     1       2.103   7.473  19.177  0.00  0.00    +0.000 N 
ATOM      8  C   UNL     1       3.052   7.103  18.253  0.00  0.00    +0.000 C 
ATOM      9  O   UNL     1       3.531   7.869  17.417  0.00  0.00    +0.000 OA
ATOM     10  N   UNL     1       3.436   5.750  18.299  0.00  0.00    +0.000 N 
ATOM     11  C   UNL     1       4.423   5.300  17.319  0.00  0.00    +0.000 C 
ATOM     12  C   UNL     1       4.133   3.894  16.825  0.00  0.00    +0.000 C 
ATOM     13  C   UNL     1       4.148   2.928  17.996  0.00  0.00    +0.000 C 
ATOM     14  C   UNL     1       3.387   3.460  19.177  0.00  0.00    +0.000 A 
ATOM     15  C   UNL     1       3.024   2.580  20.207  0.00  0.00    +0.000 A 
ATOM     16  C   UNL     1       2.328   3.049  21.314  0.00  0.00    +0.000 A 
ATOM     17  C   UNL     1       2.013   4.390  21.352  0.00  0.00    +0.000 A 
ATOM     18  N   UNL     1       2.349   5.264  20.379  0.00  0.00    +0.000 NA
ATOM     19  C   UNL     1       3.046   4.812  19.304  0.00  0.00    +0.000 A 
ATOM     20  H   UNL     1       1.915   6.758  19.874  0.00  0.00    +0.000 HD
ENDBRANCH   5   7
BRANCH   1  22
ATOM     21  C   UNL     1       0.095   9.351  23.336  0.00  0.00    +0.000 C 
ATOM     22  C   UNL     1       0.022  10.575  22.404  0.00  0.00    +0.000 C 
BRANCH  22  23
ATOM     23  C   UNL     1      -1.384  11.225  22.447  0.00  0.00    +0.000 C 
BRANCH  23  24
ATOM     24  C   UNL     1      -1.360  12.611  23.004  0.00  0.00    +0.000 A 
ATOM     25  N   UNL     1      -0.314  13.413  23.065  0.00  0.00    +0.000 NA
ATOM     26  N   UNL     1      -0.691  14.564  23.718  0.00  0.00    +0.000 NA
ATOM     27  C   UNL     1      -1.960  14.446  24.030  0.00  0.00    +0.000 A 
ATOM     28  N   UNL     1      -2.425  13.248  23.587  0.00  0.00    +0.000 N 
ATOM     29  C   UNL     1      -3.769  12.757  23.724  0.00  0.00    +0.000 C 
ENDBRANCH  23  24
ENDBRANCH  22  23
ENDBRANCH   1  22
TORSDOF 4
ENDMDL
MODEL 6
REMARK VINA RESULT:      -8.1      1.443      2.847
REMARK  Name = 
REMARK  6 active torsions:
REMARK  status: ('A' for Active; 'I' for Inactive)
REMARK    1  A    between atoms: C_1  and  C_2
REMARK    2  A    between atoms: C_2  and  C_3
REMARK    3  A    between atoms: C_2  and  C_10
REMARK    4  A    between atoms: C_3  and  C_4
REMARK    5  A    between atoms: N_8  and  C_9
REMARK    6  A    between atoms: C_14  and  N_15
REMARK                            x       y       z     vdW  Elec       q    Type
REMARK                         _______ _______ _______ _____ _____    ______ ____
ROOT
ATOM      1  C   UNL     1       3.626   5.012  18.529  0.00  0.00    +0.000 A 
ATOM      2  C   UNL     1       3.359   4.016  19.477  0.00  0.00    +0.000 A 
ATOM      3  C   UNL     1       2.521   4.262  20.566  0.00  0.00    +0.000 A 
ATOM      4  C   UNL     1       1.948   5.520  20.746  0.00  0.00    +0.000 A 
ATOM      5  C   UNL     1       2.218   6.540  19.842  0.00  0.00    +0.000 A 
ATOM      6  C   UNL     1       3.042   6.276  18.733  0.00  0.00    +0.000 A 
ENDROOT
BRANCH   5   7
ATOM      7  N   UNL     1       1.693   7.837  19.957  0.00  0.00    +0.000 N 
ATOM      8  C   UNL     1       1.702   8.872  19.051  0.00  0.00    +0.000 C 
ATOM      9  O   UNL     1       2.177   8.789  17.918  0.00  0.00    +0.000 OA
ATOM     10  N   UNL     1       1.148  10.079  19.517  0.00  0.00    +0.000 N 
ATOM     11  C   UNL     1       1.158  11.218  18.601  0.00  0.00    +0.000 C 
ATOM     12  C   UNL     1       1.424  12.526  19.324  0.00  0.00    +0.000 C 
ATOM     13  C   UNL     1       0.345  12.761  20.367  0.00  0.00    +0.000 C 
ATOM     14  C   UNL     1       0.058  11.525  21.171  0.00  0.00    +0.000 A 
ATOM     15  C   UNL     1      -0.657  11.644  22.372  0.00  0.00    +0.000 A 
ATOM     16  C   UNL     1      -0.943  10.515  23.129  0.00  0.00    +0.000 A 
ATOM     17  C   UNL     1      -0.497   9.299  22.659  0.00  0.00    +0.000 A 
ATOM     18  N   UNL     1       0.191   9.149  21.508  0.00  0.00    +0.000 NA
ATOM     19  C   UNL     1       0.456  10.249  20.755  0.00  0.00    +0.000 A 
ATOM     20  H   UNL     1       1.148   8.033  20.791  0.00  0.00    +0.000 HD
ENDBRANCH   5   7
BRANCH   1  22
ATOM     21  C   UNL     1       4.028   3.551  16.456  0.00  0.00    +0.000 C 
ATOM     22  C   UNL     1       4.485   4.767  17.284  0.00  0.00    +0.000 C 
BRANCH  22  23
ATOM     23  C   UNL     1       5.985   4.657  17.654  0.00  0.00    +0.000 C 
BRANCH  23  24
ATOM     24  C   UNL     1       6.679   5.980  17.644  0.00  0.00    +0.000 A 
ATOM     25  N   UNL     1       6.532   6.935  16.746  0.00  0.00    +0.000 NA
ATOM     26  N   UNL     1       7.405   7.953  17.053  0.00  0.00    +0.000 NA
ATOM     27  C   UNL     1       8.057   7.605  18.137  0.00  0.00    +0.000 A 
ATOM     28  N   UNL     1       7.622   6.385  18.553  0.00  0.00    +0.000 N 
ATOM     29  C   UNL     1       8.083   5.671  19.713  0.00  0.00    +0.000 C 
ENDBRANCH  23  24
ENDBRANCH  22  23
ENDBRANCH   1  22
TORSDOF 4
ENDMDL
MODEL 7
REMARK VINA RESULT:      -8.1      2.208      3.749
REMARK  Name = 
REMARK  6 active torsions:
REMARK  status: ('A' for Active; 'I' for Inactive)
REMARK    1  A    between atoms: C_1  and  C_2
REMARK    2  A    between atoms: C_2  and  C_3
REMARK    3  A    between atoms: C_2  and  C_10
REMARK    4  A    between atoms: C_3  and  C_4
REMARK    5  A    between atoms: N_8  and  C_9
REMARK    6  A    between atoms: C_14  and  N_15
REMARK                            x       y       z     vdW  Elec       q    Type
REMARK                         _______ _______ _______ _____ _____    ______ ____
ROOT
ATOM      1  C   UNL     1       4.200   5.895  17.507  0.00  0.00    +0.000 A 
ATOM      2  C   UNL     1       3.866   4.650  18.056  0.00  0.00    +0.000 A 
ATOM      3  C   UNL     1       2.844   4.528  18.999  0.00  0.00    +0.000 A 
ATOM      4  C   UNL     1       2.146   5.653  19.434  0.00  0.00    +0.000 A 
ATOM      5  C   UNL     1       2.473   6.907  18.934  0.00  0.00    +0.000 A 
ATOM      6  C   UNL     1       3.485   7.019  17.964  0.00  0.00    +0.000 A 
ENDROOT
BRANCH   5   7
ATOM      7  N   UNL     1       1.829   8.091  19.327  0.00  0.00    +0.000 N 
ATOM      8  C   UNL     1       1.624   9.256  18.625  0.00  0.00    +0.000 C 
ATOM      9  O   UNL     1       1.973   9.423  17.455  0.00  0.00    +0.000 OA
ATOM     10  N   UNL     1       1.001  10.289  19.348  0.00  0.00    +0.000 N 
ATOM     11  C   UNL     1       0.785  11.557  18.655  0.00  0.00    +0.000 C 
ATOM     12  C   UNL     1       0.990  12.749  19.572  0.00  0.00    +0.000 C 
ATOM     13  C   UNL     1       0.018  12.671  20.736  0.00  0.00    +0.000 C 
ATOM     14  C   UNL     1      -0.041  11.292  21.330  0.00  0.00    +0.000 A 
ATOM     15  C   UNL     1      -0.623  11.118  22.593  0.00  0.00    +0.000 A 
ATOM     16  C   UNL     1      -0.699   9.852  23.160  0.00  0.00    +0.000 A 
ATOM     17  C   UNL     1      -0.183   8.796  22.440  0.00  0.00    +0.000 A 
ATOM     18  N   UNL     1       0.382   8.929  21.222  0.00  0.00    +0.000 NA
ATOM     19  C   UNL     1       0.441  10.163  20.657  0.00  0.00    +0.000 A 
ATOM     20  H   UNL     1       1.364   8.075  20.230  0.00  0.00    +0.000 HD
ENDBRANCH   5   7
BRANCH   1  22
ATOM     21  C   UNL     1       4.881   7.096  15.342  0.00  0.00    +0.000 C 
ATOM     22  C   UNL     1       5.267   6.067  16.422  0.00  0.00    +0.000 C 
BRANCH  22  23
ATOM     23  C   UNL     1       5.640   4.705  15.784  0.00  0.00    +0.000 C 
BRANCH  23  24
ATOM     24  C   UNL     1       6.631   4.841  14.674  0.00  0.00    +0.000 A 
ATOM     25  N   UNL     1       7.756   5.530  14.708  0.00  0.00    +0.000 NA
ATOM     26  N   UNL     1       8.338   5.465  13.463  0.00  0.00    +0.000 NA
ATOM     27  C   UNL     1       7.564   4.731  12.700  0.00  0.00    +0.000 A 
ATOM     28  N   UNL     1       6.493   4.303  13.421  0.00  0.00    +0.000 N 
ATOM     29  C   UNL     1       5.429   3.463  12.941  0.00  0.00    +0.000 C 
ENDBRANCH  23  24
ENDBRANCH  22  23
ENDBRANCH   1  22
TORSDOF 4
ENDMDL
MODEL 8
REMARK VINA RESULT:      -7.9      0.764      1.275
REMARK  Name = 
REMARK  6 active torsions:
REMARK  status: ('A' for Active; 'I' for Inactive)
REMARK    1  A    between atoms: C_1  and  C_2
REMARK    2  A    between atoms: C_2  and  C_3
REMARK    3  A    between atoms: C_2  and  C_10
REMARK    4  A    between atoms: C_3  and  C_4
REMARK    5  A    between atoms: N_8  and  C_9
REMARK    6  A    between atoms: C_14  and  N_15
REMARK                            x       y       z     vdW  Elec       q    Type
REMARK                         _______ _______ _______ _____ _____    ______ ____
ROOT
ATOM      1  C   UNL     1       4.652   4.855  16.567  0.00  0.00    +0.000 A 
ATOM      2  C   UNL     1       4.188   3.544  16.736  0.00  0.00    +0.000 A 
ATOM      3  C   UNL     1       3.118   3.261  17.589  0.00  0.00    +0.000 A 
ATOM      4  C   UNL     1       2.502   4.281  18.311  0.00  0.00    +0.000 A 
ATOM      5  C   UNL     1       2.959   5.588  18.191  0.00  0.00    +0.000 A 
ATOM      6  C   UNL     1       4.019   5.868  17.311  0.00  0.00    +0.000 A 
ENDROOT
BRANCH   5   7
ATOM      7  N   UNL     1       2.404   6.670  18.892  0.00  0.00    +0.000 N 
ATOM      8  C   UNL     1       1.949   6.738  20.189  0.00  0.00    +0.000 C 
ATOM      9  O   UNL     1       2.001   5.800  20.984  0.00  0.00    +0.000 OA
ATOM     10  N   UNL     1       1.377   7.969  20.558  0.00  0.00    +0.000 N 
ATOM     11  C   UNL     1       0.854   8.084  21.918  0.00  0.00    +0.000 C 
ATOM     12  C   UNL     1      -0.416   8.913  21.970  0.00  0.00    +0.000 C 
ATOM     13  C   UNL     1      -0.135  10.311  21.448  0.00  0.00    +0.000 C 
ATOM     14  C   UNL     1       0.672  10.288  20.181  0.00  0.00    +0.000 A 
ATOM     15  C   UNL     1       0.741  11.448  19.395  0.00  0.00    +0.000 A 
ATOM     16  C   UNL     1       1.489  11.456  18.225  0.00  0.00    +0.000 A 
ATOM     17  C   UNL     1       2.143  10.295  17.875  0.00  0.00    +0.000 A 
ATOM     18  N   UNL     1       2.099   9.163  18.608  0.00  0.00    +0.000 NA
ATOM     19  C   UNL     1       1.384   9.157  19.764  0.00  0.00    +0.000 A 
ATOM     20  H   UNL     1       2.408   7.567  18.416  0.00  0.00    +0.000 HD
ENDBRANCH   5   7
BRANCH   1  22
ATOM     21  C   UNL     1       5.503   4.770  14.146  0.00  0.00    +0.000 C 
ATOM     22  C   UNL     1       5.777   5.220  15.593  0.00  0.00    +0.000 C 
BRANCH  22  23
ATOM     23  C   UNL     1       7.143   4.685  16.093  0.00  0.00    +0.000 C 
BRANCH  23  24
ATOM     24  C   UNL     1       7.472   5.150  17.474  0.00  0.00    +0.000 A 
ATOM     25  N   UNL     1       7.659   4.387  18.534  0.00  0.00    +0.000 NA
ATOM     26  N   UNL     1       7.862   5.203  19.622  0.00  0.00    +0.000 NA
ATOM     27  C   UNL     1       7.807   6.446  19.203  0.00  0.00    +0.000 A 
ATOM     28  N   UNL     1       7.583   6.461  17.862  0.00  0.00    +0.000 N 
ATOM     29  C   UNL     1       7.474   7.631  17.034  0.00  0.00    +0.000 C 
ENDBRANCH  23  24
ENDBRANCH  22  23
ENDBRANCH   1  22
TORSDOF 4
ENDMDL
MODEL 9
REMARK VINA RESULT:      -7.9      2.933      8.626
REMARK  Name = 
REMARK  6 active torsions:
REMARK  status: ('A' for Active; 'I' for Inactive)
REMARK    1  A    between atoms: C_1  and  C_2
REMARK    2  A    between atoms: C_2  and  C_3
REMARK    3  A    between atoms: C_2  and  C_10
REMARK    4  A    between atoms: C_3  and  C_4
REMARK    5  A    between atoms: N_8  and  C_9
REMARK    6  A    between atoms: C_14  and  N_15
REMARK                            x       y       z     vdW  Elec       q    Type
REMARK                         _______ _______ _______ _____ _____    ______ ____
ROOT
ATOM      1  C   UNL     1       0.752  10.245  20.456  0.00  0.00    +0.000 A 
ATOM      2  C   UNL     1       0.903  11.187  19.430  0.00  0.00    +0.000 A 
ATOM      3  C   UNL     1       1.471  10.834  18.204  0.00  0.00    +0.000 A 
ATOM      4  C   UNL     1       1.922   9.534  17.983  0.00  0.00    +0.000 A 
ATOM      5  C   UNL     1       1.816   8.584  18.991  0.00  0.00    +0.000 A 
ATOM      6  C   UNL     1       1.220   8.940  20.213  0.00  0.00    +0.000 A 
ENDROOT
BRANCH   5   7
ATOM      7  N   UNL     1       2.257   7.257  18.855  0.00  0.00    +0.000 N 
ATOM      8  C   UNL     1       3.326   6.754  18.150  0.00  0.00    +0.000 C 
ATOM      9  O   UNL     1       4.122   7.451  17.520  0.00  0.00    +0.000 OA
ATOM     10  N   UNL     1       3.444   5.352  18.163  0.00  0.00    +0.000 N 
ATOM     11  C   UNL     1       4.548   4.766  17.406  0.00  0.00    +0.000 C 
ATOM     12  C   UNL     1       4.148   3.465  16.733  0.00  0.00    +0.000 C 
ATOM     13  C   UNL     1       3.705   2.462  17.785  0.00  0.00    +0.000 C 
ATOM     14  C   UNL     1       2.780   3.078  18.797  0.00  0.00    +0.000 A 
ATOM     15  C   UNL     1       2.026   2.239  19.630  0.00  0.00    +0.000 A 
ATOM     16  C   UNL     1       1.172   2.782  20.580  0.00  0.00    +0.000 A 
ATOM     17  C   UNL     1       1.097   4.156  20.664  0.00  0.00    +0.000 A 
ATOM     18  N   UNL     1       1.810   4.991  19.879  0.00  0.00    +0.000 NA
ATOM     19  C   UNL     1       2.661   4.462  18.961  0.00  0.00    +0.000 A 
ATOM     20  H   UNL     1       1.782   6.562  19.422  0.00  0.00    +0.000 HD
ENDBRANCH   5   7
BRANCH   1  22
ATOM     21  C   UNL     1      -0.342   9.319  22.587  0.00  0.00    +0.000 C 
ATOM     22  C   UNL     1       0.076  10.571  21.792  0.00  0.00    +0.000 C 
BRANCH  22  23
ATOM     23  C   UNL     1      -1.125  11.528  21.590  0.00  0.00    +0.000 C 
BRANCH  23  24
ATOM     24  C   UNL     1      -0.871  12.894  22.141  0.00  0.00    +0.000 A 
ATOM     25  N   UNL     1      -0.645  13.199  23.405  0.00  0.00    +0.000 NA
ATOM     26  N   UNL     1      -0.541  14.568  23.505  0.00  0.00    +0.000 NA
ATOM     27  C   UNL     1      -0.693  15.067  22.301  0.00  0.00    +0.000 A 
ATOM     28  N   UNL     1      -0.885  14.056  21.412  0.00  0.00    +0.000 N 
ATOM     29  C   UNL     1      -1.075  14.197  19.995  0.00  0.00    +0.000 C 
ENDBRANCH  23  24
ENDBRANCH  22  23
ENDBRANCH   1  22
TORSDOF 4
ENDMDL
