MODEL 1
REMARK VINA RESULT:      -8.1      0.000      0.000
REMARK  Name = 
REMARK  7 active torsions:
REMARK  status: ('A' for Active; 'I' for Inactive)
REMARK    1  A    between atoms: C_1  and  C_2
REMARK    2  A    between atoms: C_2  and  S_3
REMARK    3  A    between atoms: C_2  and  C_10
REMARK    4  A    between atoms: S_3  and  C_4
REMARK    5  A    between atoms: N_8  and  C_9
REMARK    6  A    between atoms: C_14  and  N_15
REMARK    7  A    between atoms: C_16  and  C_18
REMARK                            x       y       z     vdW  Elec       q    Type
REMARK                         _______ _______ _______ _____ _____    ______ ____
ROOT
ATOM      1  C   UNL     1       4.659   5.752  17.692  0.00  0.00    +0.000 A 
ATOM      2  C   UNL     1       5.199   4.719  16.908  0.00  0.00    +0.000 A 
ATOM      3  C   UNL     1       6.422   4.877  16.266  0.00  0.00    +0.000 A 
ATOM      4  C   UNL     1       7.126   6.074  16.395  0.00  0.00    +0.000 A 
ATOM      5  C   UNL     1       6.631   7.126  17.164  0.00  0.00    +0.000 A 
ATOM      6  C   UNL     1       5.412   6.943  17.834  0.00  0.00    +0.000 A 
ENDROOT
BRANCH   5   7
ATOM      7  N   UNL     1       7.312   8.361  17.280  0.00  0.00    +0.000 N 
ATOM      8  C   UNL     1       8.265   8.650  18.248  0.00  0.00    +0.000 C 
ATOM      9  O   UNL     1       8.706   7.862  19.081  0.00  0.00    +0.000 OA
ATOM     10  H   UNL     1       7.174   9.071  16.568  0.00  0.00    +0.000 HD
BRANCH   8  11
ATOM     11  C   UNL     1       8.823  10.042  18.248  0.00  0.00    +0.000 A 
ATOM     12  C   UNL     1       8.067  11.036  17.630  0.00  0.00    +0.000 A 
ATOM     13  C   UNL     1       8.584  12.316  17.555  0.00  0.00    +0.000 A 
ATOM     14  C   UNL     1       9.846  12.578  18.084  0.00  0.00    +0.000 A 
ATOM     15  C   UNL     1      10.533  11.531  18.721  0.00  0.00    +0.000 A 
ATOM     16  N   UNL     1      10.045  10.260  18.807  0.00  0.00    +0.000 NA
ATOM     17  C   UNL     1      11.917  11.763  19.279  0.00  0.00    +0.000 C 
ATOM     18  C   UNL     1      12.232  13.241  19.523  0.00  0.00    +0.000 C 
ATOM     19  C   UNL     1      11.887  14.064  18.288  0.00  0.00    +0.000 C 
ATOM     20  C   UNL     1      10.393  13.978  17.995  0.00  0.00    +0.000 C 
ENDBRANCH   8  11
ENDBRANCH   5   7
BRANCH   1  22
ATOM     21  C   UNL     1       2.331   6.767  17.978  0.00  0.00    +0.000 C 
ATOM     22  C   UNL     1       3.286   5.625  18.359  0.00  0.00    +0.000 C 
BRANCH  22  23
ATOM     23  S   UNL     1       2.510   4.004  17.962  0.00  0.00    +0.000 S 
BRANCH  23  24
ATOM     24  C   UNL     1       2.133   3.409  19.546  0.00  0.00    +0.000 A 
ATOM     25  N   UNL     1       0.987   3.537  20.179  0.00  0.00    +0.000 NA
ATOM     26  N   UNL     1       1.098   2.880  21.385  0.00  0.00    +0.000 NA
ATOM     27  C   UNL     1       2.308   2.379  21.454  0.00  0.00    +0.000 A 
ATOM     28  N   UNL     1       3.002   2.698  20.326  0.00  0.00    +0.000 N 
ATOM     29  C   UNL     1       4.360   2.319  20.046  0.00  0.00    +0.000 C 
ENDBRANCH  23  24
ENDBRANCH  22  23
ENDBRANCH   1  22
TORSDOF 5
ENDMDL
MODEL 2
REMARK VINA RESULT:      -8.1      2.255      3.094
REMARK  Name = 
REMARK  7 active torsions:
REMARK  status: ('A' for Active; 'I' for Inactive)
REMARK    1  A    between atoms: C_1  and  C_2
REMARK    2  A    between atoms: C_2  and  S_3
REMARK    3  A    between atoms: C_2  and  C_10
REMARK    4  A    between atoms: S_3  and  C_4
REMARK    5  A    between atoms: N_8  and  C_9
REMARK    6  A    between atoms: C_14  and  N_15
REMARK    7  A    between atoms: C_16  and  C_18
REMARK                            x       y       z     vdW  Elec       q    Type
REMARK                         _______ _______ _______ _____ _____    ______ ____
ROOT
ATOM      1  C   UNL     1       4.472   5.583  17.339  0.00  0.00    +0.000 A 
ATOM      2  C   UNL     1       5.139   4.511  16.723  0.00  0.00    +0.000 A 
ATOM      3  C   UNL     1       6.456   4.642  16.297  0.00  0.00    +0.000 A 
ATOM      4  C   UNL     1       7.128   5.851  16.475  0.00  0.00    +0.000 A 
ATOM      5  C   UNL     1       6.507   6.941  17.083  0.00  0.00    +0.000 A 
ATOM      6  C   UNL     1       5.190   6.787  17.539  0.00  0.00    +0.000 A 
ENDROOT
BRANCH   5   7
ATOM      7  N   UNL     1       7.160   8.188  17.243  0.00  0.00    +0.000 N 
ATOM      8  C   UNL     1       8.142   8.450  18.189  0.00  0.00    +0.000 C 
ATOM      9  O   UNL     1       8.637   7.629  18.958  0.00  0.00    +0.000 OA
ATOM     10  H   UNL     1       6.974   8.932  16.578  0.00  0.00    +0.000 HD
BRANCH   8  11
ATOM     11  C   UNL     1       8.662   9.855  18.247  0.00  0.00    +0.000 A 
ATOM     12  C   UNL     1       7.971  10.825  17.524  0.00  0.00    +0.000 A 
ATOM     13  C   UNL     1       8.463  12.117  17.503  0.00  0.00    +0.000 A 
ATOM     14  C   UNL     1       9.638  12.414  18.191  0.00  0.00    +0.000 A 
ATOM     15  C   UNL     1      10.259  11.389  18.925  0.00  0.00    +0.000 A 
ATOM     16  N   UNL     1       9.794  10.107  18.960  0.00  0.00    +0.000 NA
ATOM     17  C   UNL     1      11.552  11.660  19.657  0.00  0.00    +0.000 C 
ATOM     18  C   UNL     1      11.797  13.147  19.924  0.00  0.00    +0.000 C 
ATOM     19  C   UNL     1      11.598  13.952  18.645  0.00  0.00    +0.000 C 
ATOM     20  C   UNL     1      10.159  13.826  18.159  0.00  0.00    +0.000 C 
ENDBRANCH   8  11
ENDBRANCH   5   7
BRANCH   1  22
ATOM     21  C   UNL     1       2.476   4.039  17.746  0.00  0.00    +0.000 C 
ATOM     22  C   UNL     1       3.003   5.483  17.762  0.00  0.00    +0.000 C 
BRANCH  22  23
ATOM     23  S   UNL     1       2.748   6.221  19.430  0.00  0.00    +0.000 S 
BRANCH  23  24
ATOM     24  C   UNL     1       2.083   7.767  19.019  0.00  0.00    +0.000 A 
ATOM     25  N   UNL     1       2.059   8.318  17.826  0.00  0.00    +0.000 NA
ATOM     26  N   UNL     1       1.397   9.523  17.931  0.00  0.00    +0.000 NA
ATOM     27  C   UNL     1       1.044   9.672  19.186  0.00  0.00    +0.000 A 
ATOM     28  N   UNL     1       1.466   8.600  19.912  0.00  0.00    +0.000 N 
ATOM     29  C   UNL     1       1.259   8.413  21.322  0.00  0.00    +0.000 C 
ENDBRANCH  23  24
ENDBRANCH  22  23
ENDBRANCH   1  22
TORSDOF 5
ENDMDL
MODEL 3
REMARK VINA RESULT:      -8.0      6.868      9.115
REMARK  Name = 
REMARK  7 active torsions:
REMARK  status: ('A' for Active; 'I' for Inactive)
REMARK    1  A    between atoms: C_1  and  C_2
REMARK    2  A    between atoms: C_2  and  S_3
REMARK    3  A    between atoms: C_2  and  C_10
REMARK    4  A    between atoms: S_3  and  C_4
REMARK    5  A    between atoms: N_8  and  C_9
REMARK    6  A    between atoms: C_14  and  N_15
REMARK    7  A    between atoms: C_16  and  C_18
REMARK                            x       y       z     vdW  Elec       q    Type
REMARK                         _______ _______ _______ _____ _____    ______ ____
ROOT
ATOM      1  C   UNL     1       2.175   7.449  19.738  0.00  0.00    +0.000 A 
ATOM      2  C   UNL     1       2.410   7.818  18.403  0.00  0.00    +0.000 A 
ATOM      3  C   UNL     1       1.878   8.993  17.884  0.00  0.00    +0.000 A 
ATOM      4  C   UNL     1       1.096   9.819  18.692  0.00  0.00    +0.000 A 
ATOM      5  C   UNL     1       0.837   9.494  20.023  0.00  0.00    +0.000 A 
ATOM      6  C   UNL     1       1.407   8.323  20.545  0.00  0.00    +0.000 A 
ENDROOT
BRANCH   5   7
ATOM      7  N   UNL     1       0.018  10.300  20.850  0.00  0.00    +0.000 N 
ATOM      8  C   UNL     1       0.383  11.543  21.353  0.00  0.00    +0.000 C 
ATOM      9  O   UNL     1       1.419  12.148  21.092  0.00  0.00    +0.000 OA
ATOM     10  H   UNL     1      -0.937  10.010  21.033  0.00  0.00    +0.000 HD
BRANCH   8  11
ATOM     11  C   UNL     1      -0.598  12.210  22.270  0.00  0.00    +0.000 A 
ATOM     12  C   UNL     1      -1.808  11.559  22.499  0.00  0.00    +0.000 A 
ATOM     13  C   UNL     1      -2.760  12.179  23.287  0.00  0.00    +0.000 A 
ATOM     14  C   UNL     1      -2.494  13.439  23.820  0.00  0.00    +0.000 A 
ATOM     15  C   UNL     1      -1.238  14.016  23.571  0.00  0.00    +0.000 A 
ATOM     16  N   UNL     1      -0.283  13.425  22.797  0.00  0.00    +0.000 NA
ATOM     17  C   UNL     1      -0.920  15.395  24.101  0.00  0.00    +0.000 C 
ATOM     18  C   UNL     1      -1.821  15.819  25.264  0.00  0.00    +0.000 C 
ATOM     19  C   UNL     1      -3.284  15.584  24.909  0.00  0.00    +0.000 C 
ATOM     20  C   UNL     1      -3.541  14.100  24.676  0.00  0.00    +0.000 C 
ENDBRANCH   8  11
ENDBRANCH   5   7
BRANCH   1  22
ATOM     21  C   UNL     1       1.609   5.054  20.429  0.00  0.00    +0.000 C 
ATOM     22  C   UNL     1       2.700   6.131  20.315  0.00  0.00    +0.000 C 
BRANCH  22  23
ATOM     23  S   UNL     1       4.107   5.490  19.314  0.00  0.00    +0.000 S 
BRANCH  23  24
ATOM     24  C   UNL     1       3.381   4.112  18.552  0.00  0.00    +0.000 A 
ATOM     25  N   UNL     1       2.589   4.124  17.503  0.00  0.00    +0.000 NA
ATOM     26  N   UNL     1       2.279   2.817  17.195  0.00  0.00    +0.000 NA
ATOM     27  C   UNL     1       2.885   2.049  18.069  0.00  0.00    +0.000 A 
ATOM     28  N   UNL     1       3.580   2.820  18.952  0.00  0.00    +0.000 N 
ATOM     29  C   UNL     1       4.368   2.328  20.049  0.00  0.00    +0.000 C 
ENDBRANCH  23  24
ENDBRANCH  22  23
ENDBRANCH   1  22
TORSDOF 5
ENDMDL
MODEL 4
REMARK VINA RESULT:      -8.0      5.662      8.231
REMARK  Name = 
REMARK  7 active torsions:
REMARK  status: ('A' for Active; 'I' for Inactive)
REMARK    1  A    between atoms: C_1  and  C_2
REMARK    2  A    between atoms: C_2  and  S_3
REMARK    3  A    between atoms: C_2  and  C_10
REMARK    4  A    between atoms: S_3  and  C_4
REMARK    5  A    between atoms: N_8  and  C_9
REMARK    6  A    between atoms: C_14  and  N_15
REMARK    7  A    between atoms: C_16  and  C_18
REMARK                            x       y       z     vdW  Elec       q    Type
REMARK                         _______ _______ _______ _____ _____    ______ ____
ROOT
ATOM      1  C   UNL     1       4.463   5.078  17.350  0.00  0.00    +0.000 A 
ATOM      2  C   UNL     1       3.649   3.932  17.339  0.00  0.00    +0.000 A 
ATOM      3  C   UNL     1       2.370   3.961  17.884  0.00  0.00    +0.000 A 
ATOM      4  C   UNL     1       1.883   5.137  18.453  0.00  0.00    +0.000 A 
ATOM      5  C   UNL     1       2.653   6.299  18.485  0.00  0.00    +0.000 A 
ATOM      6  C   UNL     1       3.929   6.267  17.903  0.00  0.00    +0.000 A 
ENDROOT
BRANCH   5   7
ATOM      7  N   UNL     1       2.191   7.494  19.089  0.00  0.00    +0.000 N 
ATOM      8  C   UNL     1       1.520   7.557  20.303  0.00  0.00    +0.000 C 
ATOM      9  O   UNL     1       1.305   6.610  21.056  0.00  0.00    +0.000 OA
ATOM     10  H   UNL     1       2.428   8.385  18.666  0.00  0.00    +0.000 HD
BRANCH   8  11
ATOM     11  C   UNL     1       1.050   8.912  20.741  0.00  0.00    +0.000 A 
ATOM     12  C   UNL     1       0.513   9.022  22.022  0.00  0.00    +0.000 A 
ATOM     13  C   UNL     1       0.010  10.243  22.432  0.00  0.00    +0.000 A 
ATOM     14  C   UNL     1       0.042  11.326  21.555  0.00  0.00    +0.000 A 
ATOM     15  C   UNL     1       0.630  11.145  20.292  0.00  0.00    +0.000 A 
ATOM     16  N   UNL     1       1.132   9.950  19.865  0.00  0.00    +0.000 NA
ATOM     17  C   UNL     1       0.655  12.283  19.299  0.00  0.00    +0.000 C 
ATOM     18  C   UNL     1       0.471  13.657  19.948  0.00  0.00    +0.000 C 
ATOM     19  C   UNL     1      -0.732  13.641  20.882  0.00  0.00    +0.000 C 
ATOM     20  C   UNL     1      -0.509  12.649  22.017  0.00  0.00    +0.000 C 
ENDBRANCH   8  11
ENDBRANCH   5   7
BRANCH   1  22
ATOM     21  C   UNL     1       6.948   4.916  17.924  0.00  0.00    +0.000 C 
ATOM     22  C   UNL     1       5.896   5.054  16.812  0.00  0.00    +0.000 C 
BRANCH  22  23
ATOM     23  S   UNL     1       6.112   3.705  15.578  0.00  0.00    +0.000 S 
BRANCH  23  24
ATOM     24  C   UNL     1       6.945   4.539  14.306  0.00  0.00    +0.000 A 
ATOM     25  N   UNL     1       7.833   5.498  14.447  0.00  0.00    +0.000 NA
ATOM     26  N   UNL     1       8.280   5.845  13.191  0.00  0.00    +0.000 NA
ATOM     27  C   UNL     1       7.648   5.093  12.322  0.00  0.00    +0.000 A 
ATOM     28  N   UNL     1       6.786   4.264  12.975  0.00  0.00    +0.000 N 
ATOM     29  C   UNL     1       5.924   3.297  12.352  0.00  0.00    +0.000 C 
ENDBRANCH  23  24
ENDBRANCH  22  23
ENDBRANCH   1  22
TORSDOF 5
ENDMDL
MODEL 5
REMARK VINA RESULT:      -8.0      5.805      9.258
REMARK  Name = 
REMARK  7 active torsions:
REMARK  status: ('A' for Active; 'I' for Inactive)
REMARK    1  A    between atoms: C_1  and  C_2
REMARK    2  A    between atoms: C_2  and  S_3
REMARK    3  A    between atoms: C_2  and  C_10
REMARK    4  A    between atoms: S_3  and  C_4
REMARK    5  A    between atoms: N_8  and  C_9
REMARK    6  A    between atoms: C_14  and  N_15
REMARK    7  A    between atoms: C_16  and  C_18
REMARK                            x       y       z     vdW  Elec       q    Type
REMARK                         _______ _______ _______ _____ _____    ______ ____
ROOT
ATOM      1  C   UNL     1      -0.340  10.634  20.740  0.00  0.00    +0.000 A 
ATOM      2  C   UNL     1      -0.275  10.487  22.136  0.00  0.00    +0.000 A 
ATOM      3  C   UNL     1       0.518   9.501  22.712  0.00  0.00    +0.000 A 
ATOM      4  C   UNL     1       1.258   8.640  21.901  0.00  0.00    +0.000 A 
ATOM      5  C   UNL     1       1.227   8.750  20.512  0.00  0.00    +0.000 A 
ATOM      6  C   UNL     1       0.449   9.769  19.942  0.00  0.00    +0.000 A 
ENDROOT
BRANCH   5   7
ATOM      7  N   UNL     1       1.943   7.865  19.669  0.00  0.00    +0.000 N 
ATOM      8  C   UNL     1       2.089   6.503  19.896  0.00  0.00    +0.000 C 
ATOM      9  O   UNL     1       1.560   5.864  20.802  0.00  0.00    +0.000 OA
ATOM     10  H   UNL     1       2.312   8.211  18.789  0.00  0.00    +0.000 HD
BRANCH   8  11
ATOM     11  C   UNL     1       2.945   5.748  18.924  0.00  0.00    +0.000 A 
ATOM     12  C   UNL     1       3.068   4.372  19.110  0.00  0.00    +0.000 A 
ATOM     13  C   UNL     1       3.902   3.658  18.270  0.00  0.00    +0.000 A 
ATOM     14  C   UNL     1       4.604   4.328  17.270  0.00  0.00    +0.000 A 
ATOM     15  C   UNL     1       4.401   5.710  17.123  0.00  0.00    +0.000 A 
ATOM     16  N   UNL     1       3.585   6.437  17.940  0.00  0.00    +0.000 NA
ATOM     17  C   UNL     1       5.168   6.480  16.074  0.00  0.00    +0.000 C 
ATOM     18  C   UNL     1       5.726   5.593  14.958  0.00  0.00    +0.000 C 
ATOM     19  C   UNL     1       6.465   4.401  15.553  0.00  0.00    +0.000 C 
ATOM     20  C   UNL     1       5.507   3.534  16.363  0.00  0.00    +0.000 C 
ENDBRANCH   8  11
ENDBRANCH   5   7
BRANCH   1  22
ATOM     21  C   UNL     1      -0.829  13.117  20.388  0.00  0.00    +0.000 C 
ATOM     22  C   UNL     1      -1.251  11.672  20.080  0.00  0.00    +0.000 C 
BRANCH  22  23
ATOM     23  S   UNL     1      -1.323  11.419  18.257  0.00  0.00    +0.000 S 
BRANCH  23  24
ATOM     24  C   UNL     1      -3.028  11.530  17.966  0.00  0.00    +0.000 A 
ATOM     25  N   UNL     1      -3.951  11.876  18.836  0.00  0.00    +0.000 NA
ATOM     26  N   UNL     1      -5.165  11.882  18.182  0.00  0.00    +0.000 NA
ATOM     27  C   UNL     1      -4.946  11.533  16.937  0.00  0.00    +0.000 A 
ATOM     28  N   UNL     1      -3.618  11.287  16.755  0.00  0.00    +0.000 N 
ATOM     29  C   UNL     1      -3.005  10.883  15.520  0.00  0.00    +0.000 C 
ENDBRANCH  23  24
ENDBRANCH  22  23
ENDBRANCH   1  22
TORSDOF 5
ENDMDL
MODEL 6
REMARK VINA RESULT:      -7.9      4.986      8.351
REMARK  Name = 
REMARK  7 active torsions:
REMARK  status: ('A' for Active; 'I' for Inactive)
REMARK    1  A    between atoms: C_1  and  C_2
REMARK    2  A    between atoms: C_2  and  S_3
REMARK    3  A    between atoms: C_2  and  C_10
REMARK    4  A    between atoms: S_3  and  C_4
REMARK    5  A    between atoms: N_8  and  C_9
REMARK    6  A    between atoms: C_14  and  N_15
REMARK    7  A    between atoms: C_16  and  C_18
REMARK                            x       y       z     vdW  Elec       q    Type
REMARK                         _______ _______ _______ _____ _____    ______ ____
ROOT
ATOM      1  C   UNL     1       4.739   5.393  17.584  0.00  0.00    +0.000 A 
ATOM      2  C   UNL     1       4.549   4.137  18.184  0.00  0.00    +0.000 A 
ATOM      3  C   UNL     1       3.584   3.956  19.168  0.00  0.00    +0.000 A 
ATOM      4  C   UNL     1       2.792   5.030  19.572  0.00  0.00    +0.000 A 
ATOM      5  C   UNL     1       2.943   6.295  19.004  0.00  0.00    +0.000 A 
ATOM      6  C   UNL     1       3.897   6.458  17.989  0.00  0.00    +0.000 A 
ENDROOT
BRANCH   5   7
ATOM      7  N   UNL     1       2.174   7.407  19.424  0.00  0.00    +0.000 N 
ATOM      8  C   UNL     1       1.919   8.530  18.647  0.00  0.00    +0.000 C 
ATOM      9  O   UNL     1       2.250   8.683  17.474  0.00  0.00    +0.000 OA
ATOM     10  H   UNL     1       1.695   7.368  20.318  0.00  0.00    +0.000 HD
BRANCH   8  11
ATOM     11  C   UNL     1       1.140   9.634  19.297  0.00  0.00    +0.000 A 
ATOM     12  C   UNL     1       0.945  10.801  18.561  0.00  0.00    +0.000 A 
ATOM     13  C   UNL     1       0.288  11.862  19.157  0.00  0.00    +0.000 A 
ATOM     14  C   UNL     1      -0.151  11.744  20.474  0.00  0.00    +0.000 A 
ATOM     15  C   UNL     1       0.053  10.523  21.138  0.00  0.00    +0.000 A 
ATOM     16  N   UNL     1       0.700   9.463  20.574  0.00  0.00    +0.000 NA
ATOM     17  C   UNL     1      -0.376  10.365  22.578  0.00  0.00    +0.000 C 
ATOM     18  C   UNL     1      -1.427  11.389  23.013  0.00  0.00    +0.000 C 
ATOM     19  C   UNL     1      -0.986  12.794  22.622  0.00  0.00    +0.000 C 
ATOM     20  C   UNL     1      -0.865  12.909  21.106  0.00  0.00    +0.000 C 
ENDBRANCH   8  11
ENDBRANCH   5   7
BRANCH   1  22
ATOM     21  C   UNL     1       7.100   6.267  17.143  0.00  0.00    +0.000 C 
ATOM     22  C   UNL     1       5.835   5.632  16.542  0.00  0.00    +0.000 C 
BRANCH  22  23
ATOM     23  S   UNL     1       6.274   4.067  15.678  0.00  0.00    +0.000 S 
BRANCH  23  24
ATOM     24  C   UNL     1       6.998   4.672  14.224  0.00  0.00    +0.000 A 
ATOM     25  N   UNL     1       7.961   5.563  14.140  0.00  0.00    +0.000 NA
ATOM     26  N   UNL     1       8.272   5.722  12.807  0.00  0.00    +0.000 NA
ATOM     27  C   UNL     1       7.487   4.928  12.119  0.00  0.00    +0.000 A 
ATOM     28  N   UNL     1       6.658   4.256  12.966  0.00  0.00    +0.000 N 
ATOM     29  C   UNL     1       5.661   3.298  12.573  0.00  0.00    +0.000 C 
ENDBRANCH  23  24
ENDBRANCH  22  23
ENDBRANCH   1  22
TORSDOF 5
ENDMDL
MODEL 7
REMARK VINA RESULT:      -7.9      5.062      8.643
REMARK  Name = 
REMARK  7 active torsions:
REMARK  status: ('A' for Active; 'I' for Inactive)
REMARK    1  A    between atoms: C_1  and  C_2
REMARK    2  A    between atoms: C_2  and  S_3
REMARK    3  A    between atoms: C_2  and  C_10
REMARK    4  A    between atoms: S_3  and  C_4
REMARK    5  A    between atoms: N_8  and  C_9
REMARK    6  A    between atoms: C_14  and  N_15
REMARK    7  A    between atoms: C_16  and  C_18
REMARK                            x       y       z     vdW  Elec       q    Type
REMARK                         _______ _______ _______ _____ _____    ______ ____
ROOT
ATOM      1  C   UNL     1       4.204   4.934  17.421  0.00  0.00    +0.000 A 
ATOM      2  C   UNL     1       4.099   3.593  17.825  0.00  0.00    +0.000 A 
ATOM      3  C   UNL     1       3.279   3.231  18.887  0.00  0.00    +0.000 A 
ATOM      4  C   UNL     1       2.550   4.206  19.567  0.00  0.00    +0.000 A 
ATOM      5  C   UNL     1       2.620   5.549  19.201  0.00  0.00    +0.000 A 
ATOM      6  C   UNL     1       3.425   5.899  18.107  0.00  0.00    +0.000 A 
ENDROOT
BRANCH   5   7
ATOM      7  N   UNL     1       1.916   6.559  19.899  0.00  0.00    +0.000 N 
ATOM      8  C   UNL     1       1.855   7.892  19.512  0.00  0.00    +0.000 C 
ATOM      9  O   UNL     1       2.329   8.364  18.481  0.00  0.00    +0.000 OA
ATOM     10  H   UNL     1       1.339   6.301  20.693  0.00  0.00    +0.000 HD
BRANCH   8  11
ATOM     11  C   UNL     1       1.115   8.824  20.424  0.00  0.00    +0.000 A 
ATOM     12  C   UNL     1       1.157   8.553  21.790  0.00  0.00    +0.000 A 
ATOM     13  C   UNL     1       0.431   9.354  22.651  0.00  0.00    +0.000 A 
ATOM     14  C   UNL     1      -0.331  10.401  22.135  0.00  0.00    +0.000 A 
ATOM     15  C   UNL     1      -0.296  10.632  20.750  0.00  0.00    +0.000 A 
ATOM     16  N   UNL     1       0.412   9.855  19.880  0.00  0.00    +0.000 NA
ATOM     17  C   UNL     1      -1.133  11.734  20.145  0.00  0.00    +0.000 C 
ATOM     18  C   UNL     1      -1.560  12.797  21.160  0.00  0.00    +0.000 C 
ATOM     19  C   UNL     1      -2.157  12.136  22.395  0.00  0.00    +0.000 C 
ATOM     20  C   UNL     1      -1.115  11.265  23.087  0.00  0.00    +0.000 C 
ENDBRANCH   8  11
ENDBRANCH   5   7
BRANCH   1  22
ATOM     21  C   UNL     1       6.016   6.575  16.675  0.00  0.00    +0.000 C 
ATOM     22  C   UNL     1       5.146   5.366  16.293  0.00  0.00    +0.000 C 
BRANCH  22  23
ATOM     23  S   UNL     1       6.220   3.968  15.763  0.00  0.00    +0.000 S 
BRANCH  23  24
ATOM     24  C   UNL     1       6.983   4.639  14.359  0.00  0.00    +0.000 A 
ATOM     25  N   UNL     1       7.948   5.531  14.342  0.00  0.00    +0.000 NA
ATOM     26  N   UNL     1       8.295   5.752  13.027  0.00  0.00    +0.000 NA
ATOM     27  C   UNL     1       7.527   4.993  12.282  0.00  0.00    +0.000 A 
ATOM     28  N   UNL     1       6.675   4.284  13.074  0.00  0.00    +0.000 N 
ATOM     29  C   UNL     1       5.688   3.348  12.610  0.00  0.00    +0.000 C 
ENDBRANCH  23  24
ENDBRANCH  22  23
ENDBRANCH   1  22
TORSDOF 5
ENDMDL
MODEL 8
REMARK VINA RESULT:      -7.9      5.767      9.298
REMARK  Name = 
REMARK  7 active torsions:
REMARK  status: ('A' for Active; 'I' for Inactive)
REMARK    1  A    between atoms: C_1  and  C_2
REMARK    2  A    between atoms: C_2  and  S_3
REMARK    3  A    between atoms: C_2  and  C_10
REMARK    4  A    between atoms: S_3  and  C_4
REMARK    5  A    between atoms: N_8  and  C_9
REMARK    6  A    between atoms: C_14  and  N_15
REMARK    7  A    between atoms: C_16  and  C_18
REMARK                            x       y       z     vdW  Elec       q    Type
REMARK                         _______ _______ _______ _____ _____    ______ ____
ROOT
ATOM      1  C   UNL     1      -0.568  11.027  20.981  0.00  0.00    +0.000 A 
ATOM      2  C   UNL     1      -0.704  10.888  22.373  0.00  0.00    +0.000 A 
ATOM      3  C   UNL     1      -0.095   9.835  23.047  0.00  0.00    +0.000 A 
ATOM      4  C   UNL     1       0.659   8.899  22.339  0.00  0.00    +0.000 A 
ATOM      5  C   UNL     1       0.823   8.997  20.958  0.00  0.00    +0.000 A 
ATOM      6  C   UNL     1       0.232  10.082  20.293  0.00  0.00    +0.000 A 
ENDROOT
BRANCH   5   7
ATOM      7  N   UNL     1       1.555   8.039  20.216  0.00  0.00    +0.000 N 
ATOM      8  C   UNL     1       2.030   8.234  18.925  0.00  0.00    +0.000 C 
ATOM      9  O   UNL     1       1.954   9.278  18.281  0.00  0.00    +0.000 OA
ATOM     10  H   UNL     1       1.838   7.175  20.667  0.00  0.00    +0.000 HD
BRANCH   8  11
ATOM     11  C   UNL     1       2.723   7.071  18.281  0.00  0.00    +0.000 A 
ATOM     12  C   UNL     1       2.285   5.793  18.623  0.00  0.00    +0.000 A 
ATOM     13  C   UNL     1       2.948   4.699  18.098  0.00  0.00    +0.000 A 
ATOM     14  C   UNL     1       4.038   4.898  17.253  0.00  0.00    +0.000 A 
ATOM     15  C   UNL     1       4.398   6.217  16.929  0.00  0.00    +0.000 A 
ATOM     16  N   UNL     1       3.762   7.312  17.435  0.00  0.00    +0.000 NA
ATOM     17  C   UNL     1       5.594   6.479  16.044  0.00  0.00    +0.000 C 
ATOM     18  C   UNL     1       5.999   5.268  15.199  0.00  0.00    +0.000 C 
ATOM     19  C   UNL     1       6.103   4.026  16.074  0.00  0.00    +0.000 C 
ATOM     20  C   UNL     1       4.747   3.696  16.689  0.00  0.00    +0.000 C 
ENDBRANCH   8  11
ENDBRANCH   5   7
BRANCH   1  22
ATOM     21  C   UNL     1      -0.675  13.530  20.478  0.00  0.00    +0.000 C 
ATOM     22  C   UNL     1      -1.278  12.142  20.209  0.00  0.00    +0.000 C 
BRANCH  22  23
ATOM     23  S   UNL     1      -1.267  11.798  18.400  0.00  0.00    +0.000 S 
BRANCH  23  24
ATOM     24  C   UNL     1      -2.962  11.636  18.075  0.00  0.00    +0.000 A 
ATOM     25  N   UNL     1      -3.947  11.880  18.911  0.00  0.00    +0.000 NA
ATOM     26  N   UNL     1      -5.132  11.671  18.238  0.00  0.00    +0.000 NA
ATOM     27  C   UNL     1      -4.833  11.300  17.015  0.00  0.00    +0.000 A 
ATOM     28  N   UNL     1      -3.479  11.249  16.869  0.00  0.00    +0.000 N 
ATOM     29  C   UNL     1      -2.783  10.883  15.666  0.00  0.00    +0.000 C 
ENDBRANCH  23  24
ENDBRANCH  22  23
ENDBRANCH   1  22
TORSDOF 5
ENDMDL
MODEL 9
REMARK VINA RESULT:      -7.9      3.756      7.637
REMARK  Name = 
REMARK  7 active torsions:
REMARK  status: ('A' for Active; 'I' for Inactive)
REMARK    1  A    between atoms: C_1  and  C_2
REMARK    2  A    between atoms: C_2  and  S_3
REMARK    3  A    between atoms: C_2  and  C_10
REMARK    4  A    between atoms: S_3  and  C_4
REMARK    5  A    between atoms: N_8  and  C_9
REMARK    6  A    between atoms: C_14  and  N_15
REMARK    7  A    between atoms: C_16  and  C_18
REMARK                            x       y       z     vdW  Elec       q    Type
REMARK                         _______ _______ _______ _____ _____    ______ ____
ROOT
ATOM      1  C   UNL     1       4.642   3.864  16.664  0.00  0.00    +0.000 A 
ATOM      2  C   UNL     1       4.226   2.584  17.068  0.00  0.00    +0.000 A 
ATOM      3  C   UNL     1       3.128   2.423  17.906  0.00  0.00    +0.000 A 
ATOM      4  C   UNL     1       2.428   3.541  18.358  0.00  0.00    +0.000 A 
ATOM      5  C   UNL     1       2.802   4.831  17.982  0.00  0.00    +0.000 A 
ATOM      6  C   UNL     1       3.891   4.979  17.109  0.00  0.00    +0.000 A 
ENDROOT
BRANCH   5   7
ATOM      7  N   UNL     1       2.127   5.981  18.456  0.00  0.00    +0.000 N 
ATOM      8  C   UNL     1       2.581   7.285  18.300  0.00  0.00    +0.000 C 
ATOM      9  O   UNL     1       3.576   7.628  17.667  0.00  0.00    +0.000 OA
ATOM     10  H   UNL     1       1.205   5.878  18.868  0.00  0.00    +0.000 HD
BRANCH   8  11
ATOM     11  C   UNL     1       1.757   8.364  18.935  0.00  0.00    +0.000 A 
ATOM     12  C   UNL     1       1.369   9.433  18.130  0.00  0.00    +0.000 A 
ATOM     13  C   UNL     1       0.665  10.477  18.703  0.00  0.00    +0.000 A 
ATOM     14  C   UNL     1       0.371  10.440  20.065  0.00  0.00    +0.000 A 
ATOM     15  C   UNL     1       0.766   9.311  20.802  0.00  0.00    +0.000 A 
ATOM     16  N   UNL     1       1.462   8.270  20.261  0.00  0.00    +0.000 NA
ATOM     17  C   UNL     1       0.497   9.246  22.287  0.00  0.00    +0.000 C 
ATOM     18  C   UNL     1      -0.609  10.200  22.745  0.00  0.00    +0.000 C 
ATOM     19  C   UNL     1      -0.359  11.599  22.195  0.00  0.00    +0.000 C 
ATOM     20  C   UNL     1      -0.398  11.584  20.671  0.00  0.00    +0.000 C 
ENDBRANCH   8  11
ENDBRANCH   5   7
BRANCH   1  22
ATOM     21  C   UNL     1       5.632   3.738  14.311  0.00  0.00    +0.000 C 
ATOM     22  C   UNL     1       5.883   4.070  15.791  0.00  0.00    +0.000 C 
BRANCH  22  23
ATOM     23  S   UNL     1       6.515   5.792  15.945  0.00  0.00    +0.000 S 
BRANCH  23  24
ATOM     24  C   UNL     1       7.249   5.746  17.515  0.00  0.00    +0.000 A 
ATOM     25  N   UNL     1       7.424   4.683  18.267  0.00  0.00    +0.000 NA
ATOM     26  N   UNL     1       8.086   5.079  19.409  0.00  0.00    +0.000 NA
ATOM     27  C   UNL     1       8.288   6.372  19.321  0.00  0.00    +0.000 A 
ATOM     28  N   UNL     1       7.766   6.840  18.153  0.00  0.00    +0.000 N 
ATOM     29  C   UNL     1       7.799   8.208  17.713  0.00  0.00    +0.000 C 
ENDBRANCH  23  24
ENDBRANCH  22  23
ENDBRANCH   1  22
TORSDOF 5
ENDMDL
