MODEL 1
REMARK VINA RESULT:      -7.4      0.000      0.000
REMARK  Name = 
REMARK  6 active torsions:
REMARK  status: ('A' for Active; 'I' for Inactive)
REMARK    1  A    between atoms: C_1  and  C_2
REMARK    2  A    between atoms: C_2  and  S_3
REMARK    3  A    between atoms: C_2  and  C_10
REMARK    4  A    between atoms: S_3  and  C_4
REMARK    5  A    between atoms: N_8  and  C_9
REMARK    6  A    between atoms: C_14  and  N_15
REMARK                            x       y       z     vdW  Elec       q    Type
REMARK                         _______ _______ _______ _____ _____    ______ ____
ROOT
ATOM      1  C   UNL     1       4.239   4.735  16.906  0.00  0.00    +0.000 A 
ATOM      2  C   UNL     1       3.534   3.522  16.876  0.00  0.00    +0.000 A 
ATOM      3  C   UNL     1       2.336   3.381  17.566  0.00  0.00    +0.000 A 
ATOM      4  C   UNL     1       1.845   4.431  18.340  0.00  0.00    +0.000 A 
ATOM      5  C   UNL     1       2.569   5.617  18.472  0.00  0.00    +0.000 A 
ATOM      6  C   UNL     1       3.758   5.766  17.740  0.00  0.00    +0.000 A 
ENDROOT
BRANCH   5   7
ATOM      7  N   UNL     1       2.166   6.686  19.303  0.00  0.00    +0.000 N 
ATOM      8  C   UNL     1       1.818   7.955  18.898  0.00  0.00    +0.000 C 
ATOM      9  O   UNL     1       1.818   8.351  17.734  0.00  0.00    +0.000 OA
ATOM     10  N   UNL     1       1.427   8.810  19.908  0.00  0.00    +0.000 N 
ATOM     11  C   UNL     1       1.397   8.612  21.345  0.00  0.00    +0.000 C 
ATOM     12  C   UNL     1       0.369   9.625  21.818  0.00  0.00    +0.000 C 
ATOM     13  C   UNL     1       0.559  10.803  20.869  0.00  0.00    +0.000 C 
ATOM     14  C   UNL     1       1.029  10.167  19.569  0.00  0.00    +0.000 C 
ATOM     15  H   UNL     1       1.994   6.452  20.265  0.00  0.00    +0.000 HD
ENDBRANCH   5   7
BRANCH   1  17
ATOM     16  C   UNL     1       5.533   3.987  14.859  0.00  0.00    +0.000 C 
ATOM     17  C   UNL     1       5.473   4.963  16.046  0.00  0.00    +0.000 C 
BRANCH  17  18
ATOM     18  S   UNL     1       7.012   4.732  16.985  0.00  0.00    +0.000 S 
BRANCH  18  19
ATOM     19  C   UNL     1       7.452   6.333  17.455  0.00  0.00    +0.000 A 
ATOM     20  N   UNL     1       7.413   7.437  16.745  0.00  0.00    +0.000 NA
ATOM     21  N   UNL     1       7.943   8.450  17.522  0.00  0.00    +0.000 NA
ATOM     22  C   UNL     1       8.293   7.925  18.675  0.00  0.00    +0.000 A 
ATOM     23  N   UNL     1       7.978   6.601  18.686  0.00  0.00    +0.000 N 
ATOM     24  C   UNL     1       8.168   5.682  19.778  0.00  0.00    +0.000 C 
ENDBRANCH  18  19
ENDBRANCH  17  18
ENDBRANCH   1  17
TORSDOF 4
ENDMDL
MODEL 2
REMARK VINA RESULT:      -7.4      2.164      3.162
REMARK  Name = 
REMARK  6 active torsions:
REMARK  status: ('A' for Active; 'I' for Inactive)
REMARK    1  A    between atoms: C_1  and  C_2
REMARK    2  A    between atoms: C_2  and  S_3
REMARK    3  A    between atoms: C_2  and  C_10
REMARK    4  A    between atoms: S_3  and  C_4
REMARK    5  A    between atoms: N_8  and  C_9
REMARK    6  A    between atoms: C_14  and  N_15
REMARK                            x       y       z     vdW  Elec       q    Type
REMARK                         _______ _______ _______ _____ _____    ______ ____
ROOT
ATOM      1  C   UNL     1       4.649   4.935  18.019  0.00  0.00    +0.000 A 
ATOM      2  C   UNL     1       4.401   3.603  18.387  0.00  0.00    +0.000 A 
ATOM      3  C   UNL     1       3.427   3.297  19.330  0.00  0.00    +0.000 A 
ATOM      4  C   UNL     1       2.718   4.318  19.961  0.00  0.00    +0.000 A 
ATOM      5  C   UNL     1       3.006   5.656  19.692  0.00  0.00    +0.000 A 
ATOM      6  C   UNL     1       3.963   5.956  18.709  0.00  0.00    +0.000 A 
ENDROOT
BRANCH   5   7
ATOM      7  N   UNL     1       2.380   6.736  20.355  0.00  0.00    +0.000 N 
ATOM      8  C   UNL     1       1.870   7.874  19.772  0.00  0.00    +0.000 C 
ATOM      9  O   UNL     1       1.896   8.124  18.568  0.00  0.00    +0.000 OA
ATOM     10  N   UNL     1       1.276   8.767  20.640  0.00  0.00    +0.000 N 
ATOM     11  C   UNL     1       1.168   8.737  22.086  0.00  0.00    +0.000 C 
ATOM     12  C   UNL     1      -0.038   9.616  22.367  0.00  0.00    +0.000 C 
ATOM     13  C   UNL     1       0.038  10.689  21.287  0.00  0.00    +0.000 C 
ATOM     14  C   UNL     1       0.697   9.990  20.107  0.00  0.00    +0.000 C 
ATOM     15  H   UNL     1       2.174   6.592  21.328  0.00  0.00    +0.000 HD
ENDBRANCH   5   7
BRANCH   1  17
ATOM     16  C   UNL     1       5.261   6.641  16.247  0.00  0.00    +0.000 C 
ATOM     17  C   UNL     1       5.604   5.285  16.889  0.00  0.00    +0.000 C 
BRANCH  17  18
ATOM     18  S   UNL     1       5.564   4.053  15.553  0.00  0.00    +0.000 S 
BRANCH  18  19
ATOM     19  C   UNL     1       6.731   4.633  14.423  0.00  0.00    +0.000 A 
ATOM     20  N   UNL     1       7.699   5.499  14.614  0.00  0.00    +0.000 NA
ATOM     21  N   UNL     1       8.316   5.708  13.394  0.00  0.00    +0.000 NA
ATOM     22  C   UNL     1       7.696   4.967  12.503  0.00  0.00    +0.000 A 
ATOM     23  N   UNL     1       6.709   4.254  13.111  0.00  0.00    +0.000 N 
ATOM     24  C   UNL     1       5.829   3.302  12.487  0.00  0.00    +0.000 C 
ENDBRANCH  18  19
ENDBRANCH  17  18
ENDBRANCH   1  17
TORSDOF 4
ENDMDL
MODEL 3
REMARK VINA RESULT:      -7.3      3.501      6.592
REMARK  Name = 
REMARK  6 active torsions:
REMARK  status: ('A' for Active; 'I' for Inactive)
REMARK    1  A    between atoms: C_1  and  C_2
REMARK    2  A    between atoms: C_2  and  S_3
REMARK    3  A    between atoms: C_2  and  C_10
REMARK    4  A    between atoms: S_3  and  C_4
REMARK    5  A    between atoms: N_8  and  C_9
REMARK    6  A    between atoms: C_14  and  N_15
REMARK                            x       y       z     vdW  Elec       q    Type
REMARK                         _______ _______ _______ _____ _____    ______ ____
ROOT
ATOM      1  C   UNL     1       4.736   4.898  16.944  0.00  0.00    +0.000 A 
ATOM      2  C   UNL     1       5.347   4.113  15.953  0.00  0.00    +0.000 A 
ATOM      3  C   UNL     1       6.575   4.482  15.414  0.00  0.00    +0.000 A 
ATOM      4  C   UNL     1       7.190   5.665  15.817  0.00  0.00    +0.000 A 
ATOM      5  C   UNL     1       6.565   6.518  16.728  0.00  0.00    +0.000 A 
ATOM      6  C   UNL     1       5.345   6.120  17.298  0.00  0.00    +0.000 A 
ENDROOT
BRANCH   5   7
ATOM      7  N   UNL     1       7.099   7.768  17.116  0.00  0.00    +0.000 N 
ATOM      8  C   UNL     1       7.989   7.999  18.141  0.00  0.00    +0.000 C 
ATOM      9  O   UNL     1       8.448   7.136  18.887  0.00  0.00    +0.000 OA
ATOM     10  N   UNL     1       8.384   9.312  18.295  0.00  0.00    +0.000 N 
ATOM     11  C   UNL     1       7.953  10.508  17.597  0.00  0.00    +0.000 C 
ATOM     12  C   UNL     1       9.117  11.465  17.787  0.00  0.00    +0.000 C 
ATOM     13  C   UNL     1       9.640  11.125  19.178  0.00  0.00    +0.000 C 
ATOM     14  C   UNL     1       9.334   9.644  19.345  0.00  0.00    +0.000 C 
ATOM     15  H   UNL     1       6.908   8.537  16.497  0.00  0.00    +0.000 HD
ENDBRANCH   5   7
BRANCH   1  17
ATOM     16  C   UNL     1       3.192   5.270  18.920  0.00  0.00    +0.000 C 
ATOM     17  C   UNL     1       3.469   4.444  17.652  0.00  0.00    +0.000 C 
BRANCH  17  18
ATOM     18  S   UNL     1       3.564   2.706  18.175  0.00  0.00    +0.000 S 
BRANCH  18  19
ATOM     19  C   UNL     1       2.905   2.719  19.769  0.00  0.00    +0.000 A 
ATOM     20  N   UNL     1       3.538   2.728  20.919  0.00  0.00    +0.000 NA
ATOM     21  N   UNL     1       2.585   2.650  21.918  0.00  0.00    +0.000 NA
ATOM     22  C   UNL     1       1.407   2.590  21.341  0.00  0.00    +0.000 A 
ATOM     23  N   UNL     1       1.559   2.657  19.989  0.00  0.00    +0.000 N 
ATOM     24  C   UNL     1       0.507   2.659  19.007  0.00  0.00    +0.000 C 
ENDBRANCH  18  19
ENDBRANCH  17  18
ENDBRANCH   1  17
TORSDOF 4
ENDMDL
MODEL 4
REMARK VINA RESULT:      -7.3      2.186      3.092
REMARK  Name = 
REMARK  6 active torsions:
REMARK  status: ('A' for Active; 'I' for Inactive)
REMARK    1  A    between atoms: C_1  and  C_2
REMARK    2  A    between atoms: C_2  and  S_3
REMARK    3  A    between atoms: C_2  and  C_10
REMARK    4  A    between atoms: S_3  and  C_4
REMARK    5  A    between atoms: N_8  and  C_9
REMARK    6  A    between atoms: C_14  and  N_15
REMARK                            x       y       z     vdW  Elec       q    Type
REMARK                         _______ _______ _______ _____ _____    ______ ____
ROOT
ATOM      1  C   UNL     1       3.792   5.222  18.632  0.00  0.00    +0.000 A 
ATOM      2  C   UNL     1       3.359   3.920  18.929  0.00  0.00    +0.000 A 
ATOM      3  C   UNL     1       2.300   3.708  19.804  0.00  0.00    +0.000 A 
ATOM      4  C   UNL     1       1.687   4.788  20.438  0.00  0.00    +0.000 A 
ATOM      5  C   UNL     1       2.156   6.088  20.241  0.00  0.00    +0.000 A 
ATOM      6  C   UNL     1       3.199   6.298  19.325  0.00  0.00    +0.000 A 
ENDROOT
BRANCH   5   7
ATOM      7  N   UNL     1       1.630   7.214  20.913  0.00  0.00    +0.000 N 
ATOM      8  C   UNL     1       1.352   8.445  20.361  0.00  0.00    +0.000 C 
ATOM      9  O   UNL     1       1.534   8.749  19.183  0.00  0.00    +0.000 OA
ATOM     10  N   UNL     1       0.810   9.371  21.227  0.00  0.00    +0.000 N 
ATOM     11  C   UNL     1       0.555   9.285  22.653  0.00  0.00    +0.000 C 
ATOM     12  C   UNL     1      -0.532  10.321  22.880  0.00  0.00    +0.000 C 
ATOM     13  C   UNL     1      -0.194  11.423  21.883  0.00  0.00    +0.000 C 
ATOM     14  C   UNL     1       0.472  10.694  20.725  0.00  0.00    +0.000 C 
ATOM     15  H   UNL     1       1.309   7.054  21.852  0.00  0.00    +0.000 HD
ENDBRANCH   5   7
BRANCH   1  17
ATOM     16  C   UNL     1       4.534   6.751  16.751  0.00  0.00    +0.000 C 
ATOM     17  C   UNL     1       4.849   5.488  17.571  0.00  0.00    +0.000 C 
BRANCH  17  18
ATOM     18  S   UNL     1       4.984   4.119  16.383  0.00  0.00    +0.000 S 
BRANCH  18  19
ATOM     19  C   UNL     1       6.244   4.621  15.317  0.00  0.00    +0.000 A 
ATOM     20  N   UNL     1       7.319   5.325  15.590  0.00  0.00    +0.000 NA
ATOM     21  N   UNL     1       7.984   5.546  14.399  0.00  0.00    +0.000 NA
ATOM     22  C   UNL     1       7.288   4.974  13.442  0.00  0.00    +0.000 A 
ATOM     23  N   UNL     1       6.199   4.358  13.979  0.00  0.00    +0.000 N 
ATOM     24  C   UNL     1       5.210   3.592  13.267  0.00  0.00    +0.000 C 
ENDBRANCH  18  19
ENDBRANCH  17  18
ENDBRANCH   1  17
TORSDOF 4
ENDMDL
MODEL 5
REMARK VINA RESULT:      -7.1      0.905      1.204
REMARK  Name = 
REMARK  6 active torsions:
REMARK  status: ('A' for Active; 'I' for Inactive)
REMARK    1  A    between atoms: C_1  and  C_2
REMARK    2  A    between atoms: C_2  and  S_3
REMARK    3  A    between atoms: C_2  and  C_10
REMARK    4  A    between atoms: S_3  and  C_4
REMARK    5  A    between atoms: N_8  and  C_9
REMARK    6  A    between atoms: C_14  and  N_15
REMARK                            x       y       z     vdW  Elec       q    Type
REMARK                         _______ _______ _______ _____ _____    ______ ____
ROOT
ATOM      1  C   UNL     1       4.354   4.734  16.833  0.00  0.00    +0.000 A 
ATOM      2  C   UNL     1       3.709   3.498  17.007  0.00  0.00    +0.000 A 
ATOM      3  C   UNL     1       2.477   3.426  17.645  0.00  0.00    +0.000 A 
ATOM      4  C   UNL     1       1.888   4.577  18.166  0.00  0.00    +0.000 A 
ATOM      5  C   UNL     1       2.546   5.806  18.098  0.00  0.00    +0.000 A 
ATOM      6  C   UNL     1       3.771   5.878  17.416  0.00  0.00    +0.000 A 
ENDROOT
BRANCH   5   7
ATOM      7  N   UNL     1       2.040   6.992  18.675  0.00  0.00    +0.000 N 
ATOM      8  C   UNL     1       1.782   7.212  20.010  0.00  0.00    +0.000 C 
ATOM      9  O   UNL     1       1.950   6.387  20.907  0.00  0.00    +0.000 OA
ATOM     10  N   UNL     1       1.321   8.474  20.322  0.00  0.00    +0.000 N 
ATOM     11  C   UNL     1       0.988   9.590  19.458  0.00  0.00    +0.000 C 
ATOM     12  C   UNL     1       1.120  10.795  20.373  0.00  0.00    +0.000 C 
ATOM     13  C   UNL     1       0.660  10.271  21.729  0.00  0.00    +0.000 C 
ATOM     14  C   UNL     1       1.038   8.797  21.712  0.00  0.00    +0.000 C 
ATOM     15  H   UNL     1       1.989   7.789  18.065  0.00  0.00    +0.000 HD
ENDBRANCH   5   7
BRANCH   1  17
ATOM     16  C   UNL     1       5.714   3.786  14.916  0.00  0.00    +0.000 C 
ATOM     17  C   UNL     1       5.629   4.860  16.014  0.00  0.00    +0.000 C 
BRANCH  17  18
ATOM     18  S   UNL     1       7.120   4.675  17.038  0.00  0.00    +0.000 S 
BRANCH  18  19
ATOM     19  C   UNL     1       7.515   6.293  17.486  0.00  0.00    +0.000 A 
ATOM     20  N   UNL     1       7.488   7.379  16.748  0.00  0.00    +0.000 NA
ATOM     21  N   UNL     1       7.969   8.419  17.523  0.00  0.00    +0.000 NA
ATOM     22  C   UNL     1       8.279   7.927  18.701  0.00  0.00    +0.000 A 
ATOM     23  N   UNL     1       7.984   6.598  18.731  0.00  0.00    +0.000 N 
ATOM     24  C   UNL     1       8.142   5.709  19.852  0.00  0.00    +0.000 C 
ENDBRANCH  18  19
ENDBRANCH  17  18
ENDBRANCH   1  17
TORSDOF 4
ENDMDL
MODEL 6
REMARK VINA RESULT:      -7.0      0.959      1.508
REMARK  Name = 
REMARK  6 active torsions:
REMARK  status: ('A' for Active; 'I' for Inactive)
REMARK    1  A    between atoms: C_1  and  C_2
REMARK    2  A    between atoms: C_2  and  S_3
REMARK    3  A    between atoms: C_2  and  C_10
REMARK    4  A    between atoms: S_3  and  C_4
REMARK    5  A    between atoms: N_8  and  C_9
REMARK    6  A    between atoms: C_14  and  N_15
REMARK                            x       y       z     vdW  Elec       q    Type
REMARK                         _______ _______ _______ _____ _____    ______ ____
ROOT
ATOM      1  C   UNL     1       4.663   4.847  16.639  0.00  0.00    +0.000 A 
ATOM      2  C   UNL     1       4.396   3.494  16.902  0.00  0.00    +0.000 A 
ATOM      3  C   UNL     1       3.443   3.131  17.847  0.00  0.00    +0.000 A 
ATOM      4  C   UNL     1       2.776   4.109  18.582  0.00  0.00    +0.000 A 
ATOM      5  C   UNL     1       3.087   5.459  18.416  0.00  0.00    +0.000 A 
ATOM      6  C   UNL     1       4.021   5.820  17.432  0.00  0.00    +0.000 A 
ENDROOT
BRANCH   5   7
ATOM      7  N   UNL     1       2.506   6.492  19.185  0.00  0.00    +0.000 N 
ATOM      8  C   UNL     1       2.148   7.745  18.742  0.00  0.00    +0.000 C 
ATOM      9  O   UNL     1       2.295   8.158  17.593  0.00  0.00    +0.000 OA
ATOM     10  N   UNL     1       1.564   8.562  19.688  0.00  0.00    +0.000 N 
ATOM     11  C   UNL     1       1.335   8.341  21.104  0.00  0.00    +0.000 C 
ATOM     12  C   UNL     1       0.192   9.287  21.427  0.00  0.00    +0.000 C 
ATOM     13  C   UNL     1       0.450  10.488  20.524  0.00  0.00    +0.000 C 
ATOM     14  C   UNL     1       1.142   9.899  19.302  0.00  0.00    +0.000 C 
ATOM     15  H   UNL     1       2.208   6.234  20.110  0.00  0.00    +0.000 HD
ENDBRANCH   5   7
BRANCH   1  17
ATOM     16  C   UNL     1       5.281   4.530  14.200  0.00  0.00    +0.000 C 
ATOM     17  C   UNL     1       5.592   5.271  15.512  0.00  0.00    +0.000 C 
BRANCH  17  18
ATOM     18  S   UNL     1       7.335   4.931  15.899  0.00  0.00    +0.000 S 
BRANCH  18  19
ATOM     19  C   UNL     1       7.456   5.263  17.587  0.00  0.00    +0.000 A 
ATOM     20  N   UNL     1       7.419   4.421  18.594  0.00  0.00    +0.000 NA
ATOM     21  N   UNL     1       7.469   5.165  19.759  0.00  0.00    +0.000 NA
ATOM     22  C   UNL     1       7.527   6.433  19.419  0.00  0.00    +0.000 A 
ATOM     23  N   UNL     1       7.548   6.540  18.062  0.00  0.00    +0.000 N 
ATOM     24  C   UNL     1       7.645   7.756  17.298  0.00  0.00    +0.000 C 
ENDBRANCH  18  19
ENDBRANCH  17  18
ENDBRANCH   1  17
TORSDOF 4
ENDMDL
MODEL 7
REMARK VINA RESULT:      -7.0      3.395      6.383
REMARK  Name = 
REMARK  6 active torsions:
REMARK  status: ('A' for Active; 'I' for Inactive)
REMARK    1  A    between atoms: C_1  and  C_2
REMARK    2  A    between atoms: C_2  and  S_3
REMARK    3  A    between atoms: C_2  and  C_10
REMARK    4  A    between atoms: S_3  and  C_4
REMARK    5  A    between atoms: N_8  and  C_9
REMARK    6  A    between atoms: C_14  and  N_15
REMARK                            x       y       z     vdW  Elec       q    Type
REMARK                         _______ _______ _______ _____ _____    ______ ____
ROOT
ATOM      1  C   UNL     1       4.478   5.593  17.085  0.00  0.00    +0.000 A 
ATOM      2  C   UNL     1       5.108   4.644  16.265  0.00  0.00    +0.000 A 
ATOM      3  C   UNL     1       6.427   4.820  15.861  0.00  0.00    +0.000 A 
ATOM      4  C   UNL     1       7.124   5.970  16.226  0.00  0.00    +0.000 A 
ATOM      5  C   UNL     1       6.497   6.980  16.958  0.00  0.00    +0.000 A 
ATOM      6  C   UNL     1       5.179   6.777  17.396  0.00  0.00    +0.000 A 
ENDROOT
BRANCH   5   7
ATOM      7  N   UNL     1       7.123   8.202  17.291  0.00  0.00    +0.000 N 
ATOM      8  C   UNL     1       8.102   8.392  18.240  0.00  0.00    +0.000 C 
ATOM      9  O   UNL     1       8.575   7.510  18.956  0.00  0.00    +0.000 OA
ATOM     10  N   UNL     1       8.575   9.684  18.350  0.00  0.00    +0.000 N 
ATOM     11  C   UNL     1       8.151  10.897  17.677  0.00  0.00    +0.000 C 
ATOM     12  C   UNL     1       9.374  11.794  17.766  0.00  0.00    +0.000 C 
ATOM     13  C   UNL     1       9.988  11.435  19.114  0.00  0.00    +0.000 C 
ATOM     14  C   UNL     1       9.621   9.972  19.318  0.00  0.00    +0.000 C 
ATOM     15  H   UNL     1       6.922   8.977  16.682  0.00  0.00    +0.000 HD
ENDBRANCH   5   7
BRANCH   1  17
ATOM     16  C   UNL     1       2.975   5.850  19.110  0.00  0.00    +0.000 C 
ATOM     17  C   UNL     1       3.089   5.355  17.658  0.00  0.00    +0.000 C 
BRANCH  17  18
ATOM     18  S   UNL     1       2.650   3.592  17.674  0.00  0.00    +0.000 S 
BRANCH  18  19
ATOM     19  C   UNL     1       3.397   2.994  19.109  0.00  0.00    +0.000 A 
ATOM     20  N   UNL     1       4.666   2.736  19.328  0.00  0.00    +0.000 NA
ATOM     21  N   UNL     1       4.767   2.197  20.597  0.00  0.00    +0.000 NA
ATOM     22  C   UNL     1       3.556   2.139  21.103  0.00  0.00    +0.000 A 
ATOM     23  N   UNL     1       2.666   2.655  20.211  0.00  0.00    +0.000 N 
ATOM     24  C   UNL     1       1.248   2.804  20.403  0.00  0.00    +0.000 C 
ENDBRANCH  18  19
ENDBRANCH  17  18
ENDBRANCH   1  17
TORSDOF 4
ENDMDL
MODEL 8
REMARK VINA RESULT:      -6.9      3.862      5.498
REMARK  Name = 
REMARK  6 active torsions:
REMARK  status: ('A' for Active; 'I' for Inactive)
REMARK    1  A    between atoms: C_1  and  C_2
REMARK    2  A    between atoms: C_2  and  S_3
REMARK    3  A    between atoms: C_2  and  C_10
REMARK    4  A    between atoms: S_3  and  C_4
REMARK    5  A    between atoms: N_8  and  C_9
REMARK    6  A    between atoms: C_14  and  N_15
REMARK                            x       y       z     vdW  Elec       q    Type
REMARK                         _______ _______ _______ _____ _____    ______ ____
ROOT
ATOM      1  C   UNL     1       2.128   7.538  19.510  0.00  0.00    +0.000 A 
ATOM      2  C   UNL     1       2.211   7.935  18.166  0.00  0.00    +0.000 A 
ATOM      3  C   UNL     1       1.663   9.143  17.750  0.00  0.00    +0.000 A 
ATOM      4  C   UNL     1       0.978   9.952  18.655  0.00  0.00    +0.000 A 
ATOM      5  C   UNL     1       0.792   9.542  19.976  0.00  0.00    +0.000 A 
ATOM      6  C   UNL     1       1.383   8.340  20.399  0.00  0.00    +0.000 A 
ENDROOT
BRANCH   5   7
ATOM      7  N   UNL     1       0.041  10.277  20.921  0.00  0.00    +0.000 N 
ATOM      8  C   UNL     1       0.261  11.579  21.311  0.00  0.00    +0.000 C 
ATOM      9  O   UNL     1       1.166  12.299  20.893  0.00  0.00    +0.000 OA
ATOM     10  N   UNL     1      -0.639  12.080  22.229  0.00  0.00    +0.000 N 
ATOM     11  C   UNL     1      -1.741  11.429  22.912  0.00  0.00    +0.000 C 
ATOM     12  C   UNL     1      -2.651  12.585  23.290  0.00  0.00    +0.000 C 
ATOM     13  C   UNL     1      -1.683  13.724  23.591  0.00  0.00    +0.000 C 
ATOM     14  C   UNL     1      -0.490  13.453  22.686  0.00  0.00    +0.000 C 
ATOM     15  H   UNL     1      -0.810   9.845  21.235  0.00  0.00    +0.000 HD
ENDBRANCH   5   7
BRANCH   1  17
ATOM     16  C   UNL     1       3.912   5.802  19.031  0.00  0.00    +0.000 C 
ATOM     17  C   UNL     1       2.842   6.295  20.019  0.00  0.00    +0.000 C 
BRANCH  17  18
ATOM     18  S   UNL     1       1.697   4.908  20.280  0.00  0.00    +0.000 S 
BRANCH  18  19
ATOM     19  C   UNL     1       2.050   3.832  18.978  0.00  0.00    +0.000 A 
ATOM     20  N   UNL     1       1.560   3.830  17.759  0.00  0.00    +0.000 NA
ATOM     21  N   UNL     1       2.080   2.728  17.106  0.00  0.00    +0.000 NA
ATOM     22  C   UNL     1       2.861   2.095  17.951  0.00  0.00    +0.000 A 
ATOM     23  N   UNL     1       2.893   2.770  19.133  0.00  0.00    +0.000 N 
ATOM     24  C   UNL     1       3.660   2.421  20.300  0.00  0.00    +0.000 C 
ENDBRANCH  18  19
ENDBRANCH  17  18
ENDBRANCH   1  17
TORSDOF 4
ENDMDL
MODEL 9
REMARK VINA RESULT:      -6.9      4.173      8.682
REMARK  Name = 
REMARK  6 active torsions:
REMARK  status: ('A' for Active; 'I' for Inactive)
REMARK    1  A    between atoms: C_1  and  C_2
REMARK    2  A    between atoms: C_2  and  S_3
REMARK    3  A    between atoms: C_2  and  C_10
REMARK    4  A    between atoms: S_3  and  C_4
REMARK    5  A    between atoms: N_8  and  C_9
REMARK    6  A    between atoms: C_14  and  N_15
REMARK                            x       y       z     vdW  Elec       q    Type
REMARK                         _______ _______ _______ _____ _____    ______ ____
ROOT
ATOM      1  C   UNL     1       0.051  10.283  19.850  0.00  0.00    +0.000 A 
ATOM      2  C   UNL     1      -0.407  10.363  21.175  0.00  0.00    +0.000 A 
ATOM      3  C   UNL     1       0.106   9.519  22.154  0.00  0.00    +0.000 A 
ATOM      4  C   UNL     1       1.048   8.548  21.818  0.00  0.00    +0.000 A 
ATOM      5  C   UNL     1       1.453   8.377  20.494  0.00  0.00    +0.000 A 
ATOM      6  C   UNL     1       0.961   9.258  19.518  0.00  0.00    +0.000 A 
ENDROOT
BRANCH   5   7
ATOM      7  N   UNL     1       2.343   7.361  20.078  0.00  0.00    +0.000 N 
ATOM      8  C   UNL     1       2.147   6.002  20.183  0.00  0.00    +0.000 C 
ATOM      9  O   UNL     1       1.153   5.467  20.673  0.00  0.00    +0.000 OA
ATOM     10  N   UNL     1       3.158   5.218  19.669  0.00  0.00    +0.000 N 
ATOM     11  C   UNL     1       4.440   5.595  19.101  0.00  0.00    +0.000 C 
ATOM     12  C   UNL     1       4.799   4.406  18.227  0.00  0.00    +0.000 C 
ATOM     13  C   UNL     1       4.237   3.212  18.990  0.00  0.00    +0.000 C 
ATOM     14  C   UNL     1       3.027   3.771  19.725  0.00  0.00    +0.000 C 
ATOM     15  H   UNL     1       3.134   7.666  19.537  0.00  0.00    +0.000 HD
ENDBRANCH   5   7
BRANCH   1  17
ATOM     16  C   UNL     1       0.228  12.677  19.033  0.00  0.00    +0.000 C 
ATOM     17  C   UNL     1      -0.386  11.287  18.794  0.00  0.00    +0.000 C 
BRANCH  17  18
ATOM     18  S   UNL     1      -2.190  11.513  18.772  0.00  0.00    +0.000 S 
BRANCH  18  19
ATOM     19  C   UNL     1      -2.671  10.838  17.260  0.00  0.00    +0.000 A 
ATOM     20  N   UNL     1      -1.986  10.062  16.451  0.00  0.00    +0.000 NA
ATOM     21  N   UNL     1      -2.760   9.848  15.325  0.00  0.00    +0.000 NA
ATOM     22  C   UNL     1      -3.886  10.507  15.485  0.00  0.00    +0.000 A 
ATOM     23  N   UNL     1      -3.884  11.122  16.700  0.00  0.00    +0.000 N 
ATOM     24  C   UNL     1      -4.947  11.910  17.264  0.00  0.00    +0.000 C 
ENDBRANCH  18  19
ENDBRANCH  17  18
ENDBRANCH   1  17
TORSDOF 4
ENDMDL
