MODEL 1
REMARK VINA RESULT:      -8.7      0.000      0.000
REMARK  Name = 
REMARK  8 active torsions:
REMARK  status: ('A' for Active; 'I' for Inactive)
REMARK    1  A    between atoms: C_1  and  C_2
REMARK    2  A    between atoms: C_2  and  S_3
REMARK    3  A    between atoms: C_2  and  C_10
REMARK    4  A    between atoms: S_3  and  C_4
REMARK    5  A    between atoms: N_8  and  C_9
REMARK    6  A    between atoms: C_14  and  N_15
REMARK    7  A    between atoms: C_20  and  C_21
REMARK    8  A    between atoms: C_26  and  O_27
REMARK                            x       y       z     vdW  Elec       q    Type
REMARK                         _______ _______ _______ _____ _____    ______ ____
ROOT
ATOM      1  N   UNL     1       8.229   9.383  17.646  0.00  0.00    +0.000 N 
ATOM      2  C   UNL     1       8.921  10.224  18.499  0.00  0.00    +0.000 C 
ATOM      3  O   UNL     1       9.328   9.941  19.622  0.00  0.00    +0.000 OA
ATOM      4  N   UNL     1       9.217  11.449  17.918  0.00  0.00    +0.000 N 
ATOM      5  C   UNL     1       9.970  12.494  18.609  0.00  0.00    +0.000 C 
ATOM      6  C   UNL     1       8.850  13.484  18.271  0.00  0.00    +0.000 C 
ATOM      7  C   UNL     1       8.242  12.391  17.368  0.00  0.00    +0.000 C 
ATOM      8  H   UNL     1       8.216   9.678  16.682  0.00  0.00    +0.000 HD
ENDROOT
BRANCH   6   9
ATOM      9  C   UNL     1       8.010  13.989  19.473  0.00  0.00    +0.000 C 
ATOM     10  O   UNL     1       8.311  13.764  20.649  0.00  0.00    +0.000 OA
ATOM     11  N   UNL     1       6.873  14.723  19.167  0.00  0.00    +0.000 N 
ATOM     12  C   UNL     1       6.168  15.508  20.160  0.00  0.00    +0.000 C 
ATOM     13  C   UNL     1       4.742  15.531  19.649  0.00  0.00    +0.000 C 
ATOM     14  C   UNL     1       4.884  15.498  18.125  0.00  0.00    +0.000 C 
ATOM     15  C   UNL     1       6.280  14.916  17.854  0.00  0.00    +0.000 C 
BRANCH  14  16
ATOM     16  O   UNL     1       3.860  14.690  17.553  0.00  0.00    +0.000 OA
ATOM     17  H   UNL     1       3.252  15.279  17.064  0.00  0.00    +0.000 HD
ENDBRANCH  14  16
ENDBRANCH   6   9
BRANCH   1  22
ATOM     18  C   UNL     1       6.374   6.150  17.355  0.00  0.00    +0.000 A 
ATOM     19  C   UNL     1       7.012   5.401  18.356  0.00  0.00    +0.000 A 
ATOM     20  C   UNL     1       8.009   5.970  19.145  0.00  0.00    +0.000 A 
ATOM     21  C   UNL     1       8.411   7.287  18.934  0.00  0.00    +0.000 A 
ATOM     22  C   UNL     1       7.828   8.055  17.926  0.00  0.00    +0.000 A 
ATOM     23  C   UNL     1       6.797   7.487  17.157  0.00  0.00    +0.000 A 
BRANCH  18  25
ATOM     24  C   UNL     1       3.963   5.258  17.243  0.00  0.00    +0.000 C 
ATOM     25  C   UNL     1       5.263   5.560  16.478  0.00  0.00    +0.000 C 
BRANCH  25  26
ATOM     26  S   UNL     1       5.882   4.032  15.660  0.00  0.00    +0.000 S 
BRANCH  26  27
ATOM     27  C   UNL     1       6.868   4.648  14.381  0.00  0.00    +0.000 A 
ATOM     28  N   UNL     1       7.858   5.506  14.471  0.00  0.00    +0.000 NA
ATOM     29  N   UNL     1       8.315   5.752  13.192  0.00  0.00    +0.000 NA
ATOM     30  C   UNL     1       7.599   5.021  12.368  0.00  0.00    +0.000 A 
ATOM     31  N   UNL     1       6.695   4.291  13.077  0.00  0.00    +0.000 N 
ATOM     32  C   UNL     1       5.756   3.345  12.532  0.00  0.00    +0.000 C 
ENDBRANCH  26  27
ENDBRANCH  25  26
ENDBRANCH  18  25
ENDBRANCH   1  22
TORSDOF 6
ENDMDL
MODEL 2
REMARK VINA RESULT:      -8.6      1.040      1.047
REMARK  Name = 
REMARK  8 active torsions:
REMARK  status: ('A' for Active; 'I' for Inactive)
REMARK    1  A    between atoms: C_1  and  C_2
REMARK    2  A    between atoms: C_2  and  S_3
REMARK    3  A    between atoms: C_2  and  C_10
REMARK    4  A    between atoms: S_3  and  C_4
REMARK    5  A    between atoms: N_8  and  C_9
REMARK    6  A    between atoms: C_14  and  N_15
REMARK    7  A    between atoms: C_20  and  C_21
REMARK    8  A    between atoms: C_26  and  O_27
REMARK                            x       y       z     vdW  Elec       q    Type
REMARK                         _______ _______ _______ _____ _____    ______ ____
ROOT
ATOM      1  N   UNL     1       8.149   9.528  17.671  0.00  0.00    +0.000 N 
ATOM      2  C   UNL     1       8.982  10.304  18.456  0.00  0.00    +0.000 C 
ATOM      3  O   UNL     1       9.558   9.942  19.477  0.00  0.00    +0.000 OA
ATOM      4  N   UNL     1       9.202  11.565  17.918  0.00  0.00    +0.000 N 
ATOM      5  C   UNL     1      10.074  12.555  18.547  0.00  0.00    +0.000 C 
ATOM      6  C   UNL     1       8.931  13.572  18.460  0.00  0.00    +0.000 C 
ATOM      7  C   UNL     1       8.167  12.548  17.597  0.00  0.00    +0.000 C 
ATOM      8  H   UNL     1       7.986   9.888  16.743  0.00  0.00    +0.000 HD
ENDROOT
BRANCH   6   9
ATOM      9  C   UNL     1       8.302  13.999  19.813  0.00  0.00    +0.000 C 
ATOM     10  O   UNL     1       8.272  13.263  20.805  0.00  0.00    +0.000 OA
ATOM     11  N   UNL     1       7.758  15.274  19.867  0.00  0.00    +0.000 N 
ATOM     12  C   UNL     1       7.418  15.918  21.119  0.00  0.00    +0.000 C 
ATOM     13  C   UNL     1       6.295  16.862  20.741  0.00  0.00    +0.000 C 
ATOM     14  C   UNL     1       6.619  17.281  19.304  0.00  0.00    +0.000 C 
ATOM     15  C   UNL     1       7.545  16.185  18.754  0.00  0.00    +0.000 C 
BRANCH  14  16
ATOM     16  O   UNL     1       5.422  17.388  18.540  0.00  0.00    +0.000 OA
ATOM     17  H   UNL     1       5.038  16.493  18.460  0.00  0.00    +0.000 HD
ENDBRANCH  14  16
ENDBRANCH   6   9
BRANCH   1  22
ATOM     18  C   UNL     1       6.329   6.279  17.341  0.00  0.00    +0.000 A 
ATOM     19  C   UNL     1       7.010   5.509  18.296  0.00  0.00    +0.000 A 
ATOM     20  C   UNL     1       8.026   6.067  19.069  0.00  0.00    +0.000 A 
ATOM     21  C   UNL     1       8.403   7.396  18.886  0.00  0.00    +0.000 A 
ATOM     22  C   UNL     1       7.775   8.186  17.923  0.00  0.00    +0.000 A 
ATOM     23  C   UNL     1       6.727   7.627  17.171  0.00  0.00    +0.000 A 
BRANCH  18  25
ATOM     24  C   UNL     1       3.889   5.465  17.260  0.00  0.00    +0.000 C 
ATOM     25  C   UNL     1       5.196   5.701  16.483  0.00  0.00    +0.000 C 
BRANCH  25  26
ATOM     26  S   UNL     1       5.762   4.129  15.710  0.00  0.00    +0.000 S 
BRANCH  26  27
ATOM     27  C   UNL     1       6.787   4.673  14.430  0.00  0.00    +0.000 A 
ATOM     28  N   UNL     1       7.791   5.517  14.507  0.00  0.00    +0.000 NA
ATOM     29  N   UNL     1       8.281   5.700  13.230  0.00  0.00    +0.000 NA
ATOM     30  C   UNL     1       7.569   4.948  12.421  0.00  0.00    +0.000 A 
ATOM     31  N   UNL     1       6.636   4.265  13.139  0.00  0.00    +0.000 N 
ATOM     32  C   UNL     1       5.692   3.313  12.612  0.00  0.00    +0.000 C 
ENDBRANCH  26  27
ENDBRANCH  25  26
ENDBRANCH  18  25
ENDBRANCH   1  22
TORSDOF 6
ENDMDL
MODEL 3
REMARK VINA RESULT:      -8.4      4.035      9.913
REMARK  Name = 
REMARK  8 active torsions:
REMARK  status: ('A' for Active; 'I' for Inactive)
REMARK    1  A    between atoms: C_1  and  C_2
REMARK    2  A    between atoms: C_2  and  S_3
REMARK    3  A    between atoms: C_2  and  C_10
REMARK    4  A    between atoms: S_3  and  C_4
REMARK    5  A    between atoms: N_8  and  C_9
REMARK    6  A    between atoms: C_14  and  N_15
REMARK    7  A    between atoms: C_20  and  C_21
REMARK    8  A    between atoms: C_26  and  O_27
REMARK                            x       y       z     vdW  Elec       q    Type
REMARK                         _______ _______ _______ _____ _____    ______ ____
ROOT
ATOM      1  N   UNL     1       8.655   8.305  18.967  0.00  0.00    +0.000 N 
ATOM      2  C   UNL     1       7.895   7.672  18.001  0.00  0.00    +0.000 C 
ATOM      3  O   UNL     1       7.442   8.188  16.983  0.00  0.00    +0.000 OA
ATOM      4  N   UNL     1       7.753   6.312  18.237  0.00  0.00    +0.000 N 
ATOM      5  C   UNL     1       7.020   5.421  17.340  0.00  0.00    +0.000 C 
ATOM      6  C   UNL     1       6.212   4.923  18.542  0.00  0.00    +0.000 C 
ATOM      7  C   UNL     1       7.184   5.710  19.444  0.00  0.00    +0.000 C 
ATOM      8  H   UNL     1       9.164   7.684  19.578  0.00  0.00    +0.000 HD
ENDROOT
BRANCH   6   9
ATOM      9  C   UNL     1       4.713   5.323  18.561  0.00  0.00    +0.000 C 
ATOM     10  O   UNL     1       4.300   6.410  18.147  0.00  0.00    +0.000 OA
ATOM     11  N   UNL     1       3.830   4.385  19.078  0.00  0.00    +0.000 N 
ATOM     12  C   UNL     1       2.397   4.484  18.885  0.00  0.00    +0.000 C 
ATOM     13  C   UNL     1       1.826   3.775  20.096  0.00  0.00    +0.000 C 
ATOM     14  C   UNL     1       2.852   2.686  20.419  0.00  0.00    +0.000 C 
ATOM     15  C   UNL     1       4.165   3.152  19.770  0.00  0.00    +0.000 C 
BRANCH  14  16
ATOM     16  O   UNL     1       2.988   2.539  21.829  0.00  0.00    +0.000 OA
ATOM     17  H   UNL     1       3.410   1.675  22.001  0.00  0.00    +0.000 HD
ENDBRANCH  14  16
ENDBRANCH   6   9
BRANCH   1  22
ATOM     18  C   UNL     1       9.521  11.686  20.309  0.00  0.00    +0.000 A 
ATOM     19  C   UNL     1       9.805  12.366  19.116  0.00  0.00    +0.000 A 
ATOM     20  C   UNL     1       9.671  11.732  17.884  0.00  0.00    +0.000 A 
ATOM     21  C   UNL     1       9.277  10.396  17.817  0.00  0.00    +0.000 A 
ATOM     22  C   UNL     1       9.019   9.673  18.981  0.00  0.00    +0.000 A 
ATOM     23  C   UNL     1       9.121  10.329  20.219  0.00  0.00    +0.000 A 
BRANCH  18  25
ATOM     24  C   UNL     1       8.473  12.050  22.631  0.00  0.00    +0.000 C 
ATOM     25  C   UNL     1       9.644  12.358  21.683  0.00  0.00    +0.000 C 
BRANCH  25  26
ATOM     26  S   UNL     1       9.809  14.177  21.455  0.00  0.00    +0.000 S 
BRANCH  26  27
ATOM     27  C   UNL     1       8.167  14.716  21.438  0.00  0.00    +0.000 A 
ATOM     28  N   UNL     1       7.296  14.608  20.461  0.00  0.00    +0.000 NA
ATOM     29  N   UNL     1       6.133  15.229  20.869  0.00  0.00    +0.000 NA
ATOM     30  C   UNL     1       6.329  15.678  22.088  0.00  0.00    +0.000 A 
ATOM     31  N   UNL     1       7.588  15.353  22.494  0.00  0.00    +0.000 N 
ATOM     32  C   UNL     1       8.163  15.641  23.782  0.00  0.00    +0.000 C 
ENDBRANCH  26  27
ENDBRANCH  25  26
ENDBRANCH  18  25
ENDBRANCH   1  22
TORSDOF 6
ENDMDL
MODEL 4
REMARK VINA RESULT:      -8.4      4.297     10.014
REMARK  Name = 
REMARK  8 active torsions:
REMARK  status: ('A' for Active; 'I' for Inactive)
REMARK    1  A    between atoms: C_1  and  C_2
REMARK    2  A    between atoms: C_2  and  S_3
REMARK    3  A    between atoms: C_2  and  C_10
REMARK    4  A    between atoms: S_3  and  C_4
REMARK    5  A    between atoms: N_8  and  C_9
REMARK    6  A    between atoms: C_14  and  N_15
REMARK    7  A    between atoms: C_20  and  C_21
REMARK    8  A    between atoms: C_26  and  O_27
REMARK                            x       y       z     vdW  Elec       q    Type
REMARK                         _______ _______ _______ _____ _____    ______ ____
ROOT
ATOM      1  N   UNL     1       8.805   8.556  19.018  0.00  0.00    +0.000 N 
ATOM      2  C   UNL     1       8.062   7.903  18.050  0.00  0.00    +0.000 C 
ATOM      3  O   UNL     1       7.603   8.406  17.029  0.00  0.00    +0.000 OA
ATOM      4  N   UNL     1       7.949   6.541  18.291  0.00  0.00    +0.000 N 
ATOM      5  C   UNL     1       7.240   5.632  17.394  0.00  0.00    +0.000 C 
ATOM      6  C   UNL     1       6.437   5.120  18.595  0.00  0.00    +0.000 C 
ATOM      7  C   UNL     1       7.388   5.931  19.498  0.00  0.00    +0.000 C 
ATOM      8  H   UNL     1       9.324   7.948  19.633  0.00  0.00    +0.000 HD
ENDROOT
BRANCH   6   9
ATOM      9  C   UNL     1       4.930   5.487  18.606  0.00  0.00    +0.000 C 
ATOM     10  O   UNL     1       4.502   6.592  18.259  0.00  0.00    +0.000 OA
ATOM     11  N   UNL     1       4.056   4.498  19.035  0.00  0.00    +0.000 N 
ATOM     12  C   UNL     1       2.627   4.581  18.815  0.00  0.00    +0.000 C 
ATOM     13  C   UNL     1       2.044   3.777  19.960  0.00  0.00    +0.000 C 
ATOM     14  C   UNL     1       3.087   2.688  20.230  0.00  0.00    +0.000 C 
ATOM     15  C   UNL     1       4.403   3.226  19.647  0.00  0.00    +0.000 C 
BRANCH  14  16
ATOM     16  O   UNL     1       3.194   2.446  21.629  0.00  0.00    +0.000 OA
ATOM     17  H   UNL     1       3.873   1.756  21.762  0.00  0.00    +0.000 HD
ENDBRANCH  14  16
ENDBRANCH   6   9
BRANCH   1  22
ATOM     18  C   UNL     1       9.069  12.087  20.220  0.00  0.00    +0.000 A 
ATOM     19  C   UNL     1       9.815  12.654  19.176  0.00  0.00    +0.000 A 
ATOM     20  C   UNL     1      10.188  11.893  18.071  0.00  0.00    +0.000 A 
ATOM     21  C   UNL     1       9.849  10.543  17.996  0.00  0.00    +0.000 A 
ATOM     22  C   UNL     1       9.138   9.932  19.028  0.00  0.00    +0.000 A 
ATOM     23  C   UNL     1       8.734  10.714  20.124  0.00  0.00    +0.000 A 
BRANCH  18  25
ATOM     24  C   UNL     1       9.706  13.864  21.967  0.00  0.00    +0.000 C 
ATOM     25  C   UNL     1       8.629  12.898  21.445  0.00  0.00    +0.000 C 
BRANCH  25  26
ATOM     26  S   UNL     1       8.114  11.745  22.784  0.00  0.00    +0.000 S 
BRANCH  26  27
ATOM     27  C   UNL     1       6.926  12.657  23.646  0.00  0.00    +0.000 A 
ATOM     28  N   UNL     1       5.670  12.856  23.317  0.00  0.00    +0.000 NA
ATOM     29  N   UNL     1       5.118  13.691  24.266  0.00  0.00    +0.000 NA
ATOM     30  C   UNL     1       6.051  13.958  25.152  0.00  0.00    +0.000 A 
ATOM     31  N   UNL     1       7.197  13.305  24.814  0.00  0.00    +0.000 N 
ATOM     32  C   UNL     1       8.430  13.318  25.557  0.00  0.00    +0.000 C 
ENDBRANCH  26  27
ENDBRANCH  25  26
ENDBRANCH  18  25
ENDBRANCH   1  22
TORSDOF 6
ENDMDL
MODEL 5
REMARK VINA RESULT:      -8.4      3.994      9.921
REMARK  Name = 
REMARK  8 active torsions:
REMARK  status: ('A' for Active; 'I' for Inactive)
REMARK    1  A    between atoms: C_1  and  C_2
REMARK    2  A    between atoms: C_2  and  S_3
REMARK    3  A    between atoms: C_2  and  C_10
REMARK    4  A    between atoms: S_3  and  C_4
REMARK    5  A    between atoms: N_8  and  C_9
REMARK    6  A    between atoms: C_14  and  N_15
REMARK    7  A    between atoms: C_20  and  C_21
REMARK    8  A    between atoms: C_26  and  O_27
REMARK                            x       y       z     vdW  Elec       q    Type
REMARK                         _______ _______ _______ _____ _____    ______ ____
ROOT
ATOM      1  N   UNL     1       8.709   8.392  18.908  0.00  0.00    +0.000 N 
ATOM      2  C   UNL     1       7.886   7.814  17.958  0.00  0.00    +0.000 C 
ATOM      3  O   UNL     1       7.365   8.388  17.006  0.00  0.00    +0.000 OA
ATOM      4  N   UNL     1       7.761   6.441  18.122  0.00  0.00    +0.000 N 
ATOM      5  C   UNL     1       6.971   5.603  17.223  0.00  0.00    +0.000 C 
ATOM      6  C   UNL     1       6.245   5.029  18.445  0.00  0.00    +0.000 C 
ATOM      7  C   UNL     1       7.275   5.765  19.325  0.00  0.00    +0.000 C 
ATOM      8  H   UNL     1       9.258   7.738  19.444  0.00  0.00    +0.000 HD
ENDROOT
BRANCH   6   9
ATOM      9  C   UNL     1       4.751   5.420  18.589  0.00  0.00    +0.000 C 
ATOM     10  O   UNL     1       4.377   6.489  19.083  0.00  0.00    +0.000 OA
ATOM     11  N   UNL     1       3.823   4.496  18.130  0.00  0.00    +0.000 N 
ATOM     12  C   UNL     1       2.431   4.837  17.917  0.00  0.00    +0.000 C 
ATOM     13  C   UNL     1       1.708   3.521  18.120  0.00  0.00    +0.000 C 
ATOM     14  C   UNL     1       2.701   2.462  17.633  0.00  0.00    +0.000 C 
ATOM     15  C   UNL     1       4.083   3.131  17.701  0.00  0.00    +0.000 C 
BRANCH  14  16
ATOM     16  O   UNL     1       2.636   1.308  18.464  0.00  0.00    +0.000 OA
ATOM     17  H   UNL     1       3.072   1.524  19.312  0.00  0.00    +0.000 HD
ENDBRANCH  14  16
ENDBRANCH   6   9
BRANCH   1  22
ATOM     18  C   UNL     1       9.503  11.731  20.389  0.00  0.00    +0.000 A 
ATOM     19  C   UNL     1       9.851  12.445  19.233  0.00  0.00    +0.000 A 
ATOM     20  C   UNL     1       9.781  11.846  17.977  0.00  0.00    +0.000 A 
ATOM     21  C   UNL     1       9.392  10.514  17.852  0.00  0.00    +0.000 A 
ATOM     22  C   UNL     1       9.072   9.758  18.980  0.00  0.00    +0.000 A 
ATOM     23  C   UNL     1       9.109  10.379  20.240  0.00  0.00    +0.000 A 
BRANCH  18  25
ATOM     24  C   UNL     1       8.354  11.998  22.676  0.00  0.00    +0.000 C 
ATOM     25  C   UNL     1       9.554  12.364  21.786  0.00  0.00    +0.000 C 
BRANCH  25  26
ATOM     26  S   UNL     1       9.680  14.193  21.619  0.00  0.00    +0.000 S 
BRANCH  26  27
ATOM     27  C   UNL     1       8.027  14.690  21.535  0.00  0.00    +0.000 A 
ATOM     28  N   UNL     1       7.208  14.588  20.512  0.00  0.00    +0.000 NA
ATOM     29  N   UNL     1       6.009  15.167  20.879  0.00  0.00    +0.000 NA
ATOM     30  C   UNL     1       6.133  15.584  22.119  0.00  0.00    +0.000 A 
ATOM     31  N   UNL     1       7.378  15.279  22.578  0.00  0.00    +0.000 N 
ATOM     32  C   UNL     1       7.881  15.543  23.902  0.00  0.00    +0.000 C 
ENDBRANCH  26  27
ENDBRANCH  25  26
ENDBRANCH  18  25
ENDBRANCH   1  22
TORSDOF 6
ENDMDL
MODEL 6
REMARK VINA RESULT:      -8.3      2.599      3.519
REMARK  Name = 
REMARK  8 active torsions:
REMARK  status: ('A' for Active; 'I' for Inactive)
REMARK    1  A    between atoms: C_1  and  C_2
REMARK    2  A    between atoms: C_2  and  S_3
REMARK    3  A    between atoms: C_2  and  C_10
REMARK    4  A    between atoms: S_3  and  C_4
REMARK    5  A    between atoms: N_8  and  C_9
REMARK    6  A    between atoms: C_14  and  N_15
REMARK    7  A    between atoms: C_20  and  C_21
REMARK    8  A    between atoms: C_26  and  O_27
REMARK                            x       y       z     vdW  Elec       q    Type
REMARK                         _______ _______ _______ _____ _____    ______ ____
ROOT
ATOM      1  N   UNL     1       7.947   9.401  17.618  0.00  0.00    +0.000 N 
ATOM      2  C   UNL     1       8.844  10.162  18.346  0.00  0.00    +0.000 C 
ATOM      3  O   UNL     1       9.459   9.799  19.345  0.00  0.00    +0.000 OA
ATOM      4  N   UNL     1       9.079  11.405  17.774  0.00  0.00    +0.000 N 
ATOM      5  C   UNL     1      10.013  12.376  18.339  0.00  0.00    +0.000 C 
ATOM      6  C   UNL     1       8.901  13.430  18.289  0.00  0.00    +0.000 C 
ATOM      7  C   UNL     1       8.062  12.417  17.484  0.00  0.00    +0.000 C 
ATOM      8  H   UNL     1       7.751   9.750  16.693  0.00  0.00    +0.000 HD
ENDROOT
BRANCH   6   9
ATOM      9  C   UNL     1       8.355  13.902  19.662  0.00  0.00    +0.000 C 
ATOM     10  O   UNL     1       8.433  13.220  20.690  0.00  0.00    +0.000 OA
ATOM     11  N   UNL     1       7.758  15.154  19.693  0.00  0.00    +0.000 N 
ATOM     12  C   UNL     1       7.482  15.849  20.934  0.00  0.00    +0.000 C 
ATOM     13  C   UNL     1       6.291  16.722  20.595  0.00  0.00    +0.000 C 
ATOM     14  C   UNL     1       6.488  17.077  19.118  0.00  0.00    +0.000 C 
ATOM     15  C   UNL     1       7.420  15.993  18.555  0.00  0.00    +0.000 C 
BRANCH  14  16
ATOM     16  O   UNL     1       5.234  17.091  18.444  0.00  0.00    +0.000 OA
ATOM     17  H   UNL     1       4.777  17.922  18.678  0.00  0.00    +0.000 HD
ENDBRANCH  14  16
ENDBRANCH   6   9
BRANCH   1  22
ATOM     18  C   UNL     1       5.868   6.294  17.627  0.00  0.00    +0.000 A 
ATOM     19  C   UNL     1       6.687   5.443  18.385  0.00  0.00    +0.000 A 
ATOM     20  C   UNL     1       7.888   5.901  18.921  0.00  0.00    +0.000 A 
ATOM     21  C   UNL     1       8.311   7.210  18.691  0.00  0.00    +0.000 A 
ATOM     22  C   UNL     1       7.542   8.077  17.914  0.00  0.00    +0.000 A 
ATOM     23  C   UNL     1       6.315   7.619  17.406  0.00  0.00    +0.000 A 
BRANCH  18  25
ATOM     24  C   UNL     1       3.313   6.166  17.907  0.00  0.00    +0.000 C 
ATOM     25  C   UNL     1       4.533   5.827  17.034  0.00  0.00    +0.000 C 
BRANCH  25  26
ATOM     26  S   UNL     1       4.605   4.012  16.732  0.00  0.00    +0.000 S 
BRANCH  26  27
ATOM     27  C   UNL     1       3.206   3.425  17.559  0.00  0.00    +0.000 A 
ATOM     28  N   UNL     1       1.970   3.377  17.114  0.00  0.00    +0.000 NA
ATOM     29  N   UNL     1       1.179   2.890  18.135  0.00  0.00    +0.000 NA
ATOM     30  C   UNL     1       1.962   2.640  19.160  0.00  0.00    +0.000 A 
ATOM     31  N   UNL     1       3.249   2.937  18.830  0.00  0.00    +0.000 N 
ATOM     32  C   UNL     1       4.402   2.765  19.677  0.00  0.00    +0.000 C 
ENDBRANCH  26  27
ENDBRANCH  25  26
ENDBRANCH  18  25
ENDBRANCH   1  22
TORSDOF 6
ENDMDL
MODEL 7
REMARK VINA RESULT:      -8.3      4.034      9.909
REMARK  Name = 
REMARK  8 active torsions:
REMARK  status: ('A' for Active; 'I' for Inactive)
REMARK    1  A    between atoms: C_1  and  C_2
REMARK    2  A    between atoms: C_2  and  S_3
REMARK    3  A    between atoms: C_2  and  C_10
REMARK    4  A    between atoms: S_3  and  C_4
REMARK    5  A    between atoms: N_8  and  C_9
REMARK    6  A    between atoms: C_14  and  N_15
REMARK    7  A    between atoms: C_20  and  C_21
REMARK    8  A    between atoms: C_26  and  O_27
REMARK                            x       y       z     vdW  Elec       q    Type
REMARK                         _______ _______ _______ _____ _____    ______ ____
ROOT
ATOM      1  N   UNL     1       8.692   8.372  18.906  0.00  0.00    +0.000 N 
ATOM      2  C   UNL     1       7.867   7.784  17.965  0.00  0.00    +0.000 C 
ATOM      3  O   UNL     1       7.345   8.347  17.007  0.00  0.00    +0.000 OA
ATOM      4  N   UNL     1       7.743   6.413  18.144  0.00  0.00    +0.000 N 
ATOM      5  C   UNL     1       6.951   5.564  17.256  0.00  0.00    +0.000 C 
ATOM      6  C   UNL     1       6.227   5.004  18.486  0.00  0.00    +0.000 C 
ATOM      7  C   UNL     1       7.258   5.751  19.356  0.00  0.00    +0.000 C 
ATOM      8  H   UNL     1       9.241   7.725  19.450  0.00  0.00    +0.000 HD
ENDROOT
BRANCH   6   9
ATOM      9  C   UNL     1       4.733   5.397  18.627  0.00  0.00    +0.000 C 
ATOM     10  O   UNL     1       4.359   6.465  19.122  0.00  0.00    +0.000 OA
ATOM     11  N   UNL     1       3.805   4.475  18.163  0.00  0.00    +0.000 N 
ATOM     12  C   UNL     1       2.414   4.818  17.948  0.00  0.00    +0.000 C 
ATOM     13  C   UNL     1       1.688   3.503  18.145  0.00  0.00    +0.000 C 
ATOM     14  C   UNL     1       2.682   2.444  17.659  0.00  0.00    +0.000 C 
ATOM     15  C   UNL     1       4.064   3.111  17.732  0.00  0.00    +0.000 C 
BRANCH  14  16
ATOM     16  O   UNL     1       2.613   1.288  18.487  0.00  0.00    +0.000 OA
ATOM     17  H   UNL     1       3.068   1.494  19.327  0.00  0.00    +0.000 HD
ENDBRANCH  14  16
ENDBRANCH   6   9
BRANCH   1  22
ATOM     18  C   UNL     1       9.520  11.720  20.350  0.00  0.00    +0.000 A 
ATOM     19  C   UNL     1       9.836  12.429  19.181  0.00  0.00    +0.000 A 
ATOM     20  C   UNL     1       9.734  11.823  17.930  0.00  0.00    +0.000 A 
ATOM     21  C   UNL     1       9.342  10.490  17.822  0.00  0.00    +0.000 A 
ATOM     22  C   UNL     1       9.054   9.740  18.962  0.00  0.00    +0.000 A 
ATOM     23  C   UNL     1       9.124  10.367  20.217  0.00  0.00    +0.000 A 
BRANCH  18  25
ATOM     24  C   UNL     1       8.395  12.060  22.639  0.00  0.00    +0.000 C 
ATOM     25  C   UNL     1       9.608  12.360  21.741  0.00  0.00    +0.000 C 
BRANCH  25  26
ATOM     26  S   UNL     1       9.823  14.179  21.560  0.00  0.00    +0.000 S 
BRANCH  26  27
ATOM     27  C   UNL     1       8.317  14.806  22.133  0.00  0.00    +0.000 A 
ATOM     28  N   UNL     1       8.001  15.140  23.364  0.00  0.00    +0.000 NA
ATOM     29  N   UNL     1       6.679  15.534  23.362  0.00  0.00    +0.000 NA
ATOM     30  C   UNL     1       6.239  15.445  22.127  0.00  0.00    +0.000 A 
ATOM     31  N   UNL     1       7.246  15.016  21.317  0.00  0.00    +0.000 N 
ATOM     32  C   UNL     1       7.165  14.828  19.891  0.00  0.00    +0.000 C 
ENDBRANCH  26  27
ENDBRANCH  25  26
ENDBRANCH  18  25
ENDBRANCH   1  22
TORSDOF 6
ENDMDL
MODEL 8
REMARK VINA RESULT:      -8.2      3.981      9.689
REMARK  Name = 
REMARK  8 active torsions:
REMARK  status: ('A' for Active; 'I' for Inactive)
REMARK    1  A    between atoms: C_1  and  C_2
REMARK    2  A    between atoms: C_2  and  S_3
REMARK    3  A    between atoms: C_2  and  C_10
REMARK    4  A    between atoms: S_3  and  C_4
REMARK    5  A    between atoms: N_8  and  C_9
REMARK    6  A    between atoms: C_14  and  N_15
REMARK    7  A    between atoms: C_20  and  C_21
REMARK    8  A    between atoms: C_26  and  O_27
REMARK                            x       y       z     vdW  Elec       q    Type
REMARK                         _______ _______ _______ _____ _____    ______ ____
ROOT
ATOM      1  N   UNL     1       8.706   8.387  19.027  0.00  0.00    +0.000 N 
ATOM      2  C   UNL     1       7.965   7.750  18.049  0.00  0.00    +0.000 C 
ATOM      3  O   UNL     1       7.518   8.265  17.028  0.00  0.00    +0.000 OA
ATOM      4  N   UNL     1       7.837   6.386  18.277  0.00  0.00    +0.000 N 
ATOM      5  C   UNL     1       7.127   5.492  17.366  0.00  0.00    +0.000 C 
ATOM      6  C   UNL     1       6.310   4.977  18.557  0.00  0.00    +0.000 C 
ATOM      7  C   UNL     1       7.262   5.771  19.474  0.00  0.00    +0.000 C 
ATOM      8  H   UNL     1       9.215   7.770  19.641  0.00  0.00    +0.000 HD
ENDROOT
BRANCH   6   9
ATOM      9  C   UNL     1       4.806   5.358  18.560  0.00  0.00    +0.000 C 
ATOM     10  O   UNL     1       4.387   6.452  18.168  0.00  0.00    +0.000 OA
ATOM     11  N   UNL     1       3.926   4.397  19.035  0.00  0.00    +0.000 N 
ATOM     12  C   UNL     1       2.496   4.484  18.819  0.00  0.00    +0.000 C 
ATOM     13  C   UNL     1       1.912   3.736  20.000  0.00  0.00    +0.000 C 
ATOM     14  C   UNL     1       2.946   2.650  20.312  0.00  0.00    +0.000 C 
ATOM     15  C   UNL     1       4.264   3.149  19.700  0.00  0.00    +0.000 C 
BRANCH  14  16
ATOM     16  O   UNL     1       3.058   2.467  21.719  0.00  0.00    +0.000 OA
ATOM     17  H   UNL     1       3.397   1.564  21.878  0.00  0.00    +0.000 HD
ENDBRANCH  14  16
ENDBRANCH   6   9
BRANCH   1  22
ATOM     18  C   UNL     1       9.479  11.780  20.394  0.00  0.00    +0.000 A 
ATOM     19  C   UNL     1       9.801  12.462  19.212  0.00  0.00    +0.000 A 
ATOM     20  C   UNL     1       9.722  11.824  17.976  0.00  0.00    +0.000 A 
ATOM     21  C   UNL     1       9.347  10.483  17.897  0.00  0.00    +0.000 A 
ATOM     22  C   UNL     1       9.052   9.760  19.052  0.00  0.00    +0.000 A 
ATOM     23  C   UNL     1       9.099  10.419  20.292  0.00  0.00    +0.000 A 
BRANCH  18  25
ATOM     24  C   UNL     1       8.468  11.959  22.754  0.00  0.00    +0.000 C 
ATOM     25  C   UNL     1       9.541  12.456  21.770  0.00  0.00    +0.000 C 
BRANCH  25  26
ATOM     26  S   UNL     1       9.403  14.280  21.557  0.00  0.00    +0.000 S 
BRANCH  26  27
ATOM     27  C   UNL     1       7.701  14.557  21.677  0.00  0.00    +0.000 A 
ATOM     28  N   UNL     1       6.963  14.566  22.764  0.00  0.00    +0.000 NA
ATOM     29  N   UNL     1       5.654  14.769  22.377  0.00  0.00    +0.000 NA
ATOM     30  C   UNL     1       5.642  14.895  21.069  0.00  0.00    +0.000 A 
ATOM     31  N   UNL     1       6.913  14.794  20.592  0.00  0.00    +0.000 N 
ATOM     32  C   UNL     1       7.312  14.915  19.213  0.00  0.00    +0.000 C 
ENDBRANCH  26  27
ENDBRANCH  25  26
ENDBRANCH  18  25
ENDBRANCH   1  22
TORSDOF 6
ENDMDL
MODEL 9
REMARK VINA RESULT:      -8.2      4.398     10.223
REMARK  Name = 
REMARK  8 active torsions:
REMARK  status: ('A' for Active; 'I' for Inactive)
REMARK    1  A    between atoms: C_1  and  C_2
REMARK    2  A    between atoms: C_2  and  S_3
REMARK    3  A    between atoms: C_2  and  C_10
REMARK    4  A    between atoms: S_3  and  C_4
REMARK    5  A    between atoms: N_8  and  C_9
REMARK    6  A    between atoms: C_14  and  N_15
REMARK    7  A    between atoms: C_20  and  C_21
REMARK    8  A    between atoms: C_26  and  O_27
REMARK                            x       y       z     vdW  Elec       q    Type
REMARK                         _______ _______ _______ _____ _____    ______ ____
ROOT
ATOM      1  N   UNL     1       8.697   8.335  18.997  0.00  0.00    +0.000 N 
ATOM      2  C   UNL     1       7.930   7.710  18.030  0.00  0.00    +0.000 C 
ATOM      3  O   UNL     1       7.467   8.235  17.022  0.00  0.00    +0.000 OA
ATOM      4  N   UNL     1       7.792   6.347  18.255  0.00  0.00    +0.000 N 
ATOM      5  C   UNL     1       7.054   5.465  17.354  0.00  0.00    +0.000 C 
ATOM      6  C   UNL     1       6.256   4.952  18.558  0.00  0.00    +0.000 C 
ATOM      7  C   UNL     1       7.235   5.732  19.460  0.00  0.00    +0.000 C 
ATOM      8  H   UNL     1       9.212   7.709  19.597  0.00  0.00    +0.000 HD
ENDROOT
BRANCH   6   9
ATOM      9  C   UNL     1       4.757   5.349  18.594  0.00  0.00    +0.000 C 
ATOM     10  O   UNL     1       4.339   6.442  18.202  0.00  0.00    +0.000 OA
ATOM     11  N   UNL     1       3.879   4.401  19.100  0.00  0.00    +0.000 N 
ATOM     12  C   UNL     1       2.445   4.500  18.918  0.00  0.00    +0.000 C 
ATOM     13  C   UNL     1       1.883   3.769  20.120  0.00  0.00    +0.000 C 
ATOM     14  C   UNL     1       2.913   2.676  20.417  0.00  0.00    +0.000 C 
ATOM     15  C   UNL     1       4.221   3.156  19.768  0.00  0.00    +0.000 C 
BRANCH  14  16
ATOM     16  O   UNL     1       3.059   2.505  21.823  0.00  0.00    +0.000 OA
ATOM     17  H   UNL     1       3.772   3.101  22.125  0.00  0.00    +0.000 HD
ENDBRANCH  14  16
ENDBRANCH   6   9
BRANCH   1  22
ATOM     18  C   UNL     1       9.360  11.758  20.345  0.00  0.00    +0.000 A 
ATOM     19  C   UNL     1       9.822  12.401  19.188  0.00  0.00    +0.000 A 
ATOM     20  C   UNL     1       9.873  11.727  17.969  0.00  0.00    +0.000 A 
ATOM     21  C   UNL     1       9.490  10.390  17.887  0.00  0.00    +0.000 A 
ATOM     22  C   UNL     1       9.058   9.704  19.021  0.00  0.00    +0.000 A 
ATOM     23  C   UNL     1       8.975  10.399  20.240  0.00  0.00    +0.000 A 
BRANCH  18  25
ATOM     24  C   UNL     1       8.487  11.696  22.765  0.00  0.00    +0.000 C 
ATOM     25  C   UNL     1       9.277  12.474  21.700  0.00  0.00    +0.000 C 
BRANCH  25  26
ATOM     26  S   UNL     1       8.535  14.142  21.460  0.00  0.00    +0.000 S 
BRANCH  26  27
ATOM     27  C   UNL     1       9.535  15.156  22.440  0.00  0.00    +0.000 A 
ATOM     28  N   UNL     1       9.367  15.470  23.704  0.00  0.00    +0.000 NA
ATOM     29  N   UNL     1      10.372  16.349  24.053  0.00  0.00    +0.000 NA
ATOM     30  C   UNL     1      11.130  16.526  22.993  0.00  0.00    +0.000 A 
ATOM     31  N   UNL     1      10.654  15.772  21.964  0.00  0.00    +0.000 N 
ATOM     32  C   UNL     1      11.233  15.671  20.650  0.00  0.00    +0.000 C 
ENDBRANCH  26  27
ENDBRANCH  25  26
ENDBRANCH  18  25
ENDBRANCH   1  22
TORSDOF 6
ENDMDL
