MODEL 1
REMARK VINA RESULT:      -9.6      0.000      0.000
REMARK  Name = 
REMARK  9 active torsions:
REMARK  status: ('A' for Active; 'I' for Inactive)
REMARK    1  A    between atoms: C_1  and  C_2
REMARK    2  A    between atoms: C_2  and  C_3
REMARK    3  A    between atoms: C_2  and  C_10
REMARK    4  A    between atoms: C_3  and  C_4
REMARK    5  A    between atoms: N_8  and  C_9
REMARK    6  A    between atoms: C_12  and  N_13
REMARK    7  A    between atoms: N_13  and  C_14
REMARK    8  A    between atoms: C_19  and  N_20
REMARK    9  A    between atoms: C_27  and  C_28
REMARK                            x       y       z     vdW  Elec       q    Type
REMARK                         _______ _______ _______ _____ _____    ______ ____
ROOT
ATOM      1  C   UNL     1       4.074   5.271  17.300  0.00  0.00    +0.000 A 
ATOM      2  C   UNL     1       3.448   4.093  17.718  0.00  0.00    +0.000 A 
ATOM      3  C   UNL     1       2.291   4.126  18.516  0.00  0.00    +0.000 A 
ATOM      4  C   UNL     1       1.780   5.369  18.935  0.00  0.00    +0.000 A 
ATOM      5  C   UNL     1       2.392   6.564  18.552  0.00  0.00    +0.000 A 
ATOM      6  C   UNL     1       3.526   6.485  17.727  0.00  0.00    +0.000 A 
ENDROOT
BRANCH   5   7
ATOM      7  N   UNL     1       1.927   7.847  18.954  0.00  0.00    +0.000 N 
ATOM      8  C   UNL     1       1.350   8.032  20.274  0.00  0.00    +0.000 C 
ATOM      9  C   UNL     1       0.999   9.474  20.318  0.00  0.00    +0.000 A 
ATOM     10  C   UNL     1       1.349  10.075  19.112  0.00  0.00    +0.000 A 
ATOM     11  C   UNL     1       1.156  11.426  18.893  0.00  0.00    +0.000 A 
ATOM     12  C   UNL     1       0.597  12.178  19.933  0.00  0.00    +0.000 A 
ATOM     13  C   UNL     1       0.236  11.570  21.152  0.00  0.00    +0.000 A 
ATOM     14  C   UNL     1       0.427  10.195  21.362  0.00  0.00    +0.000 A 
ATOM     15  C   UNL     1       1.935   9.042  18.228  0.00  0.00    +0.000 C 
ATOM     16  O   UNL     1       2.331   9.284  17.105  0.00  0.00    +0.000 OA
BRANCH  14  17
ATOM     17  C   UNL     1       0.030   9.544  22.665  0.00  0.00    +0.000 C 
ATOM     18  F   UNL     1      -0.777   8.459  22.512  0.00  0.00    +0.000 F 
ATOM     19  F   UNL     1       1.103   9.114  23.380  0.00  0.00    +0.000 F 
ATOM     20  F   UNL     1      -0.653  10.394  23.478  0.00  0.00    +0.000 F 
ENDBRANCH  14  17
ENDBRANCH   5   7
BRANCH   1  22
ATOM     21  C   UNL     1       5.158   4.213  15.227  0.00  0.00    +0.000 C 
ATOM     22  C   UNL     1       5.277   5.239  16.368  0.00  0.00    +0.000 C 
BRANCH  22  23
ATOM     23  C   UNL     1       6.614   5.111  17.137  0.00  0.00    +0.000 C 
BRANCH  23  24
ATOM     24  C   UNL     1       7.243   6.409  17.523  0.00  0.00    +0.000 A 
ATOM     25  N   UNL     1       7.238   7.527  16.823  0.00  0.00    +0.000 NA
ATOM     26  N   UNL     1       7.964   8.471  17.509  0.00  0.00    +0.000 NA
ATOM     27  C   UNL     1       8.376   7.921  18.625  0.00  0.00    +0.000 A 
ATOM     28  N   UNL     1       7.940   6.634  18.684  0.00  0.00    +0.000 N 
ATOM     29  C   UNL     1       8.168   5.712  19.764  0.00  0.00    +0.000 C 
ENDBRANCH  23  24
ENDBRANCH  22  23
ENDBRANCH   1  22
BRANCH   3  30
ATOM     30  N   UNL     1       1.712   2.899  18.916  0.00  0.00    +0.000 N 
ATOM     31  H   UNL     1       0.725   2.846  18.673  0.00  0.00    +0.000 HD
BRANCH  30  32
ATOM     32  C   UNL     1       2.022   2.201  20.141  0.00  0.00    +0.000 C 
ATOM     33  C   UNL     1       3.292   2.717  20.832  0.00  0.00    +0.000 C 
ATOM     34  O   UNL     1       2.563   3.005  22.050  0.00  0.00    +0.000 OA
ATOM     35  C   UNL     1       1.303   2.778  21.367  0.00  0.00    +0.000 C 
ENDBRANCH  30  32
ENDBRANCH   3  30
TORSDOF 7
ENDMDL
MODEL 2
REMARK VINA RESULT:      -9.6      0.995      1.326
REMARK  Name = 
REMARK  9 active torsions:
REMARK  status: ('A' for Active; 'I' for Inactive)
REMARK    1  A    between atoms: C_1  and  C_2
REMARK    2  A    between atoms: C_2  and  C_3
REMARK    3  A    between atoms: C_2  and  C_10
REMARK    4  A    between atoms: C_3  and  C_4
REMARK    5  A    between atoms: N_8  and  C_9
REMARK    6  A    between atoms: C_12  and  N_13
REMARK    7  A    between atoms: N_13  and  C_14
REMARK    8  A    between atoms: C_19  and  N_20
REMARK    9  A    between atoms: C_27  and  C_28
REMARK                            x       y       z     vdW  Elec       q    Type
REMARK                         _______ _______ _______ _____ _____    ______ ____
ROOT
ATOM      1  C   UNL     1       4.397   5.672  17.536  0.00  0.00    +0.000 A 
ATOM      2  C   UNL     1       4.259   4.538  18.340  0.00  0.00    +0.000 A 
ATOM      3  C   UNL     1       3.361   4.517  19.422  0.00  0.00    +0.000 A 
ATOM      4  C   UNL     1       2.621   5.676  19.724  0.00  0.00    +0.000 A 
ATOM      5  C   UNL     1       2.750   6.833  18.952  0.00  0.00    +0.000 A 
ATOM      6  C   UNL     1       3.634   6.798  17.861  0.00  0.00    +0.000 A 
ENDROOT
BRANCH   5   7
ATOM      7  N   UNL     1       2.036   8.035  19.216  0.00  0.00    +0.000 N 
ATOM      8  C   UNL     1       1.393   8.232  20.503  0.00  0.00    +0.000 C 
ATOM      9  C   UNL     1       0.772   9.577  20.397  0.00  0.00    +0.000 A 
ATOM     10  C   UNL     1       1.041  10.115  19.141  0.00  0.00    +0.000 A 
ATOM     11  C   UNL     1       0.601  11.375  18.784  0.00  0.00    +0.000 A 
ATOM     12  C   UNL     1      -0.123  12.103  19.736  0.00  0.00    +0.000 A 
ATOM     13  C   UNL     1      -0.402  11.557  21.005  0.00  0.00    +0.000 A 
ATOM     14  C   UNL     1       0.041  10.271  21.355  0.00  0.00    +0.000 A 
ATOM     15  C   UNL     1       1.840   9.132  18.374  0.00  0.00    +0.000 C 
ATOM     16  O   UNL     1       2.219   9.337  17.237  0.00  0.00    +0.000 OA
BRANCH  14  17
ATOM     17  C   UNL     1      -0.267   9.685  22.712  0.00  0.00    +0.000 C 
ATOM     18  F   UNL     1       0.840   9.423  23.460  0.00  0.00    +0.000 F 
ATOM     19  F   UNL     1      -1.044  10.504  23.469  0.00  0.00    +0.000 F 
ATOM     20  F   UNL     1      -0.935   8.503  22.623  0.00  0.00    +0.000 F 
ENDBRANCH  14  17
ENDBRANCH   5   7
BRANCH   1  22
ATOM     21  C   UNL     1       4.882   4.672  15.222  0.00  0.00    +0.000 C 
ATOM     22  C   UNL     1       5.306   5.669  16.314  0.00  0.00    +0.000 C 
BRANCH  22  23
ATOM     23  C   UNL     1       6.800   5.526  16.692  0.00  0.00    +0.000 C 
BRANCH  23  24
ATOM     24  C   UNL     1       7.389   6.711  17.385  0.00  0.00    +0.000 A 
ATOM     25  N   UNL     1       7.466   7.941  16.915  0.00  0.00    +0.000 NA
ATOM     26  N   UNL     1       8.116   8.719  17.843  0.00  0.00    +0.000 NA
ATOM     27  C   UNL     1       8.399   7.957  18.872  0.00  0.00    +0.000 A 
ATOM     28  N   UNL     1       7.953   6.694  18.636  0.00  0.00    +0.000 N 
ATOM     29  C   UNL     1       8.056   5.579  19.538  0.00  0.00    +0.000 C 
ENDBRANCH  23  24
ENDBRANCH  22  23
ENDBRANCH   1  22
BRANCH   3  30
ATOM     30  N   UNL     1       3.276   3.343  20.206  0.00  0.00    +0.000 N 
ATOM     31  H   UNL     1       4.189   2.924  20.367  0.00  0.00    +0.000 HD
BRANCH  30  32
ATOM     32  C   UNL     1       2.222   2.361  20.110  0.00  0.00    +0.000 C 
ATOM     33  C   UNL     1       0.822   2.980  19.990  0.00  0.00    +0.000 C 
ATOM     34  O   UNL     1       0.575   2.282  18.744  0.00  0.00    +0.000 OA
ATOM     35  C   UNL     1       1.968   1.883  18.675  0.00  0.00    +0.000 C 
ENDBRANCH  30  32
ENDBRANCH   3  30
TORSDOF 7
ENDMDL
MODEL 3
REMARK VINA RESULT:      -9.3      1.061      1.642
REMARK  Name = 
REMARK  9 active torsions:
REMARK  status: ('A' for Active; 'I' for Inactive)
REMARK    1  A    between atoms: C_1  and  C_2
REMARK    2  A    between atoms: C_2  and  C_3
REMARK    3  A    between atoms: C_2  and  C_10
REMARK    4  A    between atoms: C_3  and  C_4
REMARK    5  A    between atoms: N_8  and  C_9
REMARK    6  A    between atoms: C_12  and  N_13
REMARK    7  A    between atoms: N_13  and  C_14
REMARK    8  A    between atoms: C_19  and  N_20
REMARK    9  A    between atoms: C_27  and  C_28
REMARK                            x       y       z     vdW  Elec       q    Type
REMARK                         _______ _______ _______ _____ _____    ______ ____
ROOT
ATOM      1  C   UNL     1       4.249   5.593  17.289  0.00  0.00    +0.000 A 
ATOM      2  C   UNL     1       4.165   4.472  18.119  0.00  0.00    +0.000 A 
ATOM      3  C   UNL     1       3.358   4.476  19.270  0.00  0.00    +0.000 A 
ATOM      4  C   UNL     1       2.655   5.648  19.613  0.00  0.00    +0.000 A 
ATOM      5  C   UNL     1       2.732   6.791  18.814  0.00  0.00    +0.000 A 
ATOM      6  C   UNL     1       3.524   6.731  17.656  0.00  0.00    +0.000 A 
ENDROOT
BRANCH   5   7
ATOM      7  N   UNL     1       2.053   8.005  19.116  0.00  0.00    +0.000 N 
ATOM      8  C   UNL     1       1.431   8.187  20.416  0.00  0.00    +0.000 C 
ATOM      9  C   UNL     1       0.844   9.550  20.350  0.00  0.00    +0.000 A 
ATOM     10  C   UNL     1       1.110  10.110  19.104  0.00  0.00    +0.000 A 
ATOM     11  C   UNL     1       0.699  11.389  18.782  0.00  0.00    +0.000 A 
ATOM     12  C   UNL     1       0.005  12.113  19.760  0.00  0.00    +0.000 A 
ATOM     13  C   UNL     1      -0.270  11.545  21.020  0.00  0.00    +0.000 A 
ATOM     14  C   UNL     1       0.144  10.240  21.334  0.00  0.00    +0.000 A 
ATOM     15  C   UNL     1       1.874   9.127  18.302  0.00  0.00    +0.000 C 
ATOM     16  O   UNL     1       2.243   9.348  17.166  0.00  0.00    +0.000 OA
BRANCH  14  17
ATOM     17  C   UNL     1      -0.162   9.630  22.681  0.00  0.00    +0.000 C 
ATOM     18  F   UNL     1       0.947   9.293  23.394  0.00  0.00    +0.000 F 
ATOM     19  F   UNL     1      -0.880  10.463  23.479  0.00  0.00    +0.000 F 
ATOM     20  F   UNL     1      -0.889   8.485  22.574  0.00  0.00    +0.000 F 
ENDBRANCH  14  17
ENDBRANCH   5   7
BRANCH   1  22
ATOM     21  C   UNL     1       5.184   4.161  15.374  0.00  0.00    +0.000 C 
ATOM     22  C   UNL     1       5.056   5.561  15.998  0.00  0.00    +0.000 C 
BRANCH  22  23
ATOM     23  C   UNL     1       6.425   6.267  16.143  0.00  0.00    +0.000 C 
BRANCH  23  24
ATOM     24  C   UNL     1       7.156   5.966  17.411  0.00  0.00    +0.000 A 
ATOM     25  N   UNL     1       7.324   4.779  17.961  0.00  0.00    +0.000 NA
ATOM     26  N   UNL     1       8.012   4.941  19.139  0.00  0.00    +0.000 NA
ATOM     27  C   UNL     1       8.274   6.219  19.273  0.00  0.00    +0.000 A 
ATOM     28  N   UNL     1       7.767   6.899  18.210  0.00  0.00    +0.000 N 
ATOM     29  C   UNL     1       7.871   8.316  17.984  0.00  0.00    +0.000 C 
ENDBRANCH  23  24
ENDBRANCH  22  23
ENDBRANCH   1  22
BRANCH   3  30
ATOM     30  N   UNL     1       3.325   3.316  20.077  0.00  0.00    +0.000 N 
ATOM     31  H   UNL     1       4.250   2.910  20.200  0.00  0.00    +0.000 HD
BRANCH  30  32
ATOM     32  C   UNL     1       2.280   2.321  20.050  0.00  0.00    +0.000 C 
ATOM     33  C   UNL     1       0.919   2.853  20.522  0.00  0.00    +0.000 C 
ATOM     34  O   UNL     1       0.291   2.477  19.271  0.00  0.00    +0.000 OA
ATOM     35  C   UNL     1       1.590   2.203  18.684  0.00  0.00    +0.000 C 
ENDBRANCH  30  32
ENDBRANCH   3  30
TORSDOF 7
ENDMDL
MODEL 4
REMARK VINA RESULT:      -9.3      1.960      2.742
REMARK  Name = 
REMARK  9 active torsions:
REMARK  status: ('A' for Active; 'I' for Inactive)
REMARK    1  A    between atoms: C_1  and  C_2
REMARK    2  A    between atoms: C_2  and  C_3
REMARK    3  A    between atoms: C_2  and  C_10
REMARK    4  A    between atoms: C_3  and  C_4
REMARK    5  A    between atoms: N_8  and  C_9
REMARK    6  A    between atoms: C_12  and  N_13
REMARK    7  A    between atoms: N_13  and  C_14
REMARK    8  A    between atoms: C_19  and  N_20
REMARK    9  A    between atoms: C_27  and  C_28
REMARK                            x       y       z     vdW  Elec       q    Type
REMARK                         _______ _______ _______ _____ _____    ______ ____
ROOT
ATOM      1  C   UNL     1       4.412   6.093  17.507  0.00  0.00    +0.000 A 
ATOM      2  C   UNL     1       4.307   4.904  18.233  0.00  0.00    +0.000 A 
ATOM      3  C   UNL     1       3.376   4.766  19.277  0.00  0.00    +0.000 A 
ATOM      4  C   UNL     1       2.565   5.864  19.623  0.00  0.00    +0.000 A 
ATOM      5  C   UNL     1       2.658   7.073  18.930  0.00  0.00    +0.000 A 
ATOM      6  C   UNL     1       3.578   7.155  17.873  0.00  0.00    +0.000 A 
ENDROOT
BRANCH   5   7
ATOM      7  N   UNL     1       1.871   8.217  19.243  0.00  0.00    +0.000 N 
ATOM      8  C   UNL     1       1.241   8.334  20.546  0.00  0.00    +0.000 C 
ATOM      9  C   UNL     1       0.531   9.638  20.490  0.00  0.00    +0.000 A 
ATOM     10  C   UNL     1       0.740  10.228  19.247  0.00  0.00    +0.000 A 
ATOM     11  C   UNL     1       0.211  11.466  18.935  0.00  0.00    +0.000 A 
ATOM     12  C   UNL     1      -0.541  12.116  19.920  0.00  0.00    +0.000 A 
ATOM     13  C   UNL     1      -0.758  11.518  21.177  0.00  0.00    +0.000 A 
ATOM     14  C   UNL     1      -0.225  10.255  21.481  0.00  0.00    +0.000 A 
ATOM     15  C   UNL     1       1.587   9.323  18.436  0.00  0.00    +0.000 C 
ATOM     16  O   UNL     1       1.930   9.585  17.300  0.00  0.00    +0.000 OA
BRANCH  14  17
ATOM     17  C   UNL     1      -0.468   9.611  22.825  0.00  0.00    +0.000 C 
ATOM     18  F   UNL     1      -0.970   8.348  22.745  0.00  0.00    +0.000 F 
ATOM     19  F   UNL     1       0.666   9.516  23.569  0.00  0.00    +0.000 F 
ATOM     20  F   UNL     1      -1.360  10.310  23.578  0.00  0.00    +0.000 F 
ENDBRANCH  14  17
ENDBRANCH   5   7
BRANCH   1  22
ATOM     21  C   UNL     1       4.851   7.141  15.205  0.00  0.00    +0.000 C 
ATOM     22  C   UNL     1       5.361   6.215  16.322  0.00  0.00    +0.000 C 
BRANCH  22  23
ATOM     23  C   UNL     1       5.811   4.836  15.784  0.00  0.00    +0.000 C 
BRANCH  23  24
ATOM     24  C   UNL     1       6.710   4.890  14.592  0.00  0.00    +0.000 A 
ATOM     25  N   UNL     1       7.859   5.529  14.499  0.00  0.00    +0.000 NA
ATOM     26  N   UNL     1       8.345   5.364  13.225  0.00  0.00    +0.000 NA
ATOM     27  C   UNL     1       7.499   4.604  12.573  0.00  0.00    +0.000 A 
ATOM     28  N   UNL     1       6.464   4.273  13.391  0.00  0.00    +0.000 N 
ATOM     29  C   UNL     1       5.348   3.434  13.046  0.00  0.00    +0.000 C 
ENDBRANCH  23  24
ENDBRANCH  22  23
ENDBRANCH   1  22
BRANCH   3  30
ATOM     30  N   UNL     1       3.327   3.541  19.982  0.00  0.00    +0.000 N 
ATOM     31  H   UNL     1       4.251   3.133  20.102  0.00  0.00    +0.000 HD
BRANCH  30  32
ATOM     32  C   UNL     1       2.293   2.545  19.835  0.00  0.00    +0.000 C 
ATOM     33  C   UNL     1       0.881   3.141  19.736  0.00  0.00    +0.000 C 
ATOM     34  O   UNL     1       0.654   2.498  18.458  0.00  0.00    +0.000 OA
ATOM     35  C   UNL     1       2.055   2.129  18.378  0.00  0.00    +0.000 C 
ENDBRANCH  30  32
ENDBRANCH   3  30
TORSDOF 7
ENDMDL
MODEL 5
REMARK VINA RESULT:      -9.2      1.472      2.488
REMARK  Name = 
REMARK  9 active torsions:
REMARK  status: ('A' for Active; 'I' for Inactive)
REMARK    1  A    between atoms: C_1  and  C_2
REMARK    2  A    between atoms: C_2  and  C_3
REMARK    3  A    between atoms: C_2  and  C_10
REMARK    4  A    between atoms: C_3  and  C_4
REMARK    5  A    between atoms: N_8  and  C_9
REMARK    6  A    between atoms: C_12  and  N_13
REMARK    7  A    between atoms: N_13  and  C_14
REMARK    8  A    between atoms: C_19  and  N_20
REMARK    9  A    between atoms: C_27  and  C_28
REMARK                            x       y       z     vdW  Elec       q    Type
REMARK                         _______ _______ _______ _____ _____    ______ ____
ROOT
ATOM      1  C   UNL     1       4.252   5.524  17.705  0.00  0.00    +0.000 A 
ATOM      2  C   UNL     1       3.606   4.319  17.993  0.00  0.00    +0.000 A 
ATOM      3  C   UNL     1       2.351   4.297  18.626  0.00  0.00    +0.000 A 
ATOM      4  C   UNL     1       1.756   5.513  19.015  0.00  0.00    +0.000 A 
ATOM      5  C   UNL     1       2.384   6.735  18.759  0.00  0.00    +0.000 A 
ATOM      6  C   UNL     1       3.621   6.710  18.094  0.00  0.00    +0.000 A 
ENDROOT
BRANCH   5   7
ATOM      7  N   UNL     1       1.835   7.992  19.137  0.00  0.00    +0.000 N 
ATOM      8  C   UNL     1       1.225   8.156  20.445  0.00  0.00    +0.000 C 
ATOM      9  C   UNL     1       0.787   9.575  20.465  0.00  0.00    +0.000 A 
ATOM     10  C   UNL     1       1.123  10.182  19.258  0.00  0.00    +0.000 A 
ATOM     11  C   UNL     1       0.853  11.516  19.019  0.00  0.00    +0.000 A 
ATOM     12  C   UNL     1       0.232  12.245  20.040  0.00  0.00    +0.000 A 
ATOM     13  C   UNL     1      -0.114  11.631  21.261  0.00  0.00    +0.000 A 
ATOM     14  C   UNL     1       0.156  10.272  21.491  0.00  0.00    +0.000 A 
ATOM     15  C   UNL     1       1.785   9.176  18.397  0.00  0.00    +0.000 C 
ATOM     16  O   UNL     1       2.186   9.429  17.278  0.00  0.00    +0.000 OA
BRANCH  14  17
ATOM     17  C   UNL     1      -0.225   9.613  22.794  0.00  0.00    +0.000 C 
ATOM     18  F   UNL     1      -0.981  10.400  23.606  0.00  0.00    +0.000 F 
ATOM     19  F   UNL     1      -0.939   8.470  22.611  0.00  0.00    +0.000 F 
ATOM     20  F   UNL     1       0.864   9.266  23.534  0.00  0.00    +0.000 F 
ENDBRANCH  14  17
ENDBRANCH   5   7
BRANCH   1  22
ATOM     21  C   UNL     1       5.992   6.955  16.473  0.00  0.00    +0.000 C 
ATOM     22  C   UNL     1       5.571   5.552  16.944  0.00  0.00    +0.000 C 
BRANCH  22  23
ATOM     23  C   UNL     1       5.613   4.511  15.801  0.00  0.00    +0.000 C 
BRANCH  23  24
ATOM     24  C   UNL     1       6.605   4.801  14.722  0.00  0.00    +0.000 A 
ATOM     25  N   UNL     1       7.702   5.524  14.834  0.00  0.00    +0.000 NA
ATOM     26  N   UNL     1       8.310   5.583  13.603  0.00  0.00    +0.000 NA
ATOM     27  C   UNL     1       7.587   4.874  12.770  0.00  0.00    +0.000 A 
ATOM     28  N   UNL     1       6.515   4.356  13.427  0.00  0.00    +0.000 N 
ATOM     29  C   UNL     1       5.505   3.505  12.859  0.00  0.00    +0.000 C 
ENDBRANCH  23  24
ENDBRANCH  22  23
ENDBRANCH   1  22
BRANCH   3  30
ATOM     30  N   UNL     1       1.755   3.045  18.902  0.00  0.00    +0.000 N 
ATOM     31  H   UNL     1       0.787   3.006  18.589  0.00  0.00    +0.000 HD
BRANCH  30  32
ATOM     32  C   UNL     1       1.986   2.266  20.095  0.00  0.00    +0.000 C 
ATOM     33  C   UNL     1       3.270   2.658  20.840  0.00  0.00    +0.000 C 
ATOM     34  O   UNL     1       2.530   2.933  22.055  0.00  0.00    +0.000 OA
ATOM     35  C   UNL     1       1.276   2.827  21.333  0.00  0.00    +0.000 C 
ENDBRANCH  30  32
ENDBRANCH   3  30
TORSDOF 7
ENDMDL
MODEL 6
REMARK VINA RESULT:      -9.0      0.812      1.123
REMARK  Name = 
REMARK  9 active torsions:
REMARK  status: ('A' for Active; 'I' for Inactive)
REMARK    1  A    between atoms: C_1  and  C_2
REMARK    2  A    between atoms: C_2  and  C_3
REMARK    3  A    between atoms: C_2  and  C_10
REMARK    4  A    between atoms: C_3  and  C_4
REMARK    5  A    between atoms: N_8  and  C_9
REMARK    6  A    between atoms: C_12  and  N_13
REMARK    7  A    between atoms: N_13  and  C_14
REMARK    8  A    between atoms: C_19  and  N_20
REMARK    9  A    between atoms: C_27  and  C_28
REMARK                            x       y       z     vdW  Elec       q    Type
REMARK                         _______ _______ _______ _____ _____    ______ ____
ROOT
ATOM      1  C   UNL     1       4.245   5.820  17.053  0.00  0.00    +0.000 A 
ATOM      2  C   UNL     1       3.694   4.582  17.395  0.00  0.00    +0.000 A 
ATOM      3  C   UNL     1       2.543   4.493  18.196  0.00  0.00    +0.000 A 
ATOM      4  C   UNL     1       1.960   5.673  18.696  0.00  0.00    +0.000 A 
ATOM      5  C   UNL     1       2.497   6.926  18.389  0.00  0.00    +0.000 A 
ATOM      6  C   UNL     1       3.628   6.969  17.558  0.00  0.00    +0.000 A 
ENDROOT
BRANCH   5   7
ATOM      7  N   UNL     1       1.957   8.149  18.873  0.00  0.00    +0.000 N 
ATOM      8  C   UNL     1       1.360   8.209  20.196  0.00  0.00    +0.000 C 
ATOM      9  C   UNL     1       0.928   9.623  20.337  0.00  0.00    +0.000 A 
ATOM     10  C   UNL     1       1.254  10.325  19.180  0.00  0.00    +0.000 A 
ATOM     11  C   UNL     1       0.987  11.675  19.052  0.00  0.00    +0.000 A 
ATOM     12  C   UNL     1       0.379  12.321  20.135  0.00  0.00    +0.000 A 
ATOM     13  C   UNL     1       0.043  11.610  21.305  0.00  0.00    +0.000 A 
ATOM     14  C   UNL     1       0.310  10.236  21.421  0.00  0.00    +0.000 A 
ATOM     15  C   UNL     1       1.903   9.390  18.232  0.00  0.00    +0.000 C 
ATOM     16  O   UNL     1       2.294   9.732  17.134  0.00  0.00    +0.000 OA
BRANCH  14  17
ATOM     17  C   UNL     1      -0.061   9.474  22.671  0.00  0.00    +0.000 C 
ATOM     18  F   UNL     1       1.012   9.053  23.394  0.00  0.00    +0.000 F 
ATOM     19  F   UNL     1      -0.821  10.212  23.524  0.00  0.00    +0.000 F 
ATOM     20  F   UNL     1      -0.779   8.352  22.396  0.00  0.00    +0.000 F 
ENDBRANCH  14  17
ENDBRANCH   5   7
BRANCH   1  22
ATOM     21  C   UNL     1       5.289   5.116  14.815  0.00  0.00    +0.000 C 
ATOM     22  C   UNL     1       5.443   5.921  16.118  0.00  0.00    +0.000 C 
BRANCH  22  23
ATOM     23  C   UNL     1       6.779   5.623  16.839  0.00  0.00    +0.000 C 
BRANCH  23  24
ATOM     24  C   UNL     1       7.421   6.806  17.486  0.00  0.00    +0.000 A 
ATOM     25  N   UNL     1       7.513   8.023  16.989  0.00  0.00    +0.000 NA
ATOM     26  N   UNL     1       8.214   8.803  17.877  0.00  0.00    +0.000 NA
ATOM     27  C   UNL     1       8.513   8.055  18.911  0.00  0.00    +0.000 A 
ATOM     28  N   UNL     1       8.027   6.799  18.718  0.00  0.00    +0.000 N 
ATOM     29  C   UNL     1       8.133   5.700  19.638  0.00  0.00    +0.000 C 
ENDBRANCH  23  24
ENDBRANCH  22  23
ENDBRANCH   1  22
BRANCH   3  30
ATOM     30  N   UNL     1       2.041   3.210  18.518  0.00  0.00    +0.000 N 
ATOM     31  H   UNL     1       1.023   3.189  18.522  0.00  0.00    +0.000 HD
BRANCH  30  32
ATOM     32  C   UNL     1       2.621   2.318  19.493  0.00  0.00    +0.000 C 
ATOM     33  C   UNL     1       3.813   1.515  18.951  0.00  0.00    +0.000 C 
ATOM     34  O   UNL     1       4.683   2.025  19.992  0.00  0.00    +0.000 OA
ATOM     35  C   UNL     1       3.674   2.993  20.382  0.00  0.00    +0.000 C 
ENDBRANCH  30  32
ENDBRANCH   3  30
TORSDOF 7
ENDMDL
MODEL 7
REMARK VINA RESULT:      -8.8      1.421      2.274
REMARK  Name = 
REMARK  9 active torsions:
REMARK  status: ('A' for Active; 'I' for Inactive)
REMARK    1  A    between atoms: C_1  and  C_2
REMARK    2  A    between atoms: C_2  and  C_3
REMARK    3  A    between atoms: C_2  and  C_10
REMARK    4  A    between atoms: C_3  and  C_4
REMARK    5  A    between atoms: N_8  and  C_9
REMARK    6  A    between atoms: C_12  and  N_13
REMARK    7  A    between atoms: N_13  and  C_14
REMARK    8  A    between atoms: C_19  and  N_20
REMARK    9  A    between atoms: C_27  and  C_28
REMARK                            x       y       z     vdW  Elec       q    Type
REMARK                         _______ _______ _______ _____ _____    ______ ____
ROOT
ATOM      1  C   UNL     1       4.946   5.844  18.174  0.00  0.00    +0.000 A 
ATOM      2  C   UNL     1       4.295   4.630  17.941  0.00  0.00    +0.000 A 
ATOM      3  C   UNL     1       2.895   4.529  18.006  0.00  0.00    +0.000 A 
ATOM      4  C   UNL     1       2.139   5.666  18.353  0.00  0.00    +0.000 A 
ATOM      5  C   UNL     1       2.760   6.891  18.610  0.00  0.00    +0.000 A 
ATOM      6  C   UNL     1       4.159   6.953  18.501  0.00  0.00    +0.000 A 
ENDROOT
BRANCH   5   7
ATOM      7  N   UNL     1       2.049   8.068  18.974  0.00  0.00    +0.000 N 
ATOM      8  C   UNL     1       1.406   8.158  20.273  0.00  0.00    +0.000 C 
ATOM      9  C   UNL     1       0.789   9.509  20.280  0.00  0.00    +0.000 A 
ATOM     10  C   UNL     1       1.058  10.149  19.073  0.00  0.00    +0.000 A 
ATOM     11  C   UNL     1       0.622  11.436  18.823  0.00  0.00    +0.000 A 
ATOM     12  C   UNL     1      -0.101  12.083  19.832  0.00  0.00    +0.000 A 
ATOM     13  C   UNL     1      -0.380  11.435  21.052  0.00  0.00    +0.000 A 
ATOM     14  C   UNL     1       0.060  10.123  21.293  0.00  0.00    +0.000 A 
ATOM     15  C   UNL     1       1.855   9.233  18.226  0.00  0.00    +0.000 C 
ATOM     16  O   UNL     1       2.235   9.531  17.110  0.00  0.00    +0.000 OA
BRANCH  14  17
ATOM     17  C   UNL     1      -0.249   9.426  22.596  0.00  0.00    +0.000 C 
ATOM     18  F   UNL     1      -0.882   8.231  22.442  0.00  0.00    +0.000 F 
ATOM     19  F   UNL     1       0.869   9.165  23.325  0.00  0.00    +0.000 F 
ATOM     20  F   UNL     1      -1.061  10.168  23.398  0.00  0.00    +0.000 F 
ENDBRANCH  14  17
ENDBRANCH   5   7
BRANCH   1  22
ATOM     21  C   UNL     1       6.910   7.303  17.395  0.00  0.00    +0.000 C 
ATOM     22  C   UNL     1       6.456   5.974  18.022  0.00  0.00    +0.000 C 
BRANCH  22  23
ATOM     23  C   UNL     1       7.084   4.747  17.318  0.00  0.00    +0.000 C 
BRANCH  23  24
ATOM     24  C   UNL     1       7.054   4.797  15.825  0.00  0.00    +0.000 A 
ATOM     25  N   UNL     1       7.759   5.596  15.049  0.00  0.00    +0.000 NA
ATOM     26  N   UNL     1       7.406   5.355  13.743  0.00  0.00    +0.000 NA
ATOM     27  C   UNL     1       6.513   4.395  13.745  0.00  0.00    +0.000 A 
ATOM     28  N   UNL     1       6.269   4.005  15.025  0.00  0.00    +0.000 N 
ATOM     29  C   UNL     1       5.368   2.962  15.434  0.00  0.00    +0.000 C 
ENDBRANCH  23  24
ENDBRANCH  22  23
ENDBRANCH   1  22
BRANCH   3  30
ATOM     30  N   UNL     1       2.296   3.269  17.773  0.00  0.00    +0.000 N 
ATOM     31  H   UNL     1       1.581   3.314  17.050  0.00  0.00    +0.000 HD
BRANCH  30  32
ATOM     32  C   UNL     1       1.992   2.299  18.797  0.00  0.00    +0.000 C 
ATOM     33  C   UNL     1       2.607   2.640  20.163  0.00  0.00    +0.000 C 
ATOM     34  O   UNL     1       1.305   2.622  20.799  0.00  0.00    +0.000 OA
ATOM     35  C   UNL     1       0.655   2.559  19.503  0.00  0.00    +0.000 C 
ENDBRANCH  30  32
ENDBRANCH   3  30
TORSDOF 7
ENDMDL
MODEL 8
REMARK VINA RESULT:      -8.7      1.467      2.485
REMARK  Name = 
REMARK  9 active torsions:
REMARK  status: ('A' for Active; 'I' for Inactive)
REMARK    1  A    between atoms: C_1  and  C_2
REMARK    2  A    between atoms: C_2  and  C_3
REMARK    3  A    between atoms: C_2  and  C_10
REMARK    4  A    between atoms: C_3  and  C_4
REMARK    5  A    between atoms: N_8  and  C_9
REMARK    6  A    between atoms: C_12  and  N_13
REMARK    7  A    between atoms: N_13  and  C_14
REMARK    8  A    between atoms: C_19  and  N_20
REMARK    9  A    between atoms: C_27  and  C_28
REMARK                            x       y       z     vdW  Elec       q    Type
REMARK                         _______ _______ _______ _____ _____    ______ ____
ROOT
ATOM      1  C   UNL     1       5.235   5.163  18.822  0.00  0.00    +0.000 A 
ATOM      2  C   UNL     1       4.583   3.928  18.874  0.00  0.00    +0.000 A 
ATOM      3  C   UNL     1       3.186   3.846  19.005  0.00  0.00    +0.000 A 
ATOM      4  C   UNL     1       2.437   5.032  19.128  0.00  0.00    +0.000 A 
ATOM      5  C   UNL     1       3.059   6.282  19.099  0.00  0.00    +0.000 A 
ATOM      6  C   UNL     1       4.453   6.317  18.933  0.00  0.00    +0.000 A 
ENDROOT
BRANCH   5   7
ATOM      7  N   UNL     1       2.355   7.511  19.228  0.00  0.00    +0.000 N 
ATOM      8  C   UNL     1       1.672   7.832  20.469  0.00  0.00    +0.000 C 
ATOM      9  C   UNL     1       1.075   9.169  20.221  0.00  0.00    +0.000 A 
ATOM     10  C   UNL     1       1.393   9.587  18.931  0.00  0.00    +0.000 A 
ATOM     11  C   UNL     1       0.984  10.815  18.447  0.00  0.00    +0.000 A 
ATOM     12  C   UNL     1       0.239  11.635  19.303  0.00  0.00    +0.000 A 
ATOM     13  C   UNL     1      -0.089  11.211  20.606  0.00  0.00    +0.000 A 
ATOM     14  C   UNL     1       0.323   9.956  21.086  0.00  0.00    +0.000 A 
ATOM     15  C   UNL     1       2.203   8.530  18.284  0.00  0.00    +0.000 C 
ATOM     16  O   UNL     1       2.623   8.626  17.147  0.00  0.00    +0.000 OA
BRANCH  14  17
ATOM     17  C   UNL     1      -0.039   9.499  22.479  0.00  0.00    +0.000 C 
ATOM     18  F   UNL     1      -0.710  10.434  23.206  0.00  0.00    +0.000 F 
ATOM     19  F   UNL     1      -0.828   8.392  22.475  0.00  0.00    +0.000 F 
ATOM     20  F   UNL     1       1.059   9.181  23.218  0.00  0.00    +0.000 F 
ENDBRANCH  14  17
ENDBRANCH   5   7
BRANCH   1  22
ATOM     21  C   UNL     1       7.512   5.870  19.776  0.00  0.00    +0.000 C 
ATOM     22  C   UNL     1       6.739   5.254  18.597  0.00  0.00    +0.000 C 
BRANCH  22  23
ATOM     23  C   UNL     1       7.092   5.923  17.248  0.00  0.00    +0.000 C 
BRANCH  23  24
ATOM     24  C   UNL     1       6.602   5.195  16.038  0.00  0.00    +0.000 A 
ATOM     25  N   UNL     1       7.039   4.037  15.585  0.00  0.00    +0.000 NA
ATOM     26  N   UNL     1       6.359   3.740  14.428  0.00  0.00    +0.000 NA
ATOM     27  C   UNL     1       5.501   4.708  14.213  0.00  0.00    +0.000 A 
ATOM     28  N   UNL     1       5.609   5.637  15.200  0.00  0.00    +0.000 N 
ATOM     29  C   UNL     1       4.821   6.834  15.326  0.00  0.00    +0.000 C 
ENDBRANCH  23  24
ENDBRANCH  22  23
ENDBRANCH   1  22
BRANCH   3  30
ATOM     30  N   UNL     1       2.586   2.567  19.064  0.00  0.00    +0.000 N 
ATOM     31  H   UNL     1       2.033   2.366  18.234  0.00  0.00    +0.000 HD
BRANCH  30  32
ATOM     32  C   UNL     1       2.038   1.967  20.257  0.00  0.00    +0.000 C 
ATOM     33  C   UNL     1       2.880   2.229  21.514  0.00  0.00    +0.000 C 
ATOM     34  O   UNL     1       1.754   2.836  22.193  0.00  0.00    +0.000 OA
ATOM     35  C   UNL     1       0.996   2.851  20.956  0.00  0.00    +0.000 C 
ENDBRANCH  30  32
ENDBRANCH   3  30
TORSDOF 7
ENDMDL
MODEL 9
REMARK VINA RESULT:      -8.7      4.377      9.012
REMARK  Name = 
REMARK  9 active torsions:
REMARK  status: ('A' for Active; 'I' for Inactive)
REMARK    1  A    between atoms: C_1  and  C_2
REMARK    2  A    between atoms: C_2  and  C_3
REMARK    3  A    between atoms: C_2  and  C_10
REMARK    4  A    between atoms: C_3  and  C_4
REMARK    5  A    between atoms: N_8  and  C_9
REMARK    6  A    between atoms: C_12  and  N_13
REMARK    7  A    between atoms: N_13  and  C_14
REMARK    8  A    between atoms: C_19  and  N_20
REMARK    9  A    between atoms: C_27  and  C_28
REMARK                            x       y       z     vdW  Elec       q    Type
REMARK                         _______ _______ _______ _____ _____    ______ ____
ROOT
ATOM      1  C   UNL     1       0.199  10.192  20.965  0.00  0.00    +0.000 A 
ATOM      2  C   UNL     1      -0.415  10.831  19.885  0.00  0.00    +0.000 A 
ATOM      3  C   UNL     1      -0.236  10.372  18.568  0.00  0.00    +0.000 A 
ATOM      4  C   UNL     1       0.612   9.272  18.333  0.00  0.00    +0.000 A 
ATOM      5  C   UNL     1       1.256   8.622  19.389  0.00  0.00    +0.000 A 
ATOM      6  C   UNL     1       1.022   9.095  20.691  0.00  0.00    +0.000 A 
ENDROOT
BRANCH   5   7
ATOM      7  N   UNL     1       2.130   7.514  19.211  0.00  0.00    +0.000 N 
ATOM      8  C   UNL     1       3.170   7.563  18.198  0.00  0.00    +0.000 C 
ATOM      9  C   UNL     1       3.860   6.254  18.323  0.00  0.00    +0.000 A 
ATOM     10  C   UNL     1       3.261   5.507  19.333  0.00  0.00    +0.000 A 
ATOM     11  C   UNL     1       3.725   4.253  19.679  0.00  0.00    +0.000 A 
ATOM     12  C   UNL     1       4.830   3.754  18.979  0.00  0.00    +0.000 A 
ATOM     13  C   UNL     1       5.434   4.506  17.951  0.00  0.00    +0.000 A 
ATOM     14  C   UNL     1       4.949   5.777  17.600  0.00  0.00    +0.000 A 
ATOM     15  C   UNL     1       2.146   6.300  19.902  0.00  0.00    +0.000 C 
ATOM     16  O   UNL     1       1.443   5.892  20.805  0.00  0.00    +0.000 OA
BRANCH  14  17
ATOM     17  C   UNL     1       5.591   6.576  16.492  0.00  0.00    +0.000 C 
ATOM     18  F   UNL     1       4.705   7.050  15.574  0.00  0.00    +0.000 F 
ATOM     19  F   UNL     1       6.265   7.661  16.956  0.00  0.00    +0.000 F 
ATOM     20  F   UNL     1       6.492   5.843  15.783  0.00  0.00    +0.000 F 
ENDBRANCH  14  17
ENDBRANCH   5   7
BRANCH   1  22
ATOM     21  C   UNL     1      -0.046   9.490  23.422  0.00  0.00    +0.000 C 
ATOM     22  C   UNL     1      -0.061  10.637  22.398  0.00  0.00    +0.000 C 
BRANCH  22  23
ATOM     23  C   UNL     1      -1.327  11.518  22.520  0.00  0.00    +0.000 C 
BRANCH  23  24
ATOM     24  C   UNL     1      -1.068  12.946  22.876  0.00  0.00    +0.000 A 
ATOM     25  N   UNL     1       0.013  13.645  22.591  0.00  0.00    +0.000 NA
ATOM     26  N   UNL     1      -0.127  14.900  23.134  0.00  0.00    +0.000 NA
ATOM     27  C   UNL     1      -1.300  14.951  23.716  0.00  0.00    +0.000 A 
ATOM     28  N   UNL     1      -1.931  13.755  23.572  0.00  0.00    +0.000 N 
ATOM     29  C   UNL     1      -3.246  13.428  24.053  0.00  0.00    +0.000 C 
ENDBRANCH  23  24
ENDBRANCH  22  23
ENDBRANCH   1  22
BRANCH   3  30
ATOM     30  N   UNL     1      -0.873  11.070  17.516  0.00  0.00    +0.000 N 
ATOM     31  H   UNL     1      -0.419  11.958  17.317  0.00  0.00    +0.000 HD
BRANCH  30  32
ATOM     32  C   UNL     1      -2.299  11.113  17.300  0.00  0.00    +0.000 C 
ATOM     33  C   UNL     1      -2.696  11.004  15.820  0.00  0.00    +0.000 C 
ATOM     34  O   UNL     1      -3.517   9.839  16.083  0.00  0.00    +0.000 OA
ATOM     35  C   UNL     1      -2.974   9.741  17.425  0.00  0.00    +0.000 C 
ENDBRANCH  30  32
ENDBRANCH   3  30
TORSDOF 7
ENDMDL
