MODEL 1
REMARK VINA RESULT:      -8.5      0.000      0.000
REMARK  Name = 
REMARK  7 active torsions:
REMARK  status: ('A' for Active; 'I' for Inactive)
REMARK    1  A    between atoms: C_1  and  C_2
REMARK    2  A    between atoms: C_2  and  S_3
REMARK    3  A    between atoms: C_2  and  C_10
REMARK    4  A    between atoms: S_3  and  C_4
REMARK    5  A    between atoms: N_8  and  C_9
REMARK    6  A    between atoms: C_14  and  N_15
REMARK    7  A    between atoms: C_18  and  C_19
REMARK                            x       y       z     vdW  Elec       q    Type
REMARK                         _______ _______ _______ _____ _____    ______ ____
ROOT
ATOM      1  C   UNL     1      -0.996  11.245  21.807  0.00  0.00    +0.000 A 
ATOM      2  C   UNL     1      -0.817  10.592  23.041  0.00  0.00    +0.000 A 
ATOM      3  C   UNL     1       0.038   9.494  23.171  0.00  0.00    +0.000 A 
ATOM      4  C   UNL     1       0.725   9.009  22.063  0.00  0.00    +0.000 A 
ATOM      5  C   UNL     1       0.580   9.644  20.827  0.00  0.00    +0.000 A 
ATOM      6  C   UNL     1      -0.253  10.770  20.704  0.00  0.00    +0.000 A 
ENDROOT
BRANCH   5   7
ATOM      7  N   UNL     1       1.275   9.138  19.697  0.00  0.00    +0.000 N 
ATOM      8  N   UNL     1       1.365   9.838  18.535  0.00  0.00    +0.000 NA
ATOM      9  C   UNL     1       2.026   8.990  17.750  0.00  0.00    +0.000 A 
ATOM     10  C   UNL     1       2.319   7.794  18.438  0.00  0.00    +0.000 A 
ATOM     11  N   UNL     1       1.877   7.921  19.701  0.00  0.00    +0.000 NA
BRANCH  10  12
ATOM     12  C   UNL     1       2.951   6.568  17.950  0.00  0.00    +0.000 A 
ATOM     13  C   UNL     1       4.243   6.604  17.403  0.00  0.00    +0.000 A 
ATOM     14  C   UNL     1       4.884   5.433  16.993  0.00  0.00    +0.000 A 
ATOM     15  C   UNL     1       4.238   4.206  17.125  0.00  0.00    +0.000 A 
ATOM     16  C   UNL     1       2.952   4.160  17.658  0.00  0.00    +0.000 A 
ATOM     17 CL   UNL     1       2.156   2.643  17.831  0.00  0.00    +0.000 Cl
ATOM     18  C   UNL     1       2.306   5.327  18.066  0.00  0.00    +0.000 A 
ENDBRANCH  10  12
ENDBRANCH   5   7
BRANCH   1  20
ATOM     19  C   UNL     1      -1.555  13.393  20.514  0.00  0.00    +0.000 C 
ATOM     20  C   UNL     1      -1.972  12.413  21.621  0.00  0.00    +0.000 C 
BRANCH  20  21
ATOM     21  S   UNL     1      -2.126  13.309  23.229  0.00  0.00    +0.000 S 
BRANCH  21  22
ATOM     22  C   UNL     1      -3.751  12.990  23.706  0.00  0.00    +0.000 A 
ATOM     23  N   UNL     1      -4.202  11.969  24.396  0.00  0.00    +0.000 NA
ATOM     24  N   UNL     1      -5.577  12.084  24.458  0.00  0.00    +0.000 NA
ATOM     25  C   UNL     1      -5.912  13.184  23.825  0.00  0.00    +0.000 A 
ATOM     26  N   UNL     1      -4.791  13.803  23.361  0.00  0.00    +0.000 N 
ATOM     27  C   UNL     1      -4.742  15.051  22.650  0.00  0.00    +0.000 C 
ENDBRANCH  21  22
ENDBRANCH  20  21
ENDBRANCH   1  20
TORSDOF 5
ENDMDL
MODEL 2
REMARK VINA RESULT:      -8.4      1.047      1.399
REMARK  Name = 
REMARK  7 active torsions:
REMARK  status: ('A' for Active; 'I' for Inactive)
REMARK    1  A    between atoms: C_1  and  C_2
REMARK    2  A    between atoms: C_2  and  S_3
REMARK    3  A    between atoms: C_2  and  C_10
REMARK    4  A    between atoms: S_3  and  C_4
REMARK    5  A    between atoms: N_8  and  C_9
REMARK    6  A    between atoms: C_14  and  N_15
REMARK    7  A    between atoms: C_18  and  C_19
REMARK                            x       y       z     vdW  Elec       q    Type
REMARK                         _______ _______ _______ _____ _____    ______ ____
ROOT
ATOM      1  C   UNL     1      -0.984  11.247  21.778  0.00  0.00    +0.000 A 
ATOM      2  C   UNL     1      -0.816  10.600  23.017  0.00  0.00    +0.000 A 
ATOM      3  C   UNL     1       0.036   9.501  23.160  0.00  0.00    +0.000 A 
ATOM      4  C   UNL     1       0.731   9.009  22.061  0.00  0.00    +0.000 A 
ATOM      5  C   UNL     1       0.598   9.638  20.820  0.00  0.00    +0.000 A 
ATOM      6  C   UNL     1      -0.232  10.764  20.684  0.00  0.00    +0.000 A 
ENDROOT
BRANCH   5   7
ATOM      7  N   UNL     1       1.302   9.125  19.698  0.00  0.00    +0.000 N 
ATOM      8  N   UNL     1       1.371   9.802  18.521  0.00  0.00    +0.000 NA
ATOM      9  C   UNL     1       2.050   8.954  17.753  0.00  0.00    +0.000 A 
ATOM     10  C   UNL     1       2.375   7.781  18.465  0.00  0.00    +0.000 A 
ATOM     11  N   UNL     1       1.934   7.924  19.727  0.00  0.00    +0.000 NA
BRANCH  10  12
ATOM     12  C   UNL     1       3.036   6.561  18.001  0.00  0.00    +0.000 A 
ATOM     13  C   UNL     1       2.381   5.322  18.084  0.00  0.00    +0.000 A 
ATOM     14  C   UNL     1       2.974   4.160  17.585  0.00  0.00    +0.000 A 
ATOM     15  C   UNL     1       4.234   4.222  16.997  0.00  0.00    +0.000 A 
ATOM     16  C   UNL     1       4.897   5.444  16.918  0.00  0.00    +0.000 A 
ATOM     17 CL   UNL     1       6.452   5.524  16.181  0.00  0.00    +0.000 Cl
ATOM     18  C   UNL     1       4.311   6.607  17.417  0.00  0.00    +0.000 A 
ENDBRANCH  10  12
ENDBRANCH   5   7
BRANCH   1  20
ATOM     19  C   UNL     1      -1.532  13.386  20.465  0.00  0.00    +0.000 C 
ATOM     20  C   UNL     1      -1.957  12.415  21.577  0.00  0.00    +0.000 C 
BRANCH  20  21
ATOM     21  S   UNL     1      -2.117  13.324  23.177  0.00  0.00    +0.000 S 
BRANCH  21  22
ATOM     22  C   UNL     1      -3.749  13.022  23.642  0.00  0.00    +0.000 A 
ATOM     23  N   UNL     1      -4.220  11.996  24.309  0.00  0.00    +0.000 NA
ATOM     24  N   UNL     1      -5.593  12.132  24.370  0.00  0.00    +0.000 NA
ATOM     25  C   UNL     1      -5.906  13.251  23.757  0.00  0.00    +0.000 A 
ATOM     26  N   UNL     1      -4.774  13.860  23.309  0.00  0.00    +0.000 N 
ATOM     27  C   UNL     1      -4.702  15.121  22.624  0.00  0.00    +0.000 C 
ENDBRANCH  21  22
ENDBRANCH  20  21
ENDBRANCH   1  20
TORSDOF 5
ENDMDL
MODEL 3
REMARK VINA RESULT:      -8.1      4.191      9.659
REMARK  Name = 
REMARK  7 active torsions:
REMARK  status: ('A' for Active; 'I' for Inactive)
REMARK    1  A    between atoms: C_1  and  C_2
REMARK    2  A    between atoms: C_2  and  S_3
REMARK    3  A    between atoms: C_2  and  C_10
REMARK    4  A    between atoms: S_3  and  C_4
REMARK    5  A    between atoms: N_8  and  C_9
REMARK    6  A    between atoms: C_14  and  N_15
REMARK    7  A    between atoms: C_18  and  C_19
REMARK                            x       y       z     vdW  Elec       q    Type
REMARK                         _______ _______ _______ _____ _____    ______ ____
ROOT
ATOM      1  C   UNL     1       2.604   7.338  18.929  0.00  0.00    +0.000 A 
ATOM      2  C   UNL     1       2.558   8.085  17.737  0.00  0.00    +0.000 A 
ATOM      3  C   UNL     1       1.861   9.293  17.656  0.00  0.00    +0.000 A 
ATOM      4  C   UNL     1       1.176   9.780  18.764  0.00  0.00    +0.000 A 
ATOM      5  C   UNL     1       1.214   9.070  19.967  0.00  0.00    +0.000 A 
ATOM      6  C   UNL     1       1.944   7.872  20.059  0.00  0.00    +0.000 A 
ENDROOT
BRANCH   5   7
ATOM      7  N   UNL     1       0.504   9.566  21.093  0.00  0.00    +0.000 N 
ATOM      8  N   UNL     1       0.356   8.834  22.229  0.00  0.00    +0.000 NA
ATOM      9  C   UNL     1      -0.407   9.630  22.974  0.00  0.00    +0.000 A 
ATOM     10  C   UNL     1      -0.715  10.821  22.284  0.00  0.00    +0.000 A 
ATOM     11  N   UNL     1      -0.084  10.790  21.098  0.00  0.00    +0.000 NA
BRANCH  10  12
ATOM     12  C   UNL     1      -1.580  11.932  22.680  0.00  0.00    +0.000 A 
ATOM     13  C   UNL     1      -1.364  13.220  22.167  0.00  0.00    +0.000 A 
ATOM     14  C   UNL     1      -2.221  14.275  22.486  0.00  0.00    +0.000 A 
ATOM     15  C   UNL     1      -3.310  14.055  23.326  0.00  0.00    +0.000 A 
ATOM     16  C   UNL     1      -3.528  12.783  23.848  0.00  0.00    +0.000 A 
ATOM     17 CL   UNL     1      -4.879  12.507  24.880  0.00  0.00    +0.000 Cl
ATOM     18  C   UNL     1      -2.673  11.726  23.536  0.00  0.00    +0.000 A 
ENDBRANCH  10  12
ENDBRANCH   5   7
BRANCH   1  20
ATOM     19  C   UNL     1       4.555   5.864  18.142  0.00  0.00    +0.000 C 
ATOM     20  C   UNL     1       3.308   5.980  19.031  0.00  0.00    +0.000 C 
BRANCH  20  21
ATOM     21  S   UNL     1       2.096   4.657  18.588  0.00  0.00    +0.000 S 
BRANCH  21  22
ATOM     22  C   UNL     1       2.039   3.682  20.009  0.00  0.00    +0.000 A 
ATOM     23  N   UNL     1       1.077   3.610  20.898  0.00  0.00    +0.000 NA
ATOM     24  N   UNL     1       1.505   2.771  21.908  0.00  0.00    +0.000 NA
ATOM     25  C   UNL     1       2.704   2.343  21.585  0.00  0.00    +0.000 A 
ATOM     26  N   UNL     1       3.068   2.867  20.382  0.00  0.00    +0.000 N 
ATOM     27  C   UNL     1       4.293   2.606  19.676  0.00  0.00    +0.000 C 
ENDBRANCH  21  22
ENDBRANCH  20  21
ENDBRANCH   1  20
TORSDOF 5
ENDMDL
MODEL 4
REMARK VINA RESULT:      -8.1      4.159     10.066
REMARK  Name = 
REMARK  7 active torsions:
REMARK  status: ('A' for Active; 'I' for Inactive)
REMARK    1  A    between atoms: C_1  and  C_2
REMARK    2  A    between atoms: C_2  and  S_3
REMARK    3  A    between atoms: C_2  and  C_10
REMARK    4  A    between atoms: S_3  and  C_4
REMARK    5  A    between atoms: N_8  and  C_9
REMARK    6  A    between atoms: C_14  and  N_15
REMARK    7  A    between atoms: C_18  and  C_19
REMARK                            x       y       z     vdW  Elec       q    Type
REMARK                         _______ _______ _______ _____ _____    ______ ____
ROOT
ATOM      1  C   UNL     1       2.345   7.573  19.205  0.00  0.00    +0.000 A 
ATOM      2  C   UNL     1       2.150   8.233  17.977  0.00  0.00    +0.000 A 
ATOM      3  C   UNL     1       1.356   9.380  17.881  0.00  0.00    +0.000 A 
ATOM      4  C   UNL     1       0.722   9.887  19.009  0.00  0.00    +0.000 A 
ATOM      5  C   UNL     1       0.907   9.264  20.246  0.00  0.00    +0.000 A 
ATOM      6  C   UNL     1       1.733   8.131  20.350  0.00  0.00    +0.000 A 
ENDROOT
BRANCH   5   7
ATOM      7  N   UNL     1       0.249   9.780  21.393  0.00  0.00    +0.000 N 
ATOM      8  N   UNL     1       0.078   9.037  22.519  0.00  0.00    +0.000 NA
ATOM      9  C   UNL     1      -0.622   9.863  23.293  0.00  0.00    +0.000 A 
ATOM     10  C   UNL     1      -0.871  11.083  22.629  0.00  0.00    +0.000 A 
ATOM     11  N   UNL     1      -0.264  11.036  21.431  0.00  0.00    +0.000 NA
BRANCH  10  12
ATOM     12  C   UNL     1      -1.661  12.235  23.062  0.00  0.00    +0.000 A 
ATOM     13  C   UNL     1      -1.082  13.513  23.119  0.00  0.00    +0.000 A 
ATOM     14  C   UNL     1      -1.842  14.632  23.467  0.00  0.00    +0.000 A 
ATOM     15  C   UNL     1      -3.194  14.487  23.764  0.00  0.00    +0.000 A 
ATOM     16  C   UNL     1      -3.776  13.223  23.719  0.00  0.00    +0.000 A 
ATOM     17 CL   UNL     1      -5.452  13.044  24.077  0.00  0.00    +0.000 Cl
ATOM     18  C   UNL     1      -3.022  12.101  23.376  0.00  0.00    +0.000 A 
ENDBRANCH  10  12
ENDBRANCH   5   7
BRANCH   1  20
ATOM     19  C   UNL     1       3.803   5.826  18.012  0.00  0.00    +0.000 C 
ATOM     20  C   UNL     1       3.159   6.279  19.331  0.00  0.00    +0.000 C 
BRANCH  20  21
ATOM     21  S   UNL     1       2.051   4.951  19.979  0.00  0.00    +0.000 S 
BRANCH  21  22
ATOM     22  C   UNL     1       2.310   3.649  18.880  0.00  0.00    +0.000 A 
ATOM     23  N   UNL     1       1.651   3.382  17.778  0.00  0.00    +0.000 NA
ATOM     24  N   UNL     1       2.146   2.194  17.274  0.00  0.00    +0.000 NA
ATOM     25  C   UNL     1       3.105   1.794  18.076  0.00  0.00    +0.000 A 
ATOM     26  N   UNL     1       3.264   2.695  19.085  0.00  0.00    +0.000 N 
ATOM     27  C   UNL     1       4.239   2.627  20.139  0.00  0.00    +0.000 C 
ENDBRANCH  21  22
ENDBRANCH  20  21
ENDBRANCH   1  20
TORSDOF 5
ENDMDL
MODEL 5
REMARK VINA RESULT:      -8.1      4.283      6.360
REMARK  Name = 
REMARK  7 active torsions:
REMARK  status: ('A' for Active; 'I' for Inactive)
REMARK    1  A    between atoms: C_1  and  C_2
REMARK    2  A    between atoms: C_2  and  S_3
REMARK    3  A    between atoms: C_2  and  C_10
REMARK    4  A    between atoms: S_3  and  C_4
REMARK    5  A    between atoms: N_8  and  C_9
REMARK    6  A    between atoms: C_14  and  N_15
REMARK    7  A    between atoms: C_18  and  C_19
REMARK                            x       y       z     vdW  Elec       q    Type
REMARK                         _______ _______ _______ _____ _____    ______ ____
ROOT
ATOM      1  C   UNL     1       2.324   6.801  19.844  0.00  0.00    +0.000 A 
ATOM      2  C   UNL     1       1.648   5.740  20.474  0.00  0.00    +0.000 A 
ATOM      3  C   UNL     1       2.036   4.411  20.287  0.00  0.00    +0.000 A 
ATOM      4  C   UNL     1       3.103   4.106  19.449  0.00  0.00    +0.000 A 
ATOM      5  C   UNL     1       3.806   5.138  18.820  0.00  0.00    +0.000 A 
ATOM      6  C   UNL     1       3.437   6.477  19.036  0.00  0.00    +0.000 A 
ENDROOT
BRANCH   5   7
ATOM      7  N   UNL     1       4.888   4.821  17.958  0.00  0.00    +0.000 N 
ATOM      8  N   UNL     1       6.146   4.610  18.430  0.00  0.00    +0.000 NA
ATOM      9  C   UNL     1       6.833   4.413  17.307  0.00  0.00    +0.000 A 
ATOM     10  C   UNL     1       5.992   4.513  16.179  0.00  0.00    +0.000 A 
ATOM     11  N   UNL     1       4.738   4.725  16.612  0.00  0.00    +0.000 NA
BRANCH  10  12
ATOM     12  C   UNL     1       6.329   4.451  14.757  0.00  0.00    +0.000 A 
ATOM     13  C   UNL     1       7.425   5.169  14.253  0.00  0.00    +0.000 A 
ATOM     14  C   UNL     1       7.796   5.067  12.910  0.00  0.00    +0.000 A 
ATOM     15  C   UNL     1       7.074   4.243  12.051  0.00  0.00    +0.000 A 
ATOM     16  C   UNL     1       5.979   3.533  12.538  0.00  0.00    +0.000 A 
ATOM     17 CL   UNL     1       5.090   2.507  11.479  0.00  0.00    +0.000 Cl
ATOM     18  C   UNL     1       5.601   3.634  13.877  0.00  0.00    +0.000 A 
ENDBRANCH  10  12
ENDBRANCH   5   7
BRANCH   1  20
ATOM     19  C   UNL     1       0.660   8.456  20.889  0.00  0.00    +0.000 C 
ATOM     20  C   UNL     1       1.885   8.264  19.982  0.00  0.00    +0.000 C 
BRANCH  20  21
ATOM     21  S   UNL     1       1.527   8.929  18.296  0.00  0.00    +0.000 S 
BRANCH  21  22
ATOM     22  C   UNL     1       0.888  10.497  18.616  0.00  0.00    +0.000 A 
ATOM     23  N   UNL     1       1.517  11.538  19.108  0.00  0.00    +0.000 NA
ATOM     24  N   UNL     1       0.587  12.545  19.276  0.00  0.00    +0.000 NA
ATOM     25  C   UNL     1      -0.570  12.089  18.858  0.00  0.00    +0.000 A 
ATOM     26  N   UNL     1      -0.422  10.813  18.405  0.00  0.00    +0.000 N 
ATOM     27  C   UNL     1      -1.452   9.989  17.834  0.00  0.00    +0.000 C 
ENDBRANCH  21  22
ENDBRANCH  20  21
ENDBRANCH   1  20
TORSDOF 5
ENDMDL
MODEL 6
REMARK VINA RESULT:      -8.0      5.431     10.132
REMARK  Name = 
REMARK  7 active torsions:
REMARK  status: ('A' for Active; 'I' for Inactive)
REMARK    1  A    between atoms: C_1  and  C_2
REMARK    2  A    between atoms: C_2  and  S_3
REMARK    3  A    between atoms: C_2  and  C_10
REMARK    4  A    between atoms: S_3  and  C_4
REMARK    5  A    between atoms: N_8  and  C_9
REMARK    6  A    between atoms: C_14  and  N_15
REMARK    7  A    between atoms: C_18  and  C_19
REMARK                            x       y       z     vdW  Elec       q    Type
REMARK                         _______ _______ _______ _____ _____    ______ ____
ROOT
ATOM      1  C   UNL     1       4.252   4.911  16.815  0.00  0.00    +0.000 A 
ATOM      2  C   UNL     1       3.595   3.695  17.077  0.00  0.00    +0.000 A 
ATOM      3  C   UNL     1       2.491   3.628  17.931  0.00  0.00    +0.000 A 
ATOM      4  C   UNL     1       2.024   4.777  18.560  0.00  0.00    +0.000 A 
ATOM      5  C   UNL     1       2.644   6.003  18.309  0.00  0.00    +0.000 A 
ATOM      6  C   UNL     1       3.734   6.076  17.423  0.00  0.00    +0.000 A 
ENDROOT
BRANCH   5   7
ATOM      7  N   UNL     1       2.170   7.172  18.962  0.00  0.00    +0.000 N 
ATOM      8  N   UNL     1       2.167   7.286  20.317  0.00  0.00    +0.000 NA
ATOM      9  C   UNL     1       1.597   8.477  20.492  0.00  0.00    +0.000 A 
ATOM     10  C   UNL     1       1.260   9.060  19.253  0.00  0.00    +0.000 A 
ATOM     11  N   UNL     1       1.678   8.236  18.278  0.00  0.00    +0.000 NA
BRANCH  10  12
ATOM     12  C   UNL     1       0.552  10.309  18.972  0.00  0.00    +0.000 A 
ATOM     13  C   UNL     1       1.152  11.545  19.257  0.00  0.00    +0.000 A 
ATOM     14  C   UNL     1       0.514  12.746  18.934  0.00  0.00    +0.000 A 
ATOM     15  C   UNL     1      -0.735  12.724  18.320  0.00  0.00    +0.000 A 
ATOM     16  C   UNL     1      -1.343  11.503  18.042  0.00  0.00    +0.000 A 
ATOM     17 CL   UNL     1      -2.885  11.475  17.275  0.00  0.00    +0.000 Cl
ATOM     18  C   UNL     1      -0.714  10.301  18.366  0.00  0.00    +0.000 A 
ENDBRANCH  10  12
ENDBRANCH   5   7
BRANCH   1  20
ATOM     19  C   UNL     1       5.498   4.023  14.751  0.00  0.00    +0.000 C 
ATOM     20  C   UNL     1       5.502   5.006  15.931  0.00  0.00    +0.000 C 
BRANCH  20  21
ATOM     21  S   UNL     1       6.989   4.713  16.988  0.00  0.00    +0.000 S 
BRANCH  21  22
ATOM     22  C   UNL     1       7.454   6.302  17.466  0.00  0.00    +0.000 A 
ATOM     23  N   UNL     1       7.437   7.398  16.745  0.00  0.00    +0.000 NA
ATOM     24  N   UNL     1       7.982   8.409  17.512  0.00  0.00    +0.000 NA
ATOM     25  C   UNL     1       8.288   7.898  18.682  0.00  0.00    +0.000 A 
ATOM     26  N   UNL     1       7.944   6.581  18.709  0.00  0.00    +0.000 N 
ATOM     27  C   UNL     1       8.087   5.688  19.827  0.00  0.00    +0.000 C 
ENDBRANCH  21  22
ENDBRANCH  20  21
ENDBRANCH   1  20
TORSDOF 5
ENDMDL
MODEL 7
REMARK VINA RESULT:      -8.0      4.264     10.154
REMARK  Name = 
REMARK  7 active torsions:
REMARK  status: ('A' for Active; 'I' for Inactive)
REMARK    1  A    between atoms: C_1  and  C_2
REMARK    2  A    between atoms: C_2  and  S_3
REMARK    3  A    between atoms: C_2  and  C_10
REMARK    4  A    between atoms: S_3  and  C_4
REMARK    5  A    between atoms: N_8  and  C_9
REMARK    6  A    between atoms: C_14  and  N_15
REMARK    7  A    between atoms: C_18  and  C_19
REMARK                            x       y       z     vdW  Elec       q    Type
REMARK                         _______ _______ _______ _____ _____    ______ ____
ROOT
ATOM      1  C   UNL     1       2.317   7.609  19.147  0.00  0.00    +0.000 A 
ATOM      2  C   UNL     1       2.124   8.288  17.930  0.00  0.00    +0.000 A 
ATOM      3  C   UNL     1       1.341   9.443  17.852  0.00  0.00    +0.000 A 
ATOM      4  C   UNL     1       0.714   9.940  18.989  0.00  0.00    +0.000 A 
ATOM      5  C   UNL     1       0.898   9.298  20.217  0.00  0.00    +0.000 A 
ATOM      6  C   UNL     1       1.714   8.157  20.302  0.00  0.00    +0.000 A 
ENDROOT
BRANCH   5   7
ATOM      7  N   UNL     1       0.247   9.804  21.373  0.00  0.00    +0.000 N 
ATOM      8  N   UNL     1       0.073   9.046  22.489  0.00  0.00    +0.000 NA
ATOM      9  C   UNL     1      -0.617   9.868  23.276  0.00  0.00    +0.000 A 
ATOM     10  C   UNL     1      -0.856  11.100  22.631  0.00  0.00    +0.000 A 
ATOM     11  N   UNL     1      -0.253  11.064  21.431  0.00  0.00    +0.000 NA
BRANCH  10  12
ATOM     12  C   UNL     1      -1.633  12.254  23.082  0.00  0.00    +0.000 A 
ATOM     13  C   UNL     1      -2.996  12.116  23.389  0.00  0.00    +0.000 A 
ATOM     14  C   UNL     1      -3.735  13.194  23.883  0.00  0.00    +0.000 A 
ATOM     15  C   UNL     1      -3.118  14.427  24.076  0.00  0.00    +0.000 A 
ATOM     16  C   UNL     1      -1.769  14.577  23.766  0.00  0.00    +0.000 A 
ATOM     17 CL   UNL     1      -1.002  16.099  24.012  0.00  0.00    +0.000 Cl
ATOM     18  C   UNL     1      -1.027  13.505  23.269  0.00  0.00    +0.000 A 
ENDBRANCH  10  12
ENDBRANCH   5   7
BRANCH   1  20
ATOM     19  C   UNL     1       3.726   5.847  17.919  0.00  0.00    +0.000 C 
ATOM     20  C   UNL     1       3.121   6.307  19.253  0.00  0.00    +0.000 C 
BRANCH  20  21
ATOM     21  S   UNL     1       2.015   4.991  19.929  0.00  0.00    +0.000 S 
BRANCH  21  22
ATOM     22  C   UNL     1       2.291   3.660  18.869  0.00  0.00    +0.000 A 
ATOM     23  N   UNL     1       1.599   3.318  17.808  0.00  0.00    +0.000 NA
ATOM     24  N   UNL     1       2.130   2.137  17.327  0.00  0.00    +0.000 NA
ATOM     25  C   UNL     1       3.142   1.815  18.099  0.00  0.00    +0.000 A 
ATOM     26  N   UNL     1       3.299   2.762  19.065  0.00  0.00    +0.000 N 
ATOM     27  C   UNL     1       4.321   2.783  20.076  0.00  0.00    +0.000 C 
ENDBRANCH  21  22
ENDBRANCH  20  21
ENDBRANCH   1  20
TORSDOF 5
ENDMDL
MODEL 8
REMARK VINA RESULT:      -8.0      4.269     10.088
REMARK  Name = 
REMARK  7 active torsions:
REMARK  status: ('A' for Active; 'I' for Inactive)
REMARK    1  A    between atoms: C_1  and  C_2
REMARK    2  A    between atoms: C_2  and  S_3
REMARK    3  A    between atoms: C_2  and  C_10
REMARK    4  A    between atoms: S_3  and  C_4
REMARK    5  A    between atoms: N_8  and  C_9
REMARK    6  A    between atoms: C_14  and  N_15
REMARK    7  A    between atoms: C_18  and  C_19
REMARK                            x       y       z     vdW  Elec       q    Type
REMARK                         _______ _______ _______ _____ _____    ______ ____
ROOT
ATOM      1  C   UNL     1       2.328   7.593  19.039  0.00  0.00    +0.000 A 
ATOM      2  C   UNL     1       2.130   8.294  17.835  0.00  0.00    +0.000 A 
ATOM      3  C   UNL     1       1.347   9.450  17.781  0.00  0.00    +0.000 A 
ATOM      4  C   UNL     1       0.726   9.928  18.930  0.00  0.00    +0.000 A 
ATOM      5  C   UNL     1       0.915   9.264  20.145  0.00  0.00    +0.000 A 
ATOM      6  C   UNL     1       1.731   8.120  20.206  0.00  0.00    +0.000 A 
ENDROOT
BRANCH   5   7
ATOM      7  N   UNL     1       0.270   9.749  21.313  0.00  0.00    +0.000 N 
ATOM      8  N   UNL     1       0.113   8.977  22.421  0.00  0.00    +0.000 NA
ATOM      9  C   UNL     1      -0.578   9.782  23.224  0.00  0.00    +0.000 A 
ATOM     10  C   UNL     1      -0.834  11.019  22.596  0.00  0.00    +0.000 A 
ATOM     11  N   UNL     1      -0.242  11.004  21.390  0.00  0.00    +0.000 NA
BRANCH  10  12
ATOM     12  C   UNL     1      -1.619  12.159  23.068  0.00  0.00    +0.000 A 
ATOM     13  C   UNL     1      -2.944  11.981  23.498  0.00  0.00    +0.000 A 
ATOM     14  C   UNL     1      -3.683  13.050  24.011  0.00  0.00    +0.000 A 
ATOM     15  C   UNL     1      -3.106  14.313  24.102  0.00  0.00    +0.000 A 
ATOM     16  C   UNL     1      -1.795  14.502  23.670  0.00  0.00    +0.000 A 
ATOM     17 CL   UNL     1      -1.076  16.063  23.790  0.00  0.00    +0.000 Cl
ATOM     18  C   UNL     1      -1.053  13.441  23.153  0.00  0.00    +0.000 A 
ENDBRANCH  10  12
ENDBRANCH   5   7
BRANCH   1  20
ATOM     19  C   UNL     1       3.422   5.661  17.747  0.00  0.00    +0.000 C 
ATOM     20  C   UNL     1       3.131   6.289  19.118  0.00  0.00    +0.000 C 
BRANCH  20  21
ATOM     21  S   UNL     1       2.200   5.092  20.172  0.00  0.00    +0.000 S 
BRANCH  21  22
ATOM     22  C   UNL     1       2.894   3.571  19.751  0.00  0.00    +0.000 A 
ATOM     23  N   UNL     1       4.124   3.163  19.953  0.00  0.00    +0.000 NA
ATOM     24  N   UNL     1       4.251   1.918  19.370  0.00  0.00    +0.000 NA
ATOM     25  C   UNL     1       3.086   1.601  18.855  0.00  0.00    +0.000 A 
ATOM     26  N   UNL     1       2.192   2.600  19.097  0.00  0.00    +0.000 N 
ATOM     27  C   UNL     1       0.804   2.607  18.724  0.00  0.00    +0.000 C 
ENDBRANCH  21  22
ENDBRANCH  20  21
ENDBRANCH   1  20
TORSDOF 5
ENDMDL
MODEL 9
REMARK VINA RESULT:      -7.9      3.502      4.380
REMARK  Name = 
REMARK  7 active torsions:
REMARK  status: ('A' for Active; 'I' for Inactive)
REMARK    1  A    between atoms: C_1  and  C_2
REMARK    2  A    between atoms: C_2  and  S_3
REMARK    3  A    between atoms: C_2  and  C_10
REMARK    4  A    between atoms: S_3  and  C_4
REMARK    5  A    between atoms: N_8  and  C_9
REMARK    6  A    between atoms: C_14  and  N_15
REMARK    7  A    between atoms: C_18  and  C_19
REMARK                            x       y       z     vdW  Elec       q    Type
REMARK                         _______ _______ _______ _____ _____    ______ ____
ROOT
ATOM      1  C   UNL     1       0.561  10.201  19.797  0.00  0.00    +0.000 A 
ATOM      2  C   UNL     1       0.327  10.296  21.181  0.00  0.00    +0.000 A 
ATOM      3  C   UNL     1       0.755   9.304  22.067  0.00  0.00    +0.000 A 
ATOM      4  C   UNL     1       1.417   8.179  21.588  0.00  0.00    +0.000 A 
ATOM      5  C   UNL     1       1.679   8.061  20.220  0.00  0.00    +0.000 A 
ATOM      6  C   UNL     1       1.279   9.076  19.333  0.00  0.00    +0.000 A 
ENDROOT
BRANCH   5   7
ATOM      7  N   UNL     1       2.346   6.905  19.734  0.00  0.00    +0.000 N 
ATOM      8  N   UNL     1       2.027   5.656  20.167  0.00  0.00    +0.000 NA
ATOM      9  C   UNL     1       2.915   4.904  19.521  0.00  0.00    +0.000 A 
ATOM     10  C   UNL     1       3.757   5.700  18.717  0.00  0.00    +0.000 A 
ATOM     11  N   UNL     1       3.350   6.976  18.823  0.00  0.00    +0.000 NA
BRANCH  10  12
ATOM     12  C   UNL     1       4.912   5.313  17.907  0.00  0.00    +0.000 A 
ATOM     13  C   UNL     1       6.182   5.189  18.493  0.00  0.00    +0.000 A 
ATOM     14  C   UNL     1       7.280   4.758  17.745  0.00  0.00    +0.000 A 
ATOM     15  C   UNL     1       7.122   4.443  16.398  0.00  0.00    +0.000 A 
ATOM     16  C   UNL     1       5.869   4.571  15.805  0.00  0.00    +0.000 A 
ATOM     17 CL   UNL     1       5.669   4.173  14.141  0.00  0.00    +0.000 Cl
ATOM     18  C   UNL     1       4.769   5.005  16.545  0.00  0.00    +0.000 A 
ENDBRANCH  10  12
ENDBRANCH   5   7
BRANCH   1  20
ATOM     19  C   UNL     1       0.903  12.520  18.746  0.00  0.00    +0.000 C 
ATOM     20  C   UNL     1       0.050  11.244  18.795  0.00  0.00    +0.000 C 
BRANCH  20  21
ATOM     21  S   UNL     1      -1.693  11.669  19.232  0.00  0.00    +0.000 S 
BRANCH  21  22
ATOM     22  C   UNL     1      -2.562  11.310  17.787  0.00  0.00    +0.000 A 
ATOM     23  N   UNL     1      -2.087  10.850  16.654  0.00  0.00    +0.000 NA
ATOM     24  N   UNL     1      -3.132  10.803  15.753  0.00  0.00    +0.000 NA
ATOM     25  C   UNL     1      -4.212  11.212  16.377  0.00  0.00    +0.000 A 
ATOM     26  N   UNL     1      -3.907  11.513  17.669  0.00  0.00    +0.000 N 
ATOM     27  C   UNL     1      -4.828  11.958  18.679  0.00  0.00    +0.000 C 
ENDBRANCH  21  22
ENDBRANCH  20  21
ENDBRANCH   1  20
TORSDOF 5
ENDMDL
