MODEL 1
REMARK VINA RESULT:      -9.9      0.000      0.000
REMARK  Name = 
REMARK  9 active torsions:
REMARK  status: ('A' for Active; 'I' for Inactive)
REMARK    1  A    between atoms: C_1  and  N_2
REMARK    2  A    between atoms: C_7  and  C_8
REMARK    3  A    between atoms: C_8  and  C_9
REMARK    4  A    between atoms: C_13  and  C_14
REMARK    5  A    between atoms: N_20  and  C_21
REMARK    6  A    between atoms: C_25  and  C_26
REMARK    7  A    between atoms: C_26  and  C_27
REMARK    8  A    between atoms: C_27  and  C_28
REMARK    9  A    between atoms: N_32  and  C_33
REMARK                            x       y       z     vdW  Elec       q    Type
REMARK                         _______ _______ _______ _____ _____    ______ ____
ROOT
ATOM      1  C   UNL     1      -0.657  11.103  19.274  0.00  0.00    +0.000 A 
ATOM      2  C   UNL     1       0.303  10.394  18.548  0.00  0.00    +0.000 A 
ATOM      3  C   UNL     1       0.969   9.376  19.192  0.00  0.00    +0.000 A 
ATOM      4  C   UNL     1       0.770   9.058  20.531  0.00  0.00    +0.000 A 
ATOM      5  C   UNL     1      -0.095   9.817  21.311  0.00  0.00    +0.000 A 
ATOM      6  C   UNL     1      -0.813  10.842  20.660  0.00  0.00    +0.000 A 
ATOM      7  C   UNL     1       1.544   7.821  20.859  0.00  0.00    +0.000 C 
ATOM      8  N   UNL     1       2.209   7.495  19.602  0.00  0.00    +0.000 N 
ATOM      9  C   UNL     1       1.887   8.406  18.598  0.00  0.00    +0.000 C 
ATOM     10  O   UNL     1       2.207   8.460  17.424  0.00  0.00    +0.000 OA
ENDROOT
BRANCH   8  11
ATOM     11  C   UNL     1       3.044   6.361  19.454  0.00  0.00    +0.000 A 
ATOM     12  C   UNL     1       2.624   5.089  19.848  0.00  0.00    +0.000 A 
ATOM     13  C   UNL     1       3.452   3.981  19.681  0.00  0.00    +0.000 A 
ATOM     14  C   UNL     1       4.732   4.142  19.157  0.00  0.00    +0.000 A 
ATOM     15  C   UNL     1       5.226   5.408  18.793  0.00  0.00    +0.000 A 
ATOM     16  C   UNL     1       4.331   6.493  18.915  0.00  0.00    +0.000 A 
BRANCH  15  17
ATOM     17  C   UNL     1       6.736   5.624  18.311  0.00  0.00    +0.000 C 
ATOM     18  C   UNL     1       7.160   7.019  17.765  0.00  0.00    +0.000 C 
ATOM     19  O   UNL     1       8.357   7.002  18.592  0.00  0.00    +0.000 OA
ATOM     20  C   UNL     1       7.741   6.002  19.438  0.00  0.00    +0.000 C 
BRANCH  17  21
ATOM     21  C   UNL     1       7.231   4.451  17.446  0.00  0.00    +0.000 C 
BRANCH  21  22
ATOM     22  C   UNL     1       6.915   4.620  15.997  0.00  0.00    +0.000 A 
ATOM     23  N   UNL     1       7.686   5.204  15.099  0.00  0.00    +0.000 NA
ATOM     24  N   UNL     1       7.052   5.149  13.881  0.00  0.00    +0.000 NA
ATOM     25  C   UNL     1       5.910   4.529  14.056  0.00  0.00    +0.000 A 
ATOM     26  N   UNL     1       5.773   4.193  15.368  0.00  0.00    +0.000 N 
ATOM     27  C   UNL     1       4.639   3.519  15.941  0.00  0.00    +0.000 C 
ENDBRANCH  21  22
ENDBRANCH  17  21
ENDBRANCH  15  17
ENDBRANCH   8  11
BRANCH   5  28
ATOM     28  C   UNL     1      -0.308   9.556  22.780  0.00  0.00    +0.000 C 
ATOM     29  F   UNL     1      -1.078  10.497  23.392  0.00  0.00    +0.000 F 
ATOM     30  F   UNL     1      -0.935   8.367  23.003  0.00  0.00    +0.000 F 
ATOM     31  F   UNL     1       0.854   9.508  23.486  0.00  0.00    +0.000 F 
ENDBRANCH   5  28
BRANCH   1  32
ATOM     32  C   UNL     1      -1.600  12.042  18.554  0.00  0.00    +0.000 C 
BRANCH  32  39
ATOM     33  C   UNL     1      -5.836  10.425  18.511  0.00  0.00    +0.000 C 
ATOM     34  N   UNL     1      -5.436  11.767  18.090  0.00  0.00    +0.000 NA
ATOM     35  C   UNL     1      -5.839  12.800  19.055  0.00  0.00    +0.000 C 
ATOM     36  C   UNL     1      -5.020  12.804  20.335  0.00  0.00    +0.000 C 
ATOM     37  C   UNL     1      -3.564  12.897  19.957  0.00  0.00    +0.000 C 
ATOM     38  O   UNL     1      -2.835  13.740  20.478  0.00  0.00    +0.000 OA
ATOM     39  C   UNL     1      -3.070  11.838  18.978  0.00  0.00    +0.000 C 
ATOM     40  C   UNL     1      -4.005  11.865  17.761  0.00  0.00    +0.000 C 
ENDBRANCH  32  39
ENDBRANCH   1  32
TORSDOF 7
ENDMDL
MODEL 2
REMARK VINA RESULT:      -9.4      3.556     10.409
REMARK  Name = 
REMARK  9 active torsions:
REMARK  status: ('A' for Active; 'I' for Inactive)
REMARK    1  A    between atoms: C_1  and  N_2
REMARK    2  A    between atoms: C_7  and  C_8
REMARK    3  A    between atoms: C_8  and  C_9
REMARK    4  A    between atoms: C_13  and  C_14
REMARK    5  A    between atoms: N_20  and  C_21
REMARK    6  A    between atoms: C_25  and  C_26
REMARK    7  A    between atoms: C_26  and  C_27
REMARK    8  A    between atoms: C_27  and  C_28
REMARK    9  A    between atoms: N_32  and  C_33
REMARK                            x       y       z     vdW  Elec       q    Type
REMARK                         _______ _______ _______ _____ _____    ______ ____
ROOT
ATOM      1  C   UNL     1       5.327   5.111  16.403  0.00  0.00    +0.000 A 
ATOM      2  C   UNL     1       4.781   6.372  16.655  0.00  0.00    +0.000 A 
ATOM      3  C   UNL     1       3.749   6.453  17.563  0.00  0.00    +0.000 A 
ATOM      4  C   UNL     1       3.197   5.344  18.194  0.00  0.00    +0.000 A 
ATOM      5  C   UNL     1       3.641   4.064  17.879  0.00  0.00    +0.000 A 
ATOM      6  C   UNL     1       4.722   3.965  16.978  0.00  0.00    +0.000 A 
ATOM      7  C   UNL     1       2.204   5.805  19.212  0.00  0.00    +0.000 C 
ATOM      8  N   UNL     1       2.231   7.257  19.076  0.00  0.00    +0.000 N 
ATOM      9  C   UNL     1       3.137   7.667  18.101  0.00  0.00    +0.000 C 
ATOM     10  O   UNL     1       3.467   8.775  17.719  0.00  0.00    +0.000 OA
ENDROOT
BRANCH   8  11
ATOM     11  C   UNL     1       1.441   8.112  19.883  0.00  0.00    +0.000 A 
ATOM     12  C   UNL     1       1.036   7.738  21.166  0.00  0.00    +0.000 A 
ATOM     13  C   UNL     1       0.273   8.598  21.952  0.00  0.00    +0.000 A 
ATOM     14  C   UNL     1      -0.133   9.829  21.444  0.00  0.00    +0.000 A 
ATOM     15  C   UNL     1       0.202  10.235  20.139  0.00  0.00    +0.000 A 
ATOM     16  C   UNL     1       1.032   9.364  19.401  0.00  0.00    +0.000 A 
BRANCH  15  17
ATOM     17  C   UNL     1      -0.365  11.587  19.499  0.00  0.00    +0.000 C 
ATOM     18  C   UNL     1      -1.545  11.504  18.486  0.00  0.00    +0.000 C 
ATOM     19  O   UNL     1      -2.241  12.578  19.178  0.00  0.00    +0.000 OA
ATOM     20  C   UNL     1      -1.437  12.324  20.354  0.00  0.00    +0.000 C 
BRANCH  17  21
ATOM     21  C   UNL     1       0.770  12.520  19.041  0.00  0.00    +0.000 C 
BRANCH  21  22
ATOM     22  C   UNL     1       1.264  13.416  20.129  0.00  0.00    +0.000 A 
ATOM     23  N   UNL     1       1.935  13.035  21.200  0.00  0.00    +0.000 NA
ATOM     24  N   UNL     1       2.219  14.149  21.952  0.00  0.00    +0.000 NA
ATOM     25  C   UNL     1       1.723  15.189  21.324  0.00  0.00    +0.000 A 
ATOM     26  N   UNL     1       1.102  14.777  20.185  0.00  0.00    +0.000 N 
ATOM     27  C   UNL     1       0.424  15.632  19.250  0.00  0.00    +0.000 C 
ENDBRANCH  21  22
ENDBRANCH  17  21
ENDBRANCH  15  17
ENDBRANCH   8  11
BRANCH   5  28
ATOM     28  C   UNL     1       3.043   2.822  18.487  0.00  0.00    +0.000 C 
ATOM     29  F   UNL     1       3.189   2.754  19.838  0.00  0.00    +0.000 F 
ATOM     30  F   UNL     1       1.702   2.735  18.258  0.00  0.00    +0.000 F 
ATOM     31  F   UNL     1       3.584   1.675  17.996  0.00  0.00    +0.000 F 
ENDBRANCH   5  28
BRANCH   1  32
ATOM     32  C   UNL     1       6.622   4.996  15.628  0.00  0.00    +0.000 C 
BRANCH  32  39
ATOM     33  C   UNL     1       4.665   3.487  11.825  0.00  0.00    +0.000 C 
ATOM     34  N   UNL     1       5.915   2.984  12.393  0.00  0.00    +0.000 NA
ATOM     35  C   UNL     1       7.092   3.409  11.621  0.00  0.00    +0.000 C 
ATOM     36  C   UNL     1       7.444   4.878  11.786  0.00  0.00    +0.000 C 
ATOM     37  C   UNL     1       7.581   5.162  13.259  0.00  0.00    +0.000 C 
ATOM     38  O   UNL     1       8.577   5.738  13.695  0.00  0.00    +0.000 OA
ATOM     39  C   UNL     1       6.384   4.772  14.119  0.00  0.00    +0.000 C 
ATOM     40  C   UNL     1       6.067   3.300  13.823  0.00  0.00    +0.000 C 
ENDBRANCH  32  39
ENDBRANCH   1  32
TORSDOF 7
ENDMDL
MODEL 3
REMARK VINA RESULT:      -9.4      2.838      3.959
REMARK  Name = 
REMARK  9 active torsions:
REMARK  status: ('A' for Active; 'I' for Inactive)
REMARK    1  A    between atoms: C_1  and  N_2
REMARK    2  A    between atoms: C_7  and  C_8
REMARK    3  A    between atoms: C_8  and  C_9
REMARK    4  A    between atoms: C_13  and  C_14
REMARK    5  A    between atoms: N_20  and  C_21
REMARK    6  A    between atoms: C_25  and  C_26
REMARK    7  A    between atoms: C_26  and  C_27
REMARK    8  A    between atoms: C_27  and  C_28
REMARK    9  A    between atoms: N_32  and  C_33
REMARK                            x       y       z     vdW  Elec       q    Type
REMARK                         _______ _______ _______ _____ _____    ______ ____
ROOT
ATOM      1  C   UNL     1       0.411  11.727  19.384  0.00  0.00    +0.000 A 
ATOM      2  C   UNL     1       1.201  10.911  18.571  0.00  0.00    +0.000 A 
ATOM      3  C   UNL     1       1.498   9.647  19.030  0.00  0.00    +0.000 A 
ATOM      4  C   UNL     1       1.097   9.170  20.272  0.00  0.00    +0.000 A 
ATOM      5  C   UNL     1       0.406   9.997  21.152  0.00  0.00    +0.000 A 
ATOM      6  C   UNL     1       0.062  11.283  20.685  0.00  0.00    +0.000 A 
ATOM      7  C   UNL     1       1.465   7.726  20.383  0.00  0.00    +0.000 C 
ATOM      8  N   UNL     1       2.127   7.448  19.114  0.00  0.00    +0.000 N 
ATOM      9  C   UNL     1       2.164   8.573  18.294  0.00  0.00    +0.000 C 
ATOM     10  O   UNL     1       2.593   8.738  17.166  0.00  0.00    +0.000 OA
ENDROOT
BRANCH   8  11
ATOM     11  C   UNL     1       2.627   6.165  18.780  0.00  0.00    +0.000 A 
ATOM     12  C   UNL     1       2.161   5.012  19.414  0.00  0.00    +0.000 A 
ATOM     13  C   UNL     1       2.652   3.757  19.062  0.00  0.00    +0.000 A 
ATOM     14  C   UNL     1       3.651   3.645  18.100  0.00  0.00    +0.000 A 
ATOM     15  C   UNL     1       4.195   4.778  17.466  0.00  0.00    +0.000 A 
ATOM     16  C   UNL     1       3.622   6.024  17.802  0.00  0.00    +0.000 A 
BRANCH  15  17
ATOM     17  C   UNL     1       5.429   4.674  16.454  0.00  0.00    +0.000 C 
ATOM     18  C   UNL     1       5.355   3.656  15.278  0.00  0.00    +0.000 C 
ATOM     19  O   UNL     1       5.811   4.673  14.343  0.00  0.00    +0.000 OA
ATOM     20  C   UNL     1       5.410   5.698  15.282  0.00  0.00    +0.000 C 
BRANCH  17  21
ATOM     21  C   UNL     1       6.777   4.653  17.199  0.00  0.00    +0.000 C 
BRANCH  21  22
ATOM     22  C   UNL     1       7.303   6.019  17.493  0.00  0.00    +0.000 A 
ATOM     23  N   UNL     1       7.296   7.046  16.664  0.00  0.00    +0.000 NA
ATOM     24  N   UNL     1       7.853   8.125  17.307  0.00  0.00    +0.000 NA
ATOM     25  C   UNL     1       8.185   7.739  18.515  0.00  0.00    +0.000 A 
ATOM     26  N   UNL     1       7.874   6.423  18.673  0.00  0.00    +0.000 N 
ATOM     27  C   UNL     1       8.111   5.647  19.860  0.00  0.00    +0.000 C 
ENDBRANCH  21  22
ENDBRANCH  17  21
ENDBRANCH  15  17
ENDBRANCH   8  11
BRANCH   5  28
ATOM     28  C   UNL     1      -0.005   9.555  22.532  0.00  0.00    +0.000 C 
ATOM     29  F   UNL     1       1.044   9.210  23.327  0.00  0.00    +0.000 F 
ATOM     30  F   UNL     1      -0.670  10.535  23.206  0.00  0.00    +0.000 F 
ATOM     31  F   UNL     1      -0.835   8.477  22.521  0.00  0.00    +0.000 F 
ENDBRANCH   5  28
BRANCH   1  32
ATOM     32  C   UNL     1      -0.165  13.010  18.824  0.00  0.00    +0.000 C 
BRANCH  32  39
ATOM     33  C   UNL     1       0.232  16.774  21.323  0.00  0.00    +0.000 C 
ATOM     34  N   UNL     1       0.112  16.731  19.866  0.00  0.00    +0.000 NA
ATOM     35  C   UNL     1       1.379  17.045  19.190  0.00  0.00    +0.000 C 
ATOM     36  C   UNL     1       2.417  15.939  19.278  0.00  0.00    +0.000 C 
ATOM     37  C   UNL     1       1.788  14.667  18.773  0.00  0.00    +0.000 C 
ATOM     38  O   UNL     1       2.354  13.984  17.920  0.00  0.00    +0.000 OA
ATOM     39  C   UNL     1       0.482  14.265  19.449  0.00  0.00    +0.000 C 
ATOM     40  C   UNL     1      -0.465  15.471  19.372  0.00  0.00    +0.000 C 
ENDBRANCH  32  39
ENDBRANCH   1  32
TORSDOF 7
ENDMDL
MODEL 4
REMARK VINA RESULT:      -9.3      2.050      2.813
REMARK  Name = 
REMARK  9 active torsions:
REMARK  status: ('A' for Active; 'I' for Inactive)
REMARK    1  A    between atoms: C_1  and  N_2
REMARK    2  A    between atoms: C_7  and  C_8
REMARK    3  A    between atoms: C_8  and  C_9
REMARK    4  A    between atoms: C_13  and  C_14
REMARK    5  A    between atoms: N_20  and  C_21
REMARK    6  A    between atoms: C_25  and  C_26
REMARK    7  A    between atoms: C_26  and  C_27
REMARK    8  A    between atoms: C_27  and  C_28
REMARK    9  A    between atoms: N_32  and  C_33
REMARK                            x       y       z     vdW  Elec       q    Type
REMARK                         _______ _______ _______ _____ _____    ______ ____
ROOT
ATOM      1  C   UNL     1      -0.319  11.573  19.397  0.00  0.00    +0.000 A 
ATOM      2  C   UNL     1       0.594  10.867  18.610  0.00  0.00    +0.000 A 
ATOM      3  C   UNL     1       1.140   9.719  19.139  0.00  0.00    +0.000 A 
ATOM      4  C   UNL     1       0.868   9.264  20.424  0.00  0.00    +0.000 A 
ATOM      5  C   UNL     1       0.053  10.004  21.273  0.00  0.00    +0.000 A 
ATOM      6  C   UNL     1      -0.545  11.164  20.736  0.00  0.00    +0.000 A 
ATOM      7  C   UNL     1       1.511   7.927  20.614  0.00  0.00    +0.000 C 
ATOM      8  N   UNL     1       2.183   7.691  19.342  0.00  0.00    +0.000 N 
ATOM      9  C   UNL     1       1.982   8.742  18.450  0.00  0.00    +0.000 C 
ATOM     10  O   UNL     1       2.344   8.905  17.299  0.00  0.00    +0.000 OA
ENDROOT
BRANCH   8  11
ATOM     11  C   UNL     1       2.912   6.507  19.074  0.00  0.00    +0.000 A 
ATOM     12  C   UNL     1       2.318   5.247  19.165  0.00  0.00    +0.000 A 
ATOM     13  C   UNL     1       3.046   4.093  18.882  0.00  0.00    +0.000 A 
ATOM     14  C   UNL     1       4.394   4.186  18.548  0.00  0.00    +0.000 A 
ATOM     15  C   UNL     1       5.057   5.425  18.494  0.00  0.00    +0.000 A 
ATOM     16  C   UNL     1       4.268   6.573  18.720  0.00  0.00    +0.000 A 
BRANCH  15  17
ATOM     17  C   UNL     1       6.632   5.535  18.237  0.00  0.00    +0.000 C 
ATOM     18  C   UNL     1       7.236   6.914  17.837  0.00  0.00    +0.000 C 
ATOM     19  O   UNL     1       8.298   6.756  18.819  0.00  0.00    +0.000 OA
ATOM     20  C   UNL     1       7.494   5.772  19.512  0.00  0.00    +0.000 C 
BRANCH  17  21
ATOM     21  C   UNL     1       7.153   4.367  17.380  0.00  0.00    +0.000 C 
BRANCH  21  22
ATOM     22  C   UNL     1       7.068   4.635  15.914  0.00  0.00    +0.000 A 
ATOM     23  N   UNL     1       7.877   5.415  15.221  0.00  0.00    +0.000 NA
ATOM     24  N   UNL     1       7.480   5.392  13.906  0.00  0.00    +0.000 NA
ATOM     25  C   UNL     1       6.441   4.596  13.819  0.00  0.00    +0.000 A 
ATOM     26  N   UNL     1       6.136   4.111  15.054  0.00  0.00    +0.000 N 
ATOM     27  C   UNL     1       5.047   3.223  15.355  0.00  0.00    +0.000 C 
ENDBRANCH  21  22
ENDBRANCH  17  21
ENDBRANCH  15  17
ENDBRANCH   8  11
BRANCH   5  28
ATOM     28  C   UNL     1      -0.232   9.591  22.693  0.00  0.00    +0.000 C 
ATOM     29  F   UNL     1       0.889   9.428  23.447  0.00  0.00    +0.000 F 
ATOM     30  F   UNL     1      -0.987  10.514  23.353  0.00  0.00    +0.000 F 
ATOM     31  F   UNL     1      -0.913   8.417  22.780  0.00  0.00    +0.000 F 
ENDBRANCH   5  28
BRANCH   1  32
ATOM     32  C   UNL     1      -1.145  12.679  18.777  0.00  0.00    +0.000 C 
BRANCH  32  39
ATOM     33  C   UNL     1       1.702  16.204  18.581  0.00  0.00    +0.000 C 
ATOM     34  N   UNL     1       1.566  15.285  19.710  0.00  0.00    +0.000 NA
ATOM     35  C   UNL     1       0.880  15.902  20.855  0.00  0.00    +0.000 C 
ATOM     36  C   UNL     1      -0.614  16.094  20.650  0.00  0.00    +0.000 C 
ATOM     37  C   UNL     1      -1.207  14.764  20.263  0.00  0.00    +0.000 C 
ATOM     38  O   UNL     1      -2.193  14.324  20.852  0.00  0.00    +0.000 OA
ATOM     39  C   UNL     1      -0.561  14.079  19.065  0.00  0.00    +0.000 C 
ATOM     40  C   UNL     1       0.948  14.002  19.338  0.00  0.00    +0.000 C 
ENDBRANCH  32  39
ENDBRANCH   1  32
TORSDOF 7
ENDMDL
MODEL 5
REMARK VINA RESULT:      -9.1      3.445     10.403
REMARK  Name = 
REMARK  9 active torsions:
REMARK  status: ('A' for Active; 'I' for Inactive)
REMARK    1  A    between atoms: C_1  and  N_2
REMARK    2  A    between atoms: C_7  and  C_8
REMARK    3  A    between atoms: C_8  and  C_9
REMARK    4  A    between atoms: C_13  and  C_14
REMARK    5  A    between atoms: N_20  and  C_21
REMARK    6  A    between atoms: C_25  and  C_26
REMARK    7  A    between atoms: C_26  and  C_27
REMARK    8  A    between atoms: C_27  and  C_28
REMARK    9  A    between atoms: N_32  and  C_33
REMARK                            x       y       z     vdW  Elec       q    Type
REMARK                         _______ _______ _______ _____ _____    ______ ____
ROOT
ATOM      1  C   UNL     1       5.229   4.838  16.481  0.00  0.00    +0.000 A 
ATOM      2  C   UNL     1       4.769   6.140  16.687  0.00  0.00    +0.000 A 
ATOM      3  C   UNL     1       3.749   6.322  17.594  0.00  0.00    +0.000 A 
ATOM      4  C   UNL     1       3.129   5.275  18.267  0.00  0.00    +0.000 A 
ATOM      5  C   UNL     1       3.486   3.959  18.000  0.00  0.00    +0.000 A 
ATOM      6  C   UNL     1       4.554   3.755  17.099  0.00  0.00    +0.000 A 
ATOM      7  C   UNL     1       2.174   5.839  19.271  0.00  0.00    +0.000 C 
ATOM      8  N   UNL     1       2.295   7.280  19.080  0.00  0.00    +0.000 N 
ATOM      9  C   UNL     1       3.221   7.593  18.088  0.00  0.00    +0.000 C 
ATOM     10  O   UNL     1       3.620   8.662  17.664  0.00  0.00    +0.000 OA
ENDROOT
BRANCH   8  11
ATOM     11  C   UNL     1       1.567   8.214  19.857  0.00  0.00    +0.000 A 
ATOM     12  C   UNL     1       1.440   8.073  21.240  0.00  0.00    +0.000 A 
ATOM     13  C   UNL     1       0.734   9.010  21.991  0.00  0.00    +0.000 A 
ATOM     14  C   UNL     1       0.106  10.078  21.357  0.00  0.00    +0.000 A 
ATOM     15  C   UNL     1       0.157  10.241  19.960  0.00  0.00    +0.000 A 
ATOM     16  C   UNL     1       0.939   9.308  19.245  0.00  0.00    +0.000 A 
BRANCH  15  17
ATOM     17  C   UNL     1      -0.665  11.389  19.209  0.00  0.00    +0.000 C 
ATOM     18  C   UNL     1      -1.951  11.002  18.421  0.00  0.00    +0.000 C 
ATOM     19  O   UNL     1      -2.681  12.103  19.032  0.00  0.00    +0.000 OA
ATOM     20  C   UNL     1      -1.697  12.149  20.093  0.00  0.00    +0.000 C 
BRANCH  17  21
ATOM     21  C   UNL     1       0.265  12.341  18.434  0.00  0.00    +0.000 C 
BRANCH  21  22
ATOM     22  C   UNL     1       0.359  13.696  19.052  0.00  0.00    +0.000 A 
ATOM     23  N   UNL     1      -0.374  14.746  18.733  0.00  0.00    +0.000 NA
ATOM     24  N   UNL     1       0.002  15.798  19.532  0.00  0.00    +0.000 NA
ATOM     25  C   UNL     1       0.953  15.371  20.328  0.00  0.00    +0.000 A 
ATOM     26  N   UNL     1       1.222  14.065  20.053  0.00  0.00    +0.000 N 
ATOM     27  C   UNL     1       2.219  13.263  20.709  0.00  0.00    +0.000 C 
ENDBRANCH  21  22
ENDBRANCH  17  21
ENDBRANCH  15  17
ENDBRANCH   8  11
BRANCH   5  28
ATOM     28  C   UNL     1       2.811   2.782  18.655  0.00  0.00    +0.000 C 
ATOM     29  F   UNL     1       1.470   2.733  18.433  0.00  0.00    +0.000 F 
ATOM     30  F   UNL     1       3.302   1.593  18.203  0.00  0.00    +0.000 F 
ATOM     31  F   UNL     1       2.966   2.764  20.006  0.00  0.00    +0.000 F 
ENDBRANCH   5  28
BRANCH   1  32
ATOM     32  C   UNL     1       6.510   4.609  15.707  0.00  0.00    +0.000 C 
BRANCH  32  39
ATOM     33  C   UNL     1       4.612   3.493  11.743  0.00  0.00    +0.000 C 
ATOM     34  N   UNL     1       5.891   2.991  12.242  0.00  0.00    +0.000 NA
ATOM     35  C   UNL     1       7.037   3.575  11.530  0.00  0.00    +0.000 C 
ATOM     36  C   UNL     1       7.310   5.028  11.882  0.00  0.00    +0.000 C 
ATOM     37  C   UNL     1       7.442   5.129  13.379  0.00  0.00    +0.000 C 
ATOM     38  O   UNL     1       8.408   5.698  13.885  0.00  0.00    +0.000 OA
ATOM     39  C   UNL     1       6.275   4.567  14.182  0.00  0.00    +0.000 C 
ATOM     40  C   UNL     1       6.035   3.129  13.700  0.00  0.00    +0.000 C 
ENDBRANCH  32  39
ENDBRANCH   1  32
TORSDOF 7
ENDMDL
MODEL 6
REMARK VINA RESULT:      -9.0      3.032     10.105
REMARK  Name = 
REMARK  9 active torsions:
REMARK  status: ('A' for Active; 'I' for Inactive)
REMARK    1  A    between atoms: C_1  and  N_2
REMARK    2  A    between atoms: C_7  and  C_8
REMARK    3  A    between atoms: C_8  and  C_9
REMARK    4  A    between atoms: C_13  and  C_14
REMARK    5  A    between atoms: N_20  and  C_21
REMARK    6  A    between atoms: C_25  and  C_26
REMARK    7  A    between atoms: C_26  and  C_27
REMARK    8  A    between atoms: C_27  and  C_28
REMARK    9  A    between atoms: N_32  and  C_33
REMARK                            x       y       z     vdW  Elec       q    Type
REMARK                         _______ _______ _______ _____ _____    ______ ____
ROOT
ATOM      1  C   UNL     1       5.459   5.282  16.513  0.00  0.00    +0.000 A 
ATOM      2  C   UNL     1       4.803   6.498  16.716  0.00  0.00    +0.000 A 
ATOM      3  C   UNL     1       3.813   6.539  17.673  0.00  0.00    +0.000 A 
ATOM      4  C   UNL     1       3.405   5.426  18.399  0.00  0.00    +0.000 A 
ATOM      5  C   UNL     1       3.959   4.177  18.139  0.00  0.00    +0.000 A 
ATOM      6  C   UNL     1       5.000   4.122  17.188  0.00  0.00    +0.000 A 
ATOM      7  C   UNL     1       2.422   5.856  19.440  0.00  0.00    +0.000 C 
ATOM      8  N   UNL     1       2.297   7.291  19.214  0.00  0.00    +0.000 N 
ATOM      9  C   UNL     1       3.110   7.721  18.167  0.00  0.00    +0.000 C 
ATOM     10  O   UNL     1       3.309   8.828  17.701  0.00  0.00    +0.000 OA
ENDROOT
BRANCH   8  11
ATOM     11  C   UNL     1       1.466   8.118  20.009  0.00  0.00    +0.000 A 
ATOM     12  C   UNL     1       0.945   7.676  21.226  0.00  0.00    +0.000 A 
ATOM     13  C   UNL     1       0.142   8.508  22.003  0.00  0.00    +0.000 A 
ATOM     14  C   UNL     1      -0.187   9.781  21.546  0.00  0.00    +0.000 A 
ATOM     15  C   UNL     1       0.266  10.258  20.302  0.00  0.00    +0.000 A 
ATOM     16  C   UNL     1       1.132   9.410  19.579  0.00  0.00    +0.000 A 
BRANCH  15  17
ATOM     17  C   UNL     1      -0.209  11.666  19.710  0.00  0.00    +0.000 C 
ATOM     18  C   UNL     1       0.398  12.974  20.298  0.00  0.00    +0.000 C 
ATOM     19  O   UNL     1       0.639  13.489  18.959  0.00  0.00    +0.000 OA
ATOM     20  C   UNL     1       0.557  12.140  18.440  0.00  0.00    +0.000 C 
BRANCH  17  21
ATOM     21  C   UNL     1      -1.737  11.725  19.535  0.00  0.00    +0.000 C 
BRANCH  21  22
ATOM     22  C   UNL     1      -2.210  11.036  18.298  0.00  0.00    +0.000 A 
ATOM     23  N   UNL     1      -1.485  10.251  17.524  0.00  0.00    +0.000 NA
ATOM     24  N   UNL     1      -2.279   9.801  16.497  0.00  0.00    +0.000 NA
ATOM     25  C   UNL     1      -3.475  10.314  16.665  0.00  0.00    +0.000 A 
ATOM     26  N   UNL     1      -3.475  11.107  17.772  0.00  0.00    +0.000 N 
ATOM     27  C   UNL     1      -4.603  11.853  18.261  0.00  0.00    +0.000 C 
ENDBRANCH  21  22
ENDBRANCH  17  21
ENDBRANCH  15  17
ENDBRANCH   8  11
BRANCH   5  28
ATOM     28  C   UNL     1       3.517   2.926  18.854  0.00  0.00    +0.000 C 
ATOM     29  F   UNL     1       2.169   2.842  19.018  0.00  0.00    +0.000 F 
ATOM     30  F   UNL     1       3.876   1.797  18.179  0.00  0.00    +0.000 F 
ATOM     31  F   UNL     1       4.052   2.806  20.099  0.00  0.00    +0.000 F 
ENDBRANCH   5  28
BRANCH   1  32
ATOM     32  C   UNL     1       6.720   5.241  15.678  0.00  0.00    +0.000 C 
BRANCH  32  39
ATOM     33  C   UNL     1       4.623   3.562  12.024  0.00  0.00    +0.000 C 
ATOM     34  N   UNL     1       5.887   3.076  12.574  0.00  0.00    +0.000 NA
ATOM     35  C   UNL     1       7.040   3.450  11.742  0.00  0.00    +0.000 C 
ATOM     36  C   UNL     1       7.409   4.921  11.821  0.00  0.00    +0.000 C 
ATOM     37  C   UNL     1       7.599   5.278  13.272  0.00  0.00    +0.000 C 
ATOM     38  O   UNL     1       8.615   5.865  13.644  0.00  0.00    +0.000 OA
ATOM     39  C   UNL     1       6.430   4.944  14.191  0.00  0.00    +0.000 C 
ATOM     40  C   UNL     1       6.090   3.462  13.980  0.00  0.00    +0.000 C 
ENDBRANCH  32  39
ENDBRANCH   1  32
TORSDOF 7
ENDMDL
MODEL 7
REMARK VINA RESULT:      -9.0      2.548      3.242
REMARK  Name = 
REMARK  9 active torsions:
REMARK  status: ('A' for Active; 'I' for Inactive)
REMARK    1  A    between atoms: C_1  and  N_2
REMARK    2  A    between atoms: C_7  and  C_8
REMARK    3  A    between atoms: C_8  and  C_9
REMARK    4  A    between atoms: C_13  and  C_14
REMARK    5  A    between atoms: N_20  and  C_21
REMARK    6  A    between atoms: C_25  and  C_26
REMARK    7  A    between atoms: C_26  and  C_27
REMARK    8  A    between atoms: C_27  and  C_28
REMARK    9  A    between atoms: N_32  and  C_33
REMARK                            x       y       z     vdW  Elec       q    Type
REMARK                         _______ _______ _______ _____ _____    ______ ____
ROOT
ATOM      1  C   UNL     1       0.148  11.924  19.619  0.00  0.00    +0.000 A 
ATOM      2  C   UNL     1       0.919  11.209  18.699  0.00  0.00    +0.000 A 
ATOM      3  C   UNL     1       1.288   9.925  19.034  0.00  0.00    +0.000 A 
ATOM      4  C   UNL     1       0.976   9.334  20.253  0.00  0.00    +0.000 A 
ATOM      5  C   UNL     1       0.309  10.058  21.235  0.00  0.00    +0.000 A 
ATOM      6  C   UNL     1      -0.108  11.363  20.896  0.00  0.00    +0.000 A 
ATOM      7  C   UNL     1       1.403   7.901  20.223  0.00  0.00    +0.000 C 
ATOM      8  N   UNL     1       2.000   7.754  18.900  0.00  0.00    +0.000 N 
ATOM      9  C   UNL     1       1.947   8.943  18.176  0.00  0.00    +0.000 C 
ATOM     10  O   UNL     1       2.304   9.215  17.044  0.00  0.00    +0.000 OA
ENDROOT
BRANCH   8  11
ATOM     11  C   UNL     1       2.524   6.524  18.434  0.00  0.00    +0.000 A 
ATOM     12  C   UNL     1       1.763   5.353  18.446  0.00  0.00    +0.000 A 
ATOM     13  C   UNL     1       2.290   4.155  17.969  0.00  0.00    +0.000 A 
ATOM     14  C   UNL     1       3.605   4.105  17.516  0.00  0.00    +0.000 A 
ATOM     15  C   UNL     1       4.435   5.242  17.531  0.00  0.00    +0.000 A 
ATOM     16  C   UNL     1       3.841   6.449  17.958  0.00  0.00    +0.000 A 
BRANCH  15  17
ATOM     17  C   UNL     1       5.982   5.169  17.134  0.00  0.00    +0.000 C 
ATOM     18  C   UNL     1       6.751   6.494  16.855  0.00  0.00    +0.000 C 
ATOM     19  O   UNL     1       7.854   6.055  17.697  0.00  0.00    +0.000 OA
ATOM     20  C   UNL     1       6.970   5.104  18.336  0.00  0.00    +0.000 C 
BRANCH  17  21
ATOM     21  C   UNL     1       6.252   4.072  16.087  0.00  0.00    +0.000 C 
BRANCH  21  22
ATOM     22  C   UNL     1       6.872   4.600  14.836  0.00  0.00    +0.000 A 
ATOM     23  N   UNL     1       7.897   5.429  14.770  0.00  0.00    +0.000 NA
ATOM     24  N   UNL     1       8.178   5.666  13.447  0.00  0.00    +0.000 NA
ATOM     25  C   UNL     1       7.324   4.976  12.729  0.00  0.00    +0.000 A 
ATOM     26  N   UNL     1       6.476   4.305  13.556  0.00  0.00    +0.000 N 
ATOM     27  C   UNL     1       5.394   3.459  13.132  0.00  0.00    +0.000 C 
ENDBRANCH  21  22
ENDBRANCH  17  21
ENDBRANCH  15  17
ENDBRANCH   8  11
BRANCH   5  28
ATOM     28  C   UNL     1      -0.005   9.490  22.594  0.00  0.00    +0.000 C 
ATOM     29  F   UNL     1      -0.795   8.383  22.551  0.00  0.00    +0.000 F 
ATOM     30  F   UNL     1       1.120   9.112  23.263  0.00  0.00    +0.000 F 
ATOM     31  F   UNL     1      -0.647  10.374  23.405  0.00  0.00    +0.000 F 
ENDBRANCH   5  28
BRANCH   1  32
ATOM     32  C   UNL     1      -0.505  13.223  19.200  0.00  0.00    +0.000 C 
BRANCH  32  39
ATOM     33  C   UNL     1      -0.533  16.473  22.363  0.00  0.00    +0.000 C 
ATOM     34  N   UNL     1      -0.717  16.684  20.927  0.00  0.00    +0.000 NA
ATOM     35  C   UNL     1       0.458  17.306  20.298  0.00  0.00    +0.000 C 
ATOM     36  C   UNL     1       1.647  16.371  20.152  0.00  0.00    +0.000 C 
ATOM     37  C   UNL     1       1.184  15.135  19.426  0.00  0.00    +0.000 C 
ATOM     38  O   UNL     1       1.800  14.717  18.447  0.00  0.00    +0.000 OA
ATOM     39  C   UNL     1      -0.016  14.423  20.039  0.00  0.00    +0.000 C 
ATOM     40  C   UNL     1      -1.129  15.465  20.214  0.00  0.00    +0.000 C 
ENDBRANCH  32  39
ENDBRANCH   1  32
TORSDOF 7
ENDMDL
MODEL 8
REMARK VINA RESULT:      -8.9      1.834      2.758
REMARK  Name = 
REMARK  9 active torsions:
REMARK  status: ('A' for Active; 'I' for Inactive)
REMARK    1  A    between atoms: C_1  and  N_2
REMARK    2  A    between atoms: C_7  and  C_8
REMARK    3  A    between atoms: C_8  and  C_9
REMARK    4  A    between atoms: C_13  and  C_14
REMARK    5  A    between atoms: N_20  and  C_21
REMARK    6  A    between atoms: C_25  and  C_26
REMARK    7  A    between atoms: C_26  and  C_27
REMARK    8  A    between atoms: C_27  and  C_28
REMARK    9  A    between atoms: N_32  and  C_33
REMARK                            x       y       z     vdW  Elec       q    Type
REMARK                         _______ _______ _______ _____ _____    ______ ____
ROOT
ATOM      1  C   UNL     1      -0.154  10.986  19.094  0.00  0.00    +0.000 A 
ATOM      2  C   UNL     1       0.716  10.260  18.278  0.00  0.00    +0.000 A 
ATOM      3  C   UNL     1       1.366   9.182  18.835  0.00  0.00    +0.000 A 
ATOM      4  C   UNL     1       1.238   8.818  20.170  0.00  0.00    +0.000 A 
ATOM      5  C   UNL     1       0.469   9.587  21.037  0.00  0.00    +0.000 A 
ATOM      6  C   UNL     1      -0.233  10.675  20.476  0.00  0.00    +0.000 A 
ATOM      7  C   UNL     1       1.962   7.530  20.396  0.00  0.00    +0.000 C 
ATOM      8  N   UNL     1       2.524   7.223  19.086  0.00  0.00    +0.000 N 
ATOM      9  C   UNL     1       2.188   8.191  18.142  0.00  0.00    +0.000 C 
ATOM     10  O   UNL     1       2.433   8.278  16.953  0.00  0.00    +0.000 OA
ENDROOT
BRANCH   8  11
ATOM     11  C   UNL     1       3.284   6.054  18.838  0.00  0.00    +0.000 A 
ATOM     12  C   UNL     1       3.352   5.015  19.768  0.00  0.00    +0.000 A 
ATOM     13  C   UNL     1       4.091   3.865  19.501  0.00  0.00    +0.000 A 
ATOM     14  C   UNL     1       4.810   3.761  18.314  0.00  0.00    +0.000 A 
ATOM     15  C   UNL     1       4.821   4.800  17.364  0.00  0.00    +0.000 A 
ATOM     16  C   UNL     1       4.005   5.917  17.643  0.00  0.00    +0.000 A 
BRANCH  15  17
ATOM     17  C   UNL     1       5.743   4.746  16.058  0.00  0.00    +0.000 C 
ATOM     18  C   UNL     1       6.055   3.363  15.413  0.00  0.00    +0.000 C 
ATOM     19  O   UNL     1       5.738   3.885  14.092  0.00  0.00    +0.000 OA
ATOM     20  C   UNL     1       4.993   4.961  14.711  0.00  0.00    +0.000 C 
BRANCH  17  21
ATOM     21  C   UNL     1       6.981   5.651  16.197  0.00  0.00    +0.000 C 
BRANCH  21  22
ATOM     22  C   UNL     1       7.501   5.718  17.594  0.00  0.00    +0.000 A 
ATOM     23  N   UNL     1       7.724   4.687  18.388  0.00  0.00    +0.000 NA
ATOM     24  N   UNL     1       8.212   5.157  19.583  0.00  0.00    +0.000 NA
ATOM     25  C   UNL     1       8.283   6.464  19.496  0.00  0.00    +0.000 A 
ATOM     26  N   UNL     1       7.833   6.862  18.275  0.00  0.00    +0.000 N 
ATOM     27  C   UNL     1       7.744   8.224  17.823  0.00  0.00    +0.000 C 
ENDBRANCH  21  22
ENDBRANCH  17  21
ENDBRANCH  15  17
ENDBRANCH   8  11
BRANCH   5  28
ATOM     28  C   UNL     1       0.338   9.276  22.505  0.00  0.00    +0.000 C 
ATOM     29  F   UNL     1      -0.248  10.273  23.222  0.00  0.00    +0.000 F 
ATOM     30  F   UNL     1      -0.423   8.167  22.727  0.00  0.00    +0.000 F 
ATOM     31  F   UNL     1       1.535   9.038  23.107  0.00  0.00    +0.000 F 
ENDBRANCH   5  28
BRANCH   1  32
ATOM     32  C   UNL     1      -1.088  12.004  18.476  0.00  0.00    +0.000 C 
BRANCH  32  39
ATOM     33  C   UNL     1      -3.752   9.766  15.566  0.00  0.00    +0.000 C 
ATOM     34  N   UNL     1      -3.780  11.209  15.806  0.00  0.00    +0.000 NA
ATOM     35  C   UNL     1      -4.965  11.625  16.571  0.00  0.00    +0.000 C 
ATOM     36  C   UNL     1      -4.920  11.240  18.040  0.00  0.00    +0.000 C 
ATOM     37  C   UNL     1      -3.635  11.769  18.622  0.00  0.00    +0.000 C 
ATOM     38  O   UNL     1      -3.644  12.432  19.659  0.00  0.00    +0.000 OA
ATOM     39  C   UNL     1      -2.362  11.353  17.894  0.00  0.00    +0.000 C 
ATOM     40  C   UNL     1      -2.540  11.716  16.414  0.00  0.00    +0.000 C 
ENDBRANCH  32  39
ENDBRANCH   1  32
TORSDOF 7
ENDMDL
MODEL 9
REMARK VINA RESULT:      -8.9      1.582      2.575
REMARK  Name = 
REMARK  9 active torsions:
REMARK  status: ('A' for Active; 'I' for Inactive)
REMARK    1  A    between atoms: C_1  and  N_2
REMARK    2  A    between atoms: C_7  and  C_8
REMARK    3  A    between atoms: C_8  and  C_9
REMARK    4  A    between atoms: C_13  and  C_14
REMARK    5  A    between atoms: N_20  and  C_21
REMARK    6  A    between atoms: C_25  and  C_26
REMARK    7  A    between atoms: C_26  and  C_27
REMARK    8  A    between atoms: C_27  and  C_28
REMARK    9  A    between atoms: N_32  and  C_33
REMARK                            x       y       z     vdW  Elec       q    Type
REMARK                         _______ _______ _______ _____ _____    ______ ____
ROOT
ATOM      1  C   UNL     1      -0.353  11.138  19.275  0.00  0.00    +0.000 A 
ATOM      2  C   UNL     1       0.508  10.415  18.446  0.00  0.00    +0.000 A 
ATOM      3  C   UNL     1       1.150   9.323  18.986  0.00  0.00    +0.000 A 
ATOM      4  C   UNL     1       1.023   8.943  20.317  0.00  0.00    +0.000 A 
ATOM      5  C   UNL     1       0.264   9.708  21.196  0.00  0.00    +0.000 A 
ATOM      6  C   UNL     1      -0.430  10.809  20.652  0.00  0.00    +0.000 A 
ATOM      7  C   UNL     1       1.737   7.645  20.524  0.00  0.00    +0.000 C 
ATOM      8  N   UNL     1       2.291   7.351  19.207  0.00  0.00    +0.000 N 
ATOM      9  C   UNL     1       1.961   8.334  18.277  0.00  0.00    +0.000 C 
ATOM     10  O   UNL     1       2.202   8.435  17.088  0.00  0.00    +0.000 OA
ENDROOT
BRANCH   8  11
ATOM     11  C   UNL     1       3.039   6.178  18.941  0.00  0.00    +0.000 A 
ATOM     12  C   UNL     1       3.058   5.105  19.833  0.00  0.00    +0.000 A 
ATOM     13  C   UNL     1       3.786   3.952  19.547  0.00  0.00    +0.000 A 
ATOM     14  C   UNL     1       4.544   3.880  18.382  0.00  0.00    +0.000 A 
ATOM     15  C   UNL     1       4.605   4.953  17.473  0.00  0.00    +0.000 A 
ATOM     16  C   UNL     1       3.799   6.074  17.767  0.00  0.00    +0.000 A 
BRANCH  15  17
ATOM     17  C   UNL     1       5.571   4.932  16.199  0.00  0.00    +0.000 C 
ATOM     18  C   UNL     1       6.066   3.560  15.652  0.00  0.00    +0.000 C 
ATOM     19  O   UNL     1       5.735   3.959  14.293  0.00  0.00    +0.000 OA
ATOM     20  C   UNL     1       4.847   4.973  14.821  0.00  0.00    +0.000 C 
BRANCH  17  21
ATOM     21  C   UNL     1       6.688   5.985  16.312  0.00  0.00    +0.000 C 
BRANCH  21  22
ATOM     22  C   UNL     1       7.368   5.974  17.641  0.00  0.00    +0.000 A 
ATOM     23  N   UNL     1       7.572   4.911  18.397  0.00  0.00    +0.000 NA
ATOM     24  N   UNL     1       8.239   5.308  19.531  0.00  0.00    +0.000 NA
ATOM     25  C   UNL     1       8.434   6.602  19.445  0.00  0.00    +0.000 A 
ATOM     26  N   UNL     1       7.892   7.066  18.285  0.00  0.00    +0.000 N 
ATOM     27  C   UNL     1       7.893   8.438  17.855  0.00  0.00    +0.000 C 
ENDBRANCH  21  22
ENDBRANCH  17  21
ENDBRANCH  15  17
ENDBRANCH   8  11
BRANCH   5  28
ATOM     28  C   UNL     1       0.136   9.378  22.661  0.00  0.00    +0.000 C 
ATOM     29  F   UNL     1       1.333   9.227  23.290  0.00  0.00    +0.000 F 
ATOM     30  F   UNL     1      -0.521  10.353  23.350  0.00  0.00    +0.000 F 
ATOM     31  F   UNL     1      -0.552   8.226  22.889  0.00  0.00    +0.000 F 
ENDBRANCH   5  28
BRANCH   1  32
ATOM     32  C   UNL     1      -1.280  12.172  18.674  0.00  0.00    +0.000 C 
BRANCH  32  39
ATOM     33  C   UNL     1      -5.444  10.397  18.386  0.00  0.00    +0.000 C 
ATOM     34  N   UNL     1      -5.076  11.762  18.012  0.00  0.00    +0.000 NA
ATOM     35  C   UNL     1      -5.566  12.758  18.975  0.00  0.00    +0.000 C 
ATOM     36  C   UNL     1      -4.812  12.767  20.294  0.00  0.00    +0.000 C 
ATOM     37  C   UNL     1      -3.344  12.922  19.992  0.00  0.00    +0.000 C 
ATOM     38  O   UNL     1      -2.675  13.780  20.566  0.00  0.00    +0.000 OA
ATOM     39  C   UNL     1      -2.761  11.903  19.020  0.00  0.00    +0.000 C 
ATOM     40  C   UNL     1      -3.635  11.921  17.758  0.00  0.00    +0.000 C 
ENDBRANCH  32  39
ENDBRANCH   1  32
TORSDOF 7
ENDMDL
