MODEL 1
REMARK VINA RESULT:     -10.0      0.000      0.000
REMARK  Name = 
REMARK  8 active torsions:
REMARK  status: ('A' for Active; 'I' for Inactive)
REMARK    1  A    between atoms: C_1  and  N_2
REMARK    2  A    between atoms: C_6  and  C_7
REMARK    3  A    between atoms: C_7  and  C_8
REMARK    4  A    between atoms: C_8  and  C_9
REMARK    5  A    between atoms: C_13  and  N_14
REMARK    6  A    between atoms: C_19  and  C_20
REMARK    7  A    between atoms: C_20  and  N_21
REMARK    8  A    between atoms: C_32  and  C_33
REMARK                            x       y       z     vdW  Elec       q    Type
REMARK                         _______ _______ _______ _____ _____    ______ ____
ROOT
ATOM      1  N   UNL     1       2.292   7.500  19.282  0.00  0.00    +0.000 N 
ATOM      2  C   UNL     1       1.530   7.827  20.461  0.00  0.00    +0.000 C 
ATOM      3  C   UNL     1       0.976   9.163  20.211  0.00  0.00    +0.000 A 
ATOM      4  C   UNL     1       1.280   9.596  18.924  0.00  0.00    +0.000 A 
ATOM      5  C   UNL     1       0.813  10.847  18.499  0.00  0.00    +0.000 A 
ATOM      6  C   UNL     1       0.068  11.645  19.416  0.00  0.00    +0.000 A 
ATOM      7  C   UNL     1      -0.200  11.143  20.715  0.00  0.00    +0.000 A 
ATOM      8  C   UNL     1       0.278   9.912  21.143  0.00  0.00    +0.000 A 
ATOM      9  C   UNL     1       2.170   8.518  18.317  0.00  0.00    +0.000 C 
ATOM     10  O   UNL     1       2.682   8.607  17.207  0.00  0.00    +0.000 OA
ENDROOT
BRANCH   1  15
ATOM     11  C   UNL     1       5.372   5.366  18.814  0.00  0.00    +0.000 A 
ATOM     12  C   UNL     1       4.865   4.134  19.256  0.00  0.00    +0.000 A 
ATOM     13  C   UNL     1       3.563   4.006  19.765  0.00  0.00    +0.000 A 
ATOM     14  C   UNL     1       2.684   5.107  19.830  0.00  0.00    +0.000 A 
ATOM     15  C   UNL     1       3.115   6.339  19.378  0.00  0.00    +0.000 A 
ATOM     16  C   UNL     1       4.460   6.429  18.910  0.00  0.00    +0.000 A 
BRANCH  11  17
ATOM     17  C   UNL     1       6.878   5.602  18.245  0.00  0.00    +0.000 C 
ATOM     18  C   UNL     1       7.941   5.942  19.328  0.00  0.00    +0.000 C 
ATOM     19  O   UNL     1       8.207   7.238  18.762  0.00  0.00    +0.000 OA
ATOM     20  C   UNL     1       7.263   7.012  17.695  0.00  0.00    +0.000 C 
BRANCH  17  21
ATOM     21  C   UNL     1       7.324   4.453  17.312  0.00  0.00    +0.000 C 
BRANCH  21  27
ATOM     22  C   UNL     1       4.671   3.506  15.872  0.00  0.00    +0.000 C 
ATOM     23  N   UNL     1       5.799   4.166  15.271  0.00  0.00    +0.000 N 
ATOM     24  C   UNL     1       5.925   4.441  13.942  0.00  0.00    +0.000 A 
ATOM     25  N   UNL     1       7.066   5.049  13.730  0.00  0.00    +0.000 NA
ATOM     26  N   UNL     1       7.707   5.164  14.938  0.00  0.00    +0.000 NA
ATOM     27  C   UNL     1       6.946   4.625  15.873  0.00  0.00    +0.000 A 
ENDBRANCH  21  27
ENDBRANCH  17  21
ENDBRANCH  11  17
ENDBRANCH   1  15
BRANCH   8  28
ATOM     28  C   UNL     1       0.083   9.464  22.571  0.00  0.00    +0.000 C 
ATOM     29  F   UNL     1      -0.544  10.385  23.354  0.00  0.00    +0.000 F 
ATOM     30  F   UNL     1      -0.673   8.337  22.653  0.00  0.00    +0.000 F 
ATOM     31  F   UNL     1       1.257   9.193  23.195  0.00  0.00    +0.000 F 
ENDBRANCH   8  28
BRANCH   6  32
ATOM     32  C   UNL     1      -0.496  13.042  19.120  0.00  0.00    +0.000 C 
BRANCH  32  33
ATOM     33  N   UNL     1      -0.020  14.018  20.125  0.00  0.00    +0.000 NA
ATOM     34  C   UNL     1       1.435  14.194  20.167  0.00  0.00    +0.000 C 
ATOM     35  C   UNL     1       2.015  15.121  19.086  0.00  0.00    +0.000 C 
ATOM     36  C   UNL     1       1.298  16.456  18.980  0.00  0.00    +0.000 C 
ATOM     37  C   UNL     1       2.021  17.716  19.445  0.00  0.00    +0.000 C 
ATOM     38  C   UNL     1       1.859  17.457  17.979  0.00  0.00    +0.000 C 
ATOM     39  C   UNL     1      -0.214  16.354  19.062  0.00  0.00    +0.000 C 
ATOM     40  F   UNL     1      -0.699  16.013  17.838  0.00  0.00    +0.000 F 
ATOM     41  F   UNL     1      -0.747  17.572  19.359  0.00  0.00    +0.000 F 
ATOM     42  C   UNL     1      -0.693  15.334  20.106  0.00  0.00    +0.000 C 
ENDBRANCH  32  33
ENDBRANCH   6  32
TORSDOF 7
ENDMDL
MODEL 2
REMARK VINA RESULT:      -9.8      1.277      1.746
REMARK  Name = 
REMARK  8 active torsions:
REMARK  status: ('A' for Active; 'I' for Inactive)
REMARK    1  A    between atoms: C_1  and  N_2
REMARK    2  A    between atoms: C_6  and  C_7
REMARK    3  A    between atoms: C_7  and  C_8
REMARK    4  A    between atoms: C_8  and  C_9
REMARK    5  A    between atoms: C_13  and  N_14
REMARK    6  A    between atoms: C_19  and  C_20
REMARK    7  A    between atoms: C_20  and  N_21
REMARK    8  A    between atoms: C_32  and  C_33
REMARK                            x       y       z     vdW  Elec       q    Type
REMARK                         _______ _______ _______ _____ _____    ______ ____
ROOT
ATOM      1  N   UNL     1       2.277   7.475  19.292  0.00  0.00    +0.000 N 
ATOM      2  C   UNL     1       1.520   7.799  20.474  0.00  0.00    +0.000 C 
ATOM      3  C   UNL     1       0.941   9.123  20.218  0.00  0.00    +0.000 A 
ATOM      4  C   UNL     1       1.227   9.550  18.924  0.00  0.00    +0.000 A 
ATOM      5  C   UNL     1       0.735  10.790  18.493  0.00  0.00    +0.000 A 
ATOM      6  C   UNL     1      -0.015  11.583  19.410  0.00  0.00    +0.000 A 
ATOM      7  C   UNL     1      -0.264  11.088  20.715  0.00  0.00    +0.000 A 
ATOM      8  C   UNL     1       0.238   9.868  21.149  0.00  0.00    +0.000 A 
ATOM      9  C   UNL     1       2.130   8.483  18.319  0.00  0.00    +0.000 C 
ATOM     10  O   UNL     1       2.630   8.570  17.203  0.00  0.00    +0.000 OA
ENDROOT
BRANCH   1  15
ATOM     11  C   UNL     1       5.385   5.385  18.807  0.00  0.00    +0.000 A 
ATOM     12  C   UNL     1       4.904   4.151  19.270  0.00  0.00    +0.000 A 
ATOM     13  C   UNL     1       3.611   4.007  19.798  0.00  0.00    +0.000 A 
ATOM     14  C   UNL     1       2.716   5.095  19.862  0.00  0.00    +0.000 A 
ATOM     15  C   UNL     1       3.120   6.328  19.390  0.00  0.00    +0.000 A 
ATOM     16  C   UNL     1       4.457   6.434  18.903  0.00  0.00    +0.000 A 
BRANCH  11  17
ATOM     17  C   UNL     1       6.879   5.639  18.215  0.00  0.00    +0.000 C 
ATOM     18  C   UNL     1       7.951   6.006  19.279  0.00  0.00    +0.000 C 
ATOM     19  O   UNL     1       8.189   7.301  18.697  0.00  0.00    +0.000 OA
ATOM     20  C   UNL     1       7.234   7.049  17.645  0.00  0.00    +0.000 C 
BRANCH  17  21
ATOM     21  C   UNL     1       7.330   4.487  17.287  0.00  0.00    +0.000 C 
BRANCH  21  27
ATOM     22  C   UNL     1       4.672   3.538  15.859  0.00  0.00    +0.000 C 
ATOM     23  N   UNL     1       5.800   4.190  15.252  0.00  0.00    +0.000 N 
ATOM     24  C   UNL     1       5.924   4.455  13.920  0.00  0.00    +0.000 A 
ATOM     25  N   UNL     1       7.066   5.058  13.701  0.00  0.00    +0.000 NA
ATOM     26  N   UNL     1       7.710   5.180  14.907  0.00  0.00    +0.000 NA
ATOM     27  C   UNL     1       6.950   4.650  15.847  0.00  0.00    +0.000 A 
ENDBRANCH  21  27
ENDBRANCH  17  21
ENDBRANCH  11  17
ENDBRANCH   1  15
BRANCH   8  28
ATOM     28  C   UNL     1       0.063   9.429  22.583  0.00  0.00    +0.000 C 
ATOM     29  F   UNL     1      -0.680   8.297  22.722  0.00  0.00    +0.000 F 
ATOM     30  F   UNL     1       1.253   9.162  23.184  0.00  0.00    +0.000 F 
ATOM     31  F   UNL     1      -0.556  10.368  23.342  0.00  0.00    +0.000 F 
ENDBRANCH   8  28
BRANCH   6  32
ATOM     32  C   UNL     1      -0.605  12.968  19.107  0.00  0.00    +0.000 C 
BRANCH  32  33
ATOM     33  N   UNL     1       0.472  13.972  18.966  0.00  0.00    +0.000 NA
ATOM     34  C   UNL     1       0.005  15.346  18.759  0.00  0.00    +0.000 C 
ATOM     35  C   UNL     1      -0.431  16.089  20.033  0.00  0.00    +0.000 C 
ATOM     36  C   UNL     1       0.584  16.011  21.161  0.00  0.00    +0.000 C 
ATOM     37  C   UNL     1       1.355  17.271  21.542  0.00  0.00    +0.000 C 
ATOM     38  C   UNL     1       0.254  16.782  22.432  0.00  0.00    +0.000 C 
ATOM     39  C   UNL     1       1.204  14.638  21.341  0.00  0.00    +0.000 C 
ATOM     40  F   UNL     1       0.355  13.865  22.071  0.00  0.00    +0.000 F 
ATOM     41  F   UNL     1       2.351  14.737  22.068  0.00  0.00    +0.000 F 
ATOM     42  C   UNL     1       1.517  13.938  20.010  0.00  0.00    +0.000 C 
ENDBRANCH  32  33
ENDBRANCH   6  32
TORSDOF 7
ENDMDL
MODEL 3
REMARK VINA RESULT:      -9.3      1.945      2.885
REMARK  Name = 
REMARK  8 active torsions:
REMARK  status: ('A' for Active; 'I' for Inactive)
REMARK    1  A    between atoms: C_1  and  N_2
REMARK    2  A    between atoms: C_6  and  C_7
REMARK    3  A    between atoms: C_7  and  C_8
REMARK    4  A    between atoms: C_8  and  C_9
REMARK    5  A    between atoms: C_13  and  N_14
REMARK    6  A    between atoms: C_19  and  C_20
REMARK    7  A    between atoms: C_20  and  N_21
REMARK    8  A    between atoms: C_32  and  C_33
REMARK                            x       y       z     vdW  Elec       q    Type
REMARK                         _______ _______ _______ _____ _____    ______ ____
ROOT
ATOM      1  N   UNL     1       2.193   7.484  19.106  0.00  0.00    +0.000 N 
ATOM      2  C   UNL     1       1.457   7.815  20.300  0.00  0.00    +0.000 C 
ATOM      3  C   UNL     1       1.032   9.208  20.124  0.00  0.00    +0.000 A 
ATOM      4  C   UNL     1       1.384   9.681  18.863  0.00  0.00    +0.000 A 
ATOM      5  C   UNL     1       1.038  10.993  18.508  0.00  0.00    +0.000 A 
ATOM      6  C   UNL     1       0.365  11.805  19.467  0.00  0.00    +0.000 A 
ATOM      7  C   UNL     1       0.042  11.259  20.736  0.00  0.00    +0.000 A 
ATOM      8  C   UNL     1       0.400   9.967  21.095  0.00  0.00    +0.000 A 
ATOM      9  C   UNL     1       2.173   8.561  18.199  0.00  0.00    +0.000 C 
ATOM     10  O   UNL     1       2.697   8.662  17.095  0.00  0.00    +0.000 OA
ENDROOT
BRANCH   1  15
ATOM     11  C   UNL     1       4.544   4.786  17.901  0.00  0.00    +0.000 A 
ATOM     12  C   UNL     1       4.265   3.797  18.857  0.00  0.00    +0.000 A 
ATOM     13  C   UNL     1       3.377   4.021  19.921  0.00  0.00    +0.000 A 
ATOM     14  C   UNL     1       2.695   5.246  20.067  0.00  0.00    +0.000 A 
ATOM     15  C   UNL     1       2.903   6.247  19.138  0.00  0.00    +0.000 A 
ATOM     16  C   UNL     1       3.847   5.988  18.100  0.00  0.00    +0.000 A 
BRANCH  11  17
ATOM     17  C   UNL     1       5.585   4.615  16.662  0.00  0.00    +0.000 C 
ATOM     18  C   UNL     1       5.308   5.538  15.442  0.00  0.00    +0.000 C 
ATOM     19  O   UNL     1       5.066   4.425  14.563  0.00  0.00    +0.000 OA
ATOM     20  C   UNL     1       5.334   3.479  15.620  0.00  0.00    +0.000 C 
BRANCH  17  21
ATOM     21  C   UNL     1       7.056   4.678  17.136  0.00  0.00    +0.000 C 
BRANCH  21  27
ATOM     22  C   UNL     1       8.083   5.721  19.940  0.00  0.00    +0.000 C 
ATOM     23  N   UNL     1       7.952   6.479  18.726  0.00  0.00    +0.000 N 
ATOM     24  C   UNL     1       8.202   7.813  18.607  0.00  0.00    +0.000 A 
ATOM     25  N   UNL     1       7.989   8.189  17.371  0.00  0.00    +0.000 NA
ATOM     26  N   UNL     1       7.578   7.085  16.666  0.00  0.00    +0.000 NA
ATOM     27  C   UNL     1       7.548   6.049  17.484  0.00  0.00    +0.000 A 
ENDBRANCH  21  27
ENDBRANCH  17  21
ENDBRANCH  11  17
ENDBRANCH   1  15
BRANCH   8  28
ATOM     28  C   UNL     1       0.155   9.461  22.496  0.00  0.00    +0.000 C 
ATOM     29  F   UNL     1      -0.677   8.385  22.552  0.00  0.00    +0.000 F 
ATOM     30  F   UNL     1       1.305   9.067  23.105  0.00  0.00    +0.000 F 
ATOM     31  F   UNL     1      -0.409  10.401  23.296  0.00  0.00    +0.000 F 
ENDBRANCH   8  28
BRANCH   6  32
ATOM     32  C   UNL     1      -0.065  13.263  19.249  0.00  0.00    +0.000 C 
BRANCH  32  33
ATOM     33  N   UNL     1       1.120  14.142  19.137  0.00  0.00    +0.000 NA
ATOM     34  C   UNL     1       0.815  15.548  18.852  0.00  0.00    +0.000 C 
ATOM     35  C   UNL     1       0.388  16.385  20.068  0.00  0.00    +0.000 C 
ATOM     36  C   UNL     1       1.321  16.251  21.259  0.00  0.00    +0.000 C 
ATOM     37  C   UNL     1       2.199  17.439  21.641  0.00  0.00    +0.000 C 
ATOM     38  C   UNL     1       1.002  17.106  22.479  0.00  0.00    +0.000 C 
ATOM     39  C   UNL     1       1.780  14.830  21.528  0.00  0.00    +0.000 C 
ATOM     40  F   UNL     1       0.813  14.181  22.232  0.00  0.00    +0.000 F 
ATOM     41  F   UNL     1       2.887  14.840  22.321  0.00  0.00    +0.000 F 
ATOM     42  C   UNL     1       2.094  14.045  20.245  0.00  0.00    +0.000 C 
ENDBRANCH  32  33
ENDBRANCH   6  32
TORSDOF 7
ENDMDL
MODEL 4
REMARK VINA RESULT:      -9.3      1.517      2.426
REMARK  Name = 
REMARK  8 active torsions:
REMARK  status: ('A' for Active; 'I' for Inactive)
REMARK    1  A    between atoms: C_1  and  N_2
REMARK    2  A    between atoms: C_6  and  C_7
REMARK    3  A    between atoms: C_7  and  C_8
REMARK    4  A    between atoms: C_8  and  C_9
REMARK    5  A    between atoms: C_13  and  N_14
REMARK    6  A    between atoms: C_19  and  C_20
REMARK    7  A    between atoms: C_20  and  N_21
REMARK    8  A    between atoms: C_32  and  C_33
REMARK                            x       y       z     vdW  Elec       q    Type
REMARK                         _______ _______ _______ _____ _____    ______ ____
ROOT
ATOM      1  N   UNL     1       2.029   7.514  19.197  0.00  0.00    +0.000 N 
ATOM      2  C   UNL     1       1.293   7.822  20.398  0.00  0.00    +0.000 C 
ATOM      3  C   UNL     1       0.877   9.222  20.255  0.00  0.00    +0.000 A 
ATOM      4  C   UNL     1       1.235   9.723  19.007  0.00  0.00    +0.000 A 
ATOM      5  C   UNL     1       0.899  11.045  18.683  0.00  0.00    +0.000 A 
ATOM      6  C   UNL     1       0.229  11.838  19.661  0.00  0.00    +0.000 A 
ATOM      7  C   UNL     1      -0.099  11.264  20.915  0.00  0.00    +0.000 A 
ATOM      8  C   UNL     1       0.249   9.961  21.243  0.00  0.00    +0.000 A 
ATOM      9  C   UNL     1       2.018   8.613  18.317  0.00  0.00    +0.000 C 
ATOM     10  O   UNL     1       2.545   8.738  17.217  0.00  0.00    +0.000 OA
ENDROOT
BRANCH   1  15
ATOM     11  C   UNL     1       4.384   4.842  17.945  0.00  0.00    +0.000 A 
ATOM     12  C   UNL     1       4.081   3.823  18.862  0.00  0.00    +0.000 A 
ATOM     13  C   UNL     1       3.175   4.018  19.917  0.00  0.00    +0.000 A 
ATOM     14  C   UNL     1       2.498   5.243  20.091  0.00  0.00    +0.000 A 
ATOM     15  C   UNL     1       2.730   6.273  19.201  0.00  0.00    +0.000 A 
ATOM     16  C   UNL     1       3.691   6.041  18.171  0.00  0.00    +0.000 A 
BRANCH  11  17
ATOM     17  C   UNL     1       5.446   4.705  16.720  0.00  0.00    +0.000 C 
ATOM     18  C   UNL     1       5.198   5.672  15.528  0.00  0.00    +0.000 C 
ATOM     19  O   UNL     1       4.964   4.592  14.607  0.00  0.00    +0.000 OA
ATOM     20  C   UNL     1       5.205   3.609  15.634  0.00  0.00    +0.000 C 
BRANCH  17  21
ATOM     21  C   UNL     1       6.908   4.739  17.223  0.00  0.00    +0.000 C 
BRANCH  21  27
ATOM     22  C   UNL     1       8.202   5.774  19.918  0.00  0.00    +0.000 C 
ATOM     23  N   UNL     1       7.961   6.533  18.721  0.00  0.00    +0.000 N 
ATOM     24  C   UNL     1       8.209   7.866  18.580  0.00  0.00    +0.000 A 
ATOM     25  N   UNL     1       7.882   8.244  17.369  0.00  0.00    +0.000 NA
ATOM     26  N   UNL     1       7.399   7.143  16.706  0.00  0.00    +0.000 NA
ATOM     27  C   UNL     1       7.440   6.107  17.523  0.00  0.00    +0.000 A 
ENDBRANCH  21  27
ENDBRANCH  17  21
ENDBRANCH  11  17
ENDBRANCH   1  15
BRANCH   8  28
ATOM     28  C   UNL     1      -0.002   9.423  22.631  0.00  0.00    +0.000 C 
ATOM     29  F   UNL     1      -0.761   8.292  22.651  0.00  0.00    +0.000 F 
ATOM     30  F   UNL     1       1.153   9.101  23.270  0.00  0.00    +0.000 F 
ATOM     31  F   UNL     1      -0.653  10.312  23.423  0.00  0.00    +0.000 F 
ENDBRANCH   8  28
BRANCH   6  32
ATOM     32  C   UNL     1      -0.189  13.304  19.477  0.00  0.00    +0.000 C 
BRANCH  32  33
ATOM     33  N   UNL     1       0.704  14.200  20.245  0.00  0.00    +0.000 NA
ATOM     34  C   UNL     1       2.135  13.966  20.032  0.00  0.00    +0.000 C 
ATOM     35  C   UNL     1       2.718  14.588  18.753  0.00  0.00    +0.000 C 
ATOM     36  C   UNL     1       2.362  16.054  18.571  0.00  0.00    +0.000 C 
ATOM     37  C   UNL     1       3.460  17.101  18.733  0.00  0.00    +0.000 C 
ATOM     38  C   UNL     1       2.962  16.759  17.362  0.00  0.00    +0.000 C 
ATOM     39  C   UNL     1       0.919  16.386  18.904  0.00  0.00    +0.000 C 
ATOM     40  F   UNL     1       0.139  16.079  17.832  0.00  0.00    +0.000 F 
ATOM     41  F   UNL     1       0.784  17.726  19.103  0.00  0.00    +0.000 F 
ATOM     42  C   UNL     1       0.401  15.643  20.144  0.00  0.00    +0.000 C 
ENDBRANCH  32  33
ENDBRANCH   6  32
TORSDOF 7
ENDMDL
MODEL 5
REMARK VINA RESULT:      -9.3      1.519      2.349
REMARK  Name = 
REMARK  8 active torsions:
REMARK  status: ('A' for Active; 'I' for Inactive)
REMARK    1  A    between atoms: C_1  and  N_2
REMARK    2  A    between atoms: C_6  and  C_7
REMARK    3  A    between atoms: C_7  and  C_8
REMARK    4  A    between atoms: C_8  and  C_9
REMARK    5  A    between atoms: C_13  and  N_14
REMARK    6  A    between atoms: C_19  and  C_20
REMARK    7  A    between atoms: C_20  and  N_21
REMARK    8  A    between atoms: C_32  and  C_33
REMARK                            x       y       z     vdW  Elec       q    Type
REMARK                         _______ _______ _______ _____ _____    ______ ____
ROOT
ATOM      1  N   UNL     1       2.222   7.464  19.060  0.00  0.00    +0.000 N 
ATOM      2  C   UNL     1       1.487   7.791  20.256  0.00  0.00    +0.000 C 
ATOM      3  C   UNL     1       1.077   9.190  20.093  0.00  0.00    +0.000 A 
ATOM      4  C   UNL     1       1.437   9.672  18.838  0.00  0.00    +0.000 A 
ATOM      5  C   UNL     1       1.106  10.991  18.495  0.00  0.00    +0.000 A 
ATOM      6  C   UNL     1       0.439  11.800  19.462  0.00  0.00    +0.000 A 
ATOM      7  C   UNL     1       0.108  11.246  20.723  0.00  0.00    +0.000 A 
ATOM      8  C   UNL     1       0.451   9.946  21.071  0.00  0.00    +0.000 A 
ATOM      9  C   UNL     1       2.216   8.550  18.165  0.00  0.00    +0.000 C 
ATOM     10  O   UNL     1       2.744   8.657  17.063  0.00  0.00    +0.000 OA
ENDROOT
BRANCH   1  15
ATOM     11  C   UNL     1       4.555   4.758  17.839  0.00  0.00    +0.000 A 
ATOM     12  C   UNL     1       4.256   3.758  18.779  0.00  0.00    +0.000 A 
ATOM     13  C   UNL     1       3.362   3.978  19.839  0.00  0.00    +0.000 A 
ATOM     14  C   UNL     1       2.692   5.208  19.995  0.00  0.00    +0.000 A 
ATOM     15  C   UNL     1       2.919   6.220  19.082  0.00  0.00    +0.000 A 
ATOM     16  C   UNL     1       3.869   5.964  18.048  0.00  0.00    +0.000 A 
BRANCH  11  17
ATOM     17  C   UNL     1       5.604   4.592  16.607  0.00  0.00    +0.000 C 
ATOM     18  C   UNL     1       5.332   5.517  15.387  0.00  0.00    +0.000 C 
ATOM     19  O   UNL     1       5.099   4.405  14.504  0.00  0.00    +0.000 OA
ATOM     20  C   UNL     1       5.363   3.458  15.560  0.00  0.00    +0.000 C 
BRANCH  17  21
ATOM     21  C   UNL     1       7.071   4.658  17.091  0.00  0.00    +0.000 C 
BRANCH  21  27
ATOM     22  C   UNL     1       8.034   5.678  19.926  0.00  0.00    +0.000 C 
ATOM     23  N   UNL     1       7.927   6.446  18.716  0.00  0.00    +0.000 N 
ATOM     24  C   UNL     1       8.176   7.783  18.616  0.00  0.00    +0.000 A 
ATOM     25  N   UNL     1       7.989   8.170  17.378  0.00  0.00    +0.000 NA
ATOM     26  N   UNL     1       7.597   7.071  16.654  0.00  0.00    +0.000 NA
ATOM     27  C   UNL     1       7.552   6.027  17.462  0.00  0.00    +0.000 A 
ENDBRANCH  21  27
ENDBRANCH  17  21
ENDBRANCH  11  17
ENDBRANCH   1  15
BRANCH   8  28
ATOM     28  C   UNL     1       0.197   9.428  22.466  0.00  0.00    +0.000 C 
ATOM     29  F   UNL     1      -0.349  10.353  23.302  0.00  0.00    +0.000 F 
ATOM     30  F   UNL     1      -0.664   8.376  22.470  0.00  0.00    +0.000 F 
ATOM     31  F   UNL     1       1.333   9.007  23.078  0.00  0.00    +0.000 F 
ENDBRANCH   8  28
BRANCH   6  32
ATOM     32  C   UNL     1       0.027  13.265  19.257  0.00  0.00    +0.000 C 
BRANCH  32  33
ATOM     33  N   UNL     1       0.826  14.157  20.126  0.00  0.00    +0.000 NA
ATOM     34  C   UNL     1       1.996  14.756  19.478  0.00  0.00    +0.000 C 
ATOM     35  C   UNL     1       1.703  15.982  18.599  0.00  0.00    +0.000 C 
ATOM     36  C   UNL     1       0.851  17.035  19.286  0.00  0.00    +0.000 C 
ATOM     37  C   UNL     1       1.498  18.358  19.683  0.00  0.00    +0.000 C 
ATOM     38  C   UNL     1       0.576  18.312  18.503  0.00  0.00    +0.000 C 
ATOM     39  C   UNL     1      -0.307  16.467  20.086  0.00  0.00    +0.000 C 
ATOM     40  F   UNL     1      -1.340  16.206  19.240  0.00  0.00    +0.000 F 
ATOM     41  F   UNL     1      -0.763  17.399  20.969  0.00  0.00    +0.000 F 
ATOM     42  C   UNL     1       0.061  15.190  20.856  0.00  0.00    +0.000 C 
ENDBRANCH  32  33
ENDBRANCH   6  32
TORSDOF 7
ENDMDL
MODEL 6
REMARK VINA RESULT:      -9.0      3.777      5.627
REMARK  Name = 
REMARK  8 active torsions:
REMARK  status: ('A' for Active; 'I' for Inactive)
REMARK    1  A    between atoms: C_1  and  N_2
REMARK    2  A    between atoms: C_6  and  C_7
REMARK    3  A    between atoms: C_7  and  C_8
REMARK    4  A    between atoms: C_8  and  C_9
REMARK    5  A    between atoms: C_13  and  N_14
REMARK    6  A    between atoms: C_19  and  C_20
REMARK    7  A    between atoms: C_20  and  N_21
REMARK    8  A    between atoms: C_32  and  C_33
REMARK                            x       y       z     vdW  Elec       q    Type
REMARK                         _______ _______ _______ _____ _____    ______ ____
ROOT
ATOM      1  N   UNL     1       0.975   9.322  20.422  0.00  0.00    +0.000 N 
ATOM      2  C   UNL     1       1.324  10.718  20.326  0.00  0.00    +0.000 C 
ATOM      3  C   UNL     1       0.367  11.420  21.189  0.00  0.00    +0.000 A 
ATOM      4  C   UNL     1      -0.454  10.519  21.861  0.00  0.00    +0.000 A 
ATOM      5  C   UNL     1      -1.420  11.011  22.750  0.00  0.00    +0.000 A 
ATOM      6  C   UNL     1      -1.546  12.422  22.907  0.00  0.00    +0.000 A 
ATOM      7  C   UNL     1      -0.681  13.283  22.186  0.00  0.00    +0.000 A 
ATOM      8  C   UNL     1       0.264  12.797  21.292  0.00  0.00    +0.000 A 
ATOM      9  C   UNL     1      -0.078   9.139  21.339  0.00  0.00    +0.000 C 
ATOM     10  O   UNL     1      -0.653   8.108  21.670  0.00  0.00    +0.000 OA
ENDROOT
BRANCH   1  15
ATOM     11  C   UNL     1       2.469   6.112  19.113  0.00  0.00    +0.000 A 
ATOM     12  C   UNL     1       3.054   6.597  17.933  0.00  0.00    +0.000 A 
ATOM     13  C   UNL     1       2.910   7.933  17.527  0.00  0.00    +0.000 A 
ATOM     14  C   UNL     1       2.194   8.866  18.303  0.00  0.00    +0.000 A 
ATOM     15  C   UNL     1       1.623   8.457  19.493  0.00  0.00    +0.000 A 
ATOM     16  C   UNL     1       1.760   7.079  19.841  0.00  0.00    +0.000 A 
BRANCH  11  17
ATOM     17  C   UNL     1       2.561   4.572  19.631  0.00  0.00    +0.000 C 
ATOM     18  C   UNL     1       1.196   3.835  19.740  0.00  0.00    +0.000 C 
ATOM     19  O   UNL     1       1.325   3.654  21.162  0.00  0.00    +0.000 OA
ATOM     20  C   UNL     1       2.616   4.298  21.168  0.00  0.00    +0.000 C 
BRANCH  17  21
ATOM     21  C   UNL     1       3.615   3.763  18.840  0.00  0.00    +0.000 C 
BRANCH  21  27
ATOM     22  C   UNL     1       5.503   4.125  16.328  0.00  0.00    +0.000 C 
ATOM     23  N   UNL     1       5.790   4.483  17.691  0.00  0.00    +0.000 N 
ATOM     24  C   UNL     1       6.974   4.995  18.130  0.00  0.00    +0.000 A 
ATOM     25  N   UNL     1       6.903   5.213  19.420  0.00  0.00    +0.000 NA
ATOM     26  N   UNL     1       5.654   4.825  19.839  0.00  0.00    +0.000 NA
ATOM     27  C   UNL     1       4.980   4.377  18.796  0.00  0.00    +0.000 A 
ENDBRANCH  21  27
ENDBRANCH  17  21
ENDBRANCH  11  17
ENDBRANCH   1  15
BRANCH   8  28
ATOM     28  C   UNL     1       1.082  13.743  20.447  0.00  0.00    +0.000 C 
ATOM     29  F   UNL     1       0.840  15.058  20.704  0.00  0.00    +0.000 F 
ATOM     30  F   UNL     1       2.417  13.572  20.637  0.00  0.00    +0.000 F 
ATOM     31  F   UNL     1       0.853  13.583  19.119  0.00  0.00    +0.000 F 
ENDBRANCH   8  28
BRANCH   6  32
ATOM     32  C   UNL     1      -2.563  13.124  23.820  0.00  0.00    +0.000 C 
BRANCH  32  33
ATOM     33  N   UNL     1      -3.379  14.085  23.046  0.00  0.00    +0.000 NA
ATOM     34  C   UNL     1      -3.734  13.638  21.695  0.00  0.00    +0.000 C 
ATOM     35  C   UNL     1      -4.922  12.666  21.617  0.00  0.00    +0.000 C 
ATOM     36  C   UNL     1      -6.146  13.135  22.386  0.00  0.00    +0.000 C 
ATOM     37  C   UNL     1      -7.375  13.584  21.603  0.00  0.00    +0.000 C 
ATOM     38  C   UNL     1      -7.387  12.258  22.298  0.00  0.00    +0.000 C 
ATOM     39  C   UNL     1      -5.831  13.731  23.745  0.00  0.00    +0.000 C 
ATOM     40  F   UNL     1      -5.673  12.722  24.642  0.00  0.00    +0.000 F 
ATOM     41  F   UNL     1      -6.886  14.471  24.184  0.00  0.00    +0.000 F 
ATOM     42  C   UNL     1      -4.573  14.613  23.739  0.00  0.00    +0.000 C 
ENDBRANCH  32  33
ENDBRANCH   6  32
TORSDOF 7
ENDMDL
MODEL 7
REMARK VINA RESULT:      -8.9      4.674     11.909
REMARK  Name = 
REMARK  8 active torsions:
REMARK  status: ('A' for Active; 'I' for Inactive)
REMARK    1  A    between atoms: C_1  and  N_2
REMARK    2  A    between atoms: C_6  and  C_7
REMARK    3  A    between atoms: C_7  and  C_8
REMARK    4  A    between atoms: C_8  and  C_9
REMARK    5  A    between atoms: C_13  and  N_14
REMARK    6  A    between atoms: C_19  and  C_20
REMARK    7  A    between atoms: C_20  and  N_21
REMARK    8  A    between atoms: C_32  and  C_33
REMARK                            x       y       z     vdW  Elec       q    Type
REMARK                         _______ _______ _______ _____ _____    ______ ____
ROOT
ATOM      1  N   UNL     1      -0.191  11.578  21.727  0.00  0.00    +0.000 N 
ATOM      2  C   UNL     1       0.190  11.296  20.366  0.00  0.00    +0.000 C 
ATOM      3  C   UNL     1       0.695   9.919  20.378  0.00  0.00    +0.000 A 
ATOM      4  C   UNL     1       0.541   9.342  21.635  0.00  0.00    +0.000 A 
ATOM      5  C   UNL     1       0.951   8.016  21.831  0.00  0.00    +0.000 A 
ATOM      6  C   UNL     1       1.541   7.316  20.738  0.00  0.00    +0.000 A 
ATOM      7  C   UNL     1       1.672   7.967  19.485  0.00  0.00    +0.000 A 
ATOM      8  C   UNL     1       1.284   9.287  19.296  0.00  0.00    +0.000 A 
ATOM      9  C   UNL     1      -0.015  10.438  22.535  0.00  0.00    +0.000 C 
ATOM     10  O   UNL     1      -0.211  10.296  23.737  0.00  0.00    +0.000 OA
ENDROOT
BRANCH   1  15
ATOM     11  C   UNL     1      -2.256  14.493  22.950  0.00  0.00    +0.000 A 
ATOM     12  C   UNL     1      -1.451  15.549  22.496  0.00  0.00    +0.000 A 
ATOM     13  C   UNL     1      -0.219  15.325  21.861  0.00  0.00    +0.000 A 
ATOM     14  C   UNL     1       0.259  14.021  21.619  0.00  0.00    +0.000 A 
ATOM     15  C   UNL     1      -0.504  12.940  22.013  0.00  0.00    +0.000 A 
ATOM     16  C   UNL     1      -1.728  13.219  22.693  0.00  0.00    +0.000 A 
BRANCH  11  17
ATOM     17  C   UNL     1      -3.676  14.672  23.724  0.00  0.00    +0.000 C 
ATOM     18  C   UNL     1      -4.651  15.695  23.075  0.00  0.00    +0.000 C 
ATOM     19  O   UNL     1      -4.637  16.552  24.231  0.00  0.00    +0.000 OA
ATOM     20  C   UNL     1      -3.754  15.654  24.936  0.00  0.00    +0.000 C 
BRANCH  17  21
ATOM     21  C   UNL     1      -4.347  13.309  24.013  0.00  0.00    +0.000 C 
BRANCH  21  27
ATOM     22  C   UNL     1      -7.491  13.529  24.280  0.00  0.00    +0.000 C 
ATOM     23  N   UNL     1      -6.749  12.969  23.185  0.00  0.00    +0.000 N 
ATOM     24  C   UNL     1      -7.302  12.378  22.088  0.00  0.00    +0.000 A 
ATOM     25  N   UNL     1      -6.351  11.978  21.281  0.00  0.00    +0.000 NA
ATOM     26  N   UNL     1      -5.150  12.300  21.863  0.00  0.00    +0.000 NA
ATOM     27  C   UNL     1      -5.386  12.894  23.019  0.00  0.00    +0.000 A 
ENDBRANCH  21  27
ENDBRANCH  17  21
ENDBRANCH  11  17
ENDBRANCH   1  15
BRANCH   8  28
ATOM     28  C   UNL     1       1.554   9.989  17.987  0.00  0.00    +0.000 C 
ATOM     29  F   UNL     1       2.205   9.217  17.075  0.00  0.00    +0.000 F 
ATOM     30  F   UNL     1       0.407  10.391  17.378  0.00  0.00    +0.000 F 
ATOM     31  F   UNL     1       2.323  11.097  18.142  0.00  0.00    +0.000 F 
ENDBRANCH   8  28
BRANCH   6  32
ATOM     32  C   UNL     1       2.061   5.872  20.787  0.00  0.00    +0.000 C 
BRANCH  32  33
ATOM     33  N   UNL     1       1.909   5.219  19.468  0.00  0.00    +0.000 NA
ATOM     34  C   UNL     1       3.142   5.140  18.679  0.00  0.00    +0.000 C 
ATOM     35  C   UNL     1       4.095   3.996  19.063  0.00  0.00    +0.000 C 
ATOM     36  C   UNL     1       3.412   2.642  19.164  0.00  0.00    +0.000 C 
ATOM     37  C   UNL     1       3.713   1.588  18.103  0.00  0.00    +0.000 C 
ATOM     38  C   UNL     1       4.303   1.447  19.472  0.00  0.00    +0.000 C 
ATOM     39  C   UNL     1       2.063   2.680  19.858  0.00  0.00    +0.000 C 
ATOM     40  F   UNL     1       2.261   2.663  21.204  0.00  0.00    +0.000 F 
ATOM     41  F   UNL     1       1.356   1.555  19.562  0.00  0.00    +0.000 F 
ATOM     42  C   UNL     1       1.224   3.910  19.479  0.00  0.00    +0.000 C 
ENDBRANCH  32  33
ENDBRANCH   6  32
TORSDOF 7
ENDMDL
MODEL 8
REMARK VINA RESULT:      -8.9      3.484      5.329
REMARK  Name = 
REMARK  8 active torsions:
REMARK  status: ('A' for Active; 'I' for Inactive)
REMARK    1  A    between atoms: C_1  and  N_2
REMARK    2  A    between atoms: C_6  and  C_7
REMARK    3  A    between atoms: C_7  and  C_8
REMARK    4  A    between atoms: C_8  and  C_9
REMARK    5  A    between atoms: C_13  and  N_14
REMARK    6  A    between atoms: C_19  and  C_20
REMARK    7  A    between atoms: C_20  and  N_21
REMARK    8  A    between atoms: C_32  and  C_33
REMARK                            x       y       z     vdW  Elec       q    Type
REMARK                         _______ _______ _______ _____ _____    ______ ____
ROOT
ATOM      1  N   UNL     1       1.214   9.354  19.844  0.00  0.00    +0.000 N 
ATOM      2  C   UNL     1       1.007  10.662  19.276  0.00  0.00    +0.000 C 
ATOM      3  C   UNL     1       0.093  11.348  20.196  0.00  0.00    +0.000 A 
ATOM      4  C   UNL     1      -0.168  10.564  21.316  0.00  0.00    +0.000 A 
ATOM      5  C   UNL     1      -1.010  11.067  22.318  0.00  0.00    +0.000 A 
ATOM      6  C   UNL     1      -1.593  12.356  22.136  0.00  0.00    +0.000 A 
ATOM      7  C   UNL     1      -1.287  13.098  20.968  0.00  0.00    +0.000 A 
ATOM      8  C   UNL     1      -0.469  12.593  19.966  0.00  0.00    +0.000 A 
ATOM      9  C   UNL     1       0.544   9.239  21.077  0.00  0.00    +0.000 C 
ATOM     10  O   UNL     1       0.471   8.282  21.839  0.00  0.00    +0.000 OA
ENDROOT
BRANCH   1  15
ATOM     11  C   UNL     1       2.692   6.033  18.824  0.00  0.00    +0.000 A 
ATOM     12  C   UNL     1       3.362   6.430  17.656  0.00  0.00    +0.000 A 
ATOM     13  C   UNL     1       3.282   7.742  17.163  0.00  0.00    +0.000 A 
ATOM     14  C   UNL     1       2.547   8.739  17.837  0.00  0.00    +0.000 A 
ATOM     15  C   UNL     1       1.893   8.417  19.010  0.00  0.00    +0.000 A 
ATOM     16  C   UNL     1       1.968   7.060  19.447  0.00  0.00    +0.000 A 
BRANCH  11  17
ATOM     17  C   UNL     1       2.707   4.526  19.437  0.00  0.00    +0.000 C 
ATOM     18  C   UNL     1       1.330   3.804  19.434  0.00  0.00    +0.000 C 
ATOM     19  O   UNL     1       1.297   3.706  20.870  0.00  0.00    +0.000 OA
ATOM     20  C   UNL     1       2.587   4.341  20.983  0.00  0.00    +0.000 C 
BRANCH  17  21
ATOM     21  C   UNL     1       3.832   3.666  18.817  0.00  0.00    +0.000 C 
BRANCH  21  27
ATOM     22  C   UNL     1       5.753   3.974  16.322  0.00  0.00    +0.000 C 
ATOM     23  N   UNL     1       6.002   4.407  17.670  0.00  0.00    +0.000 N 
ATOM     24  C   UNL     1       7.159   4.982  18.104  0.00  0.00    +0.000 A 
ATOM     25  N   UNL     1       7.057   5.259  19.380  0.00  0.00    +0.000 NA
ATOM     26  N   UNL     1       5.815   4.847  19.796  0.00  0.00    +0.000 NA
ATOM     27  C   UNL     1       5.175   4.325  18.765  0.00  0.00    +0.000 A 
ENDBRANCH  21  27
ENDBRANCH  17  21
ENDBRANCH  11  17
ENDBRANCH   1  15
BRANCH   8  28
ATOM     28  C   UNL     1      -0.267  13.355  18.679  0.00  0.00    +0.000 C 
ATOM     29  F   UNL     1      -0.636  14.663  18.752  0.00  0.00    +0.000 F 
ATOM     30  F   UNL     1       1.036  13.362  18.290  0.00  0.00    +0.000 F 
ATOM     31  F   UNL     1      -0.979  12.832  17.649  0.00  0.00    +0.000 F 
ENDBRANCH   8  28
BRANCH   6  32
ATOM     32  C   UNL     1      -2.549  13.043  23.122  0.00  0.00    +0.000 C 
BRANCH  32  33
ATOM     33  N   UNL     1      -3.920  12.505  22.977  0.00  0.00    +0.000 NA
ATOM     34  C   UNL     1      -4.886  13.020  23.951  0.00  0.00    +0.000 C 
ATOM     35  C   UNL     1      -5.466  14.407  23.629  0.00  0.00    +0.000 C 
ATOM     36  C   UNL     1      -5.989  14.535  22.209  0.00  0.00    +0.000 C 
ATOM     37  C   UNL     1      -7.495  14.636  21.988  0.00  0.00    +0.000 C 
ATOM     38  C   UNL     1      -6.643  15.858  21.836  0.00  0.00    +0.000 C 
ATOM     39  C   UNL     1      -5.092  13.902  21.161  0.00  0.00    +0.000 C 
ATOM     40  F   UNL     1      -4.093  14.771  20.854  0.00  0.00    +0.000 F 
ATOM     41  F   UNL     1      -5.792  13.702  20.009  0.00  0.00    +0.000 F 
ATOM     42  C   UNL     1      -4.488  12.564  21.613  0.00  0.00    +0.000 C 
ENDBRANCH  32  33
ENDBRANCH   6  32
TORSDOF 7
ENDMDL
MODEL 9
REMARK VINA RESULT:      -8.9      4.469     11.653
REMARK  Name = 
REMARK  8 active torsions:
REMARK  status: ('A' for Active; 'I' for Inactive)
REMARK    1  A    between atoms: C_1  and  N_2
REMARK    2  A    between atoms: C_6  and  C_7
REMARK    3  A    between atoms: C_7  and  C_8
REMARK    4  A    between atoms: C_8  and  C_9
REMARK    5  A    between atoms: C_13  and  N_14
REMARK    6  A    between atoms: C_19  and  C_20
REMARK    7  A    between atoms: C_20  and  N_21
REMARK    8  A    between atoms: C_32  and  C_33
REMARK                            x       y       z     vdW  Elec       q    Type
REMARK                         _______ _______ _______ _____ _____    ______ ____
ROOT
ATOM      1  N   UNL     1      -1.907  11.334  19.141  0.00  0.00    +0.000 N 
ATOM      2  C   UNL     1      -1.171  10.991  20.332  0.00  0.00    +0.000 C 
ATOM      3  C   UNL     1      -0.130  10.055  19.893  0.00  0.00    +0.000 A 
ATOM      4  C   UNL     1      -0.144   9.906  18.509  0.00  0.00    +0.000 A 
ATOM      5  C   UNL     1       0.799   9.062  17.906  0.00  0.00    +0.000 A 
ATOM      6  C   UNL     1       1.720   8.362  18.739  0.00  0.00    +0.000 A 
ATOM      7  C   UNL     1       1.674   8.556  20.142  0.00  0.00    +0.000 A 
ATOM      8  C   UNL     1       0.729   9.377  20.743  0.00  0.00    +0.000 A 
ATOM      9  C   UNL     1      -1.329  10.723  18.011  0.00  0.00    +0.000 C 
ATOM     10  O   UNL     1      -1.680  10.763  16.837  0.00  0.00    +0.000 OA
ENDROOT
BRANCH   1  15
ATOM     11  C   UNL     1      -4.225  13.860  20.722  0.00  0.00    +0.000 A 
ATOM     12  C   UNL     1      -5.425  13.494  20.093  0.00  0.00    +0.000 A 
ATOM     13  C   UNL     1      -5.474  12.486  19.116  0.00  0.00    +0.000 A 
ATOM     14  C   UNL     1      -4.321  11.768  18.739  0.00  0.00    +0.000 A 
ATOM     15  C   UNL     1      -3.116  12.060  19.347  0.00  0.00    +0.000 A 
ATOM     16  C   UNL     1      -3.108  13.121  20.302  0.00  0.00    +0.000 A 
BRANCH  11  17
ATOM     17  C   UNL     1      -4.080  15.038  21.835  0.00  0.00    +0.000 C 
ATOM     18  C   UNL     1      -4.923  16.314  21.551  0.00  0.00    +0.000 C 
ATOM     19  O   UNL     1      -3.755  17.148  21.440  0.00  0.00    +0.000 OA
ATOM     20  C   UNL     1      -2.883  16.035  21.725  0.00  0.00    +0.000 C 
BRANCH  17  21
ATOM     21  C   UNL     1      -4.281  14.499  23.270  0.00  0.00    +0.000 C 
BRANCH  21  27
ATOM     22  C   UNL     1      -7.294  15.376  23.663  0.00  0.00    +0.000 C 
ATOM     23  N   UNL     1      -6.772  14.037  23.659  0.00  0.00    +0.000 N 
ATOM     24  C   UNL     1      -7.507  12.912  23.888  0.00  0.00    +0.000 A 
ATOM     25  N   UNL     1      -6.730  11.860  23.810  0.00  0.00    +0.000 NA
ATOM     26  N   UNL     1      -5.459  12.302  23.537  0.00  0.00    +0.000 NA
ATOM     27  C   UNL     1      -5.479  13.619  23.452  0.00  0.00    +0.000 A 
ENDBRANCH  21  27
ENDBRANCH  17  21
ENDBRANCH  11  17
ENDBRANCH   1  15
BRANCH   8  28
ATOM     28  C   UNL     1       0.626   9.463  22.246  0.00  0.00    +0.000 C 
ATOM     29  F   UNL     1       0.340  10.712  22.705  0.00  0.00    +0.000 F 
ATOM     30  F   UNL     1      -0.353   8.658  22.737  0.00  0.00    +0.000 F 
ATOM     31  F   UNL     1       1.777   9.101  22.867  0.00  0.00    +0.000 F 
ENDBRANCH   8  28
BRANCH   6  32
ATOM     32  C   UNL     1       2.798   7.386  18.244  0.00  0.00    +0.000 C 
BRANCH  32  33
ATOM     33  N   UNL     1       3.090   6.367  19.276  0.00  0.00    +0.000 NA
ATOM     34  C   UNL     1       1.960   5.498  19.615  0.00  0.00    +0.000 C 
ATOM     35  C   UNL     1       1.706   4.340  18.636  0.00  0.00    +0.000 C 
ATOM     36  C   UNL     1       2.950   3.531  18.313  0.00  0.00    +0.000 C 
ATOM     37  C   UNL     1       3.063   2.110  18.856  0.00  0.00    +0.000 C 
ATOM     38  C   UNL     1       2.765   2.324  17.404  0.00  0.00    +0.000 C 
ATOM     39  C   UNL     1       4.191   4.373  18.079  0.00  0.00    +0.000 C 
ATOM     40  F   UNL     1       4.176   4.832  16.799  0.00  0.00    +0.000 F 
ATOM     41  F   UNL     1       5.306   3.599  18.194  0.00  0.00    +0.000 F 
ATOM     42  C   UNL     1       4.306   5.559  19.048  0.00  0.00    +0.000 C 
ENDBRANCH  32  33
ENDBRANCH   6  32
TORSDOF 7
ENDMDL
