MODEL 1
REMARK VINA RESULT:      -9.7      0.000      0.000
REMARK  Name = 
REMARK  7 active torsions:
REMARK  status: ('A' for Active; 'I' for Inactive)
REMARK    1  A    between atoms: C_1  and  N_2
REMARK    2  A    between atoms: C_6  and  C_7
REMARK    3  A    between atoms: C_7  and  C_10
REMARK    4  A    between atoms: C_10  and  C_11
REMARK    5  A    between atoms: C_10  and  C_13
REMARK    6  A    between atoms: C_17  and  N_18
REMARK    7  A    between atoms: C_25  and  C_26
REMARK                            x       y       z     vdW  Elec       q    Type
REMARK                         _______ _______ _______ _____ _____    ______ ____
ROOT
ATOM      1  C   UNL     1       4.536   5.355  17.853  0.00  0.00    +0.000 A 
ATOM      2  C   UNL     1       4.367   4.260  18.706  0.00  0.00    +0.000 A 
ATOM      3  C   UNL     1       3.484   4.339  19.794  0.00  0.00    +0.000 A 
ATOM      4  C   UNL     1       2.727   5.495  20.033  0.00  0.00    +0.000 A 
ATOM      5  C   UNL     1       2.875   6.609  19.204  0.00  0.00    +0.000 A 
ATOM      6  C   UNL     1       3.817   6.524  18.158  0.00  0.00    +0.000 A 
ENDROOT
BRANCH   5   7
ATOM      7  N   UNL     1       2.081   7.780  19.328  0.00  0.00    +0.000 N 
ATOM      8  C   UNL     1       1.429   8.066  20.590  0.00  0.00    +0.000 C 
ATOM      9  C   UNL     1       0.774   9.378  20.385  0.00  0.00    +0.000 A 
ATOM     10  C   UNL     1       1.041   9.837  19.098  0.00  0.00    +0.000 A 
ATOM     11  C   UNL     1       0.564  11.057  18.659  0.00  0.00    +0.000 A 
ATOM     12  C   UNL     1      -0.212  11.811  19.553  0.00  0.00    +0.000 A 
ATOM     13  C   UNL     1      -0.484  11.342  20.854  0.00  0.00    +0.000 A 
ATOM     14  C   UNL     1       0.016  10.110  21.296  0.00  0.00    +0.000 A 
ATOM     15  C   UNL     1       1.878   8.821  18.412  0.00  0.00    +0.000 C 
ATOM     16  O   UNL     1       2.283   8.956  17.272  0.00  0.00    +0.000 OA
BRANCH  14  17
ATOM     17  C   UNL     1      -0.256   9.609  22.693  0.00  0.00    +0.000 C 
ATOM     18  F   UNL     1      -1.006  10.461  23.448  0.00  0.00    +0.000 F 
ATOM     19  F   UNL     1      -0.932   8.427  22.701  0.00  0.00    +0.000 F 
ATOM     20  F   UNL     1       0.885   9.400  23.402  0.00  0.00    +0.000 F 
ENDBRANCH  14  17
ENDBRANCH   5   7
BRANCH   1  21
ATOM     21  C   UNL     1       5.267   5.288  16.495  0.00  0.00    +0.000 C 
ATOM     22  C   UNL     1       4.657   4.081  15.761  0.00  0.00    +0.000 C 
ATOM     23  F   UNL     1       4.933   6.389  15.723  0.00  0.00    +0.000 F 
BRANCH  21  24
ATOM     24  C   UNL     1       6.827   5.260  16.559  0.00  0.00    +0.000 C 
ATOM     25  F   UNL     1       7.353   5.198  15.301  0.00  0.00    +0.000 F 
ATOM     26  F   UNL     1       7.218   4.097  17.166  0.00  0.00    +0.000 F 
BRANCH  24  32
ATOM     27  C   UNL     1       8.013   5.463  19.543  0.00  0.00    +0.000 C 
ATOM     28  N   UNL     1       7.842   6.517  18.578  0.00  0.00    +0.000 N 
ATOM     29  C   UNL     1       8.169   7.822  18.808  0.00  0.00    +0.000 A 
ATOM     30  N   UNL     1       8.036   8.510  17.701  0.00  0.00    +0.000 NA
ATOM     31  N   UNL     1       7.597   7.647  16.735  0.00  0.00    +0.000 NA
ATOM     32  C   UNL     1       7.406   6.454  17.275  0.00  0.00    +0.000 A 
ENDBRANCH  24  32
ENDBRANCH  21  24
ENDBRANCH   1  21
TORSDOF 5
ENDMDL
MODEL 2
REMARK VINA RESULT:      -9.6      0.716      1.384
REMARK  Name = 
REMARK  7 active torsions:
REMARK  status: ('A' for Active; 'I' for Inactive)
REMARK    1  A    between atoms: C_1  and  N_2
REMARK    2  A    between atoms: C_6  and  C_7
REMARK    3  A    between atoms: C_7  and  C_10
REMARK    4  A    between atoms: C_10  and  C_11
REMARK    5  A    between atoms: C_10  and  C_13
REMARK    6  A    between atoms: C_17  and  N_18
REMARK    7  A    between atoms: C_25  and  C_26
REMARK                            x       y       z     vdW  Elec       q    Type
REMARK                         _______ _______ _______ _____ _____    ______ ____
ROOT
ATOM      1  C   UNL     1       4.408   5.316  17.489  0.00  0.00    +0.000 A 
ATOM      2  C   UNL     1       4.085   4.151  18.190  0.00  0.00    +0.000 A 
ATOM      3  C   UNL     1       3.139   4.187  19.226  0.00  0.00    +0.000 A 
ATOM      4  C   UNL     1       2.472   5.374  19.560  0.00  0.00    +0.000 A 
ATOM      5  C   UNL     1       2.774   6.557  18.884  0.00  0.00    +0.000 A 
ATOM      6  C   UNL     1       3.776   6.505  17.892  0.00  0.00    +0.000 A 
ENDROOT
BRANCH   5   7
ATOM      7  N   UNL     1       2.079   7.776  19.103  0.00  0.00    +0.000 N 
ATOM      8  C   UNL     1       1.469   8.024  20.394  0.00  0.00    +0.000 C 
ATOM      9  C   UNL     1       0.920   9.395  20.293  0.00  0.00    +0.000 A 
ATOM     10  C   UNL     1       1.207   9.921  19.036  0.00  0.00    +0.000 A 
ATOM     11  C   UNL     1       0.825  11.203  18.692  0.00  0.00    +0.000 A 
ATOM     12  C   UNL     1       0.124  11.952  19.651  0.00  0.00    +0.000 A 
ATOM     13  C   UNL     1      -0.169  11.416  20.921  0.00  0.00    +0.000 A 
ATOM     14  C   UNL     1       0.236  10.118  21.266  0.00  0.00    +0.000 A 
ATOM     15  C   UNL     1       1.950   8.893  18.266  0.00  0.00    +0.000 C 
ATOM     16  O   UNL     1       2.350   9.075  17.131  0.00  0.00    +0.000 OA
BRANCH  14  17
ATOM     17  C   UNL     1      -0.059   9.543  22.630  0.00  0.00    +0.000 C 
ATOM     18  F   UNL     1       1.056   9.200  23.336  0.00  0.00    +0.000 F 
ATOM     19  F   UNL     1      -0.740  10.412  23.426  0.00  0.00    +0.000 F 
ATOM     20  F   UNL     1      -0.813   8.414  22.565  0.00  0.00    +0.000 F 
ENDBRANCH  14  17
ENDBRANCH   5   7
BRANCH   1  21
ATOM     21  C   UNL     1       5.222   5.338  16.177  0.00  0.00    +0.000 C 
ATOM     22  C   UNL     1       4.482   4.389  15.219  0.00  0.00    +0.000 C 
ATOM     23  F   UNL     1       5.137   6.589  15.587  0.00  0.00    +0.000 F 
BRANCH  21  24
ATOM     24  C   UNL     1       6.747   5.028  16.314  0.00  0.00    +0.000 C 
ATOM     25  F   UNL     1       7.451   5.665  15.334  0.00  0.00    +0.000 F 
ATOM     26  F   UNL     1       6.943   3.693  16.082  0.00  0.00    +0.000 F 
BRANCH  24  32
ATOM     27  C   UNL     1       7.438   7.958  17.450  0.00  0.00    +0.000 C 
ATOM     28  N   UNL     1       7.652   6.683  18.082  0.00  0.00    +0.000 N 
ATOM     29  C   UNL     1       8.217   6.530  19.316  0.00  0.00    +0.000 A 
ATOM     30  N   UNL     1       8.145   5.273  19.678  0.00  0.00    +0.000 NA
ATOM     31  N   UNL     1       7.542   4.588  18.659  0.00  0.00    +0.000 NA
ATOM     32  C   UNL     1       7.307   5.422  17.658  0.00  0.00    +0.000 A 
ENDBRANCH  24  32
ENDBRANCH  21  24
ENDBRANCH   1  21
TORSDOF 5
ENDMDL
MODEL 3
REMARK VINA RESULT:      -9.6      1.710      2.743
REMARK  Name = 
REMARK  7 active torsions:
REMARK  status: ('A' for Active; 'I' for Inactive)
REMARK    1  A    between atoms: C_1  and  N_2
REMARK    2  A    between atoms: C_6  and  C_7
REMARK    3  A    between atoms: C_7  and  C_10
REMARK    4  A    between atoms: C_10  and  C_11
REMARK    5  A    between atoms: C_10  and  C_13
REMARK    6  A    between atoms: C_17  and  N_18
REMARK    7  A    between atoms: C_25  and  C_26
REMARK                            x       y       z     vdW  Elec       q    Type
REMARK                         _______ _______ _______ _____ _____    ______ ____
ROOT
ATOM      1  C   UNL     1       5.164   4.898  18.336  0.00  0.00    +0.000 A 
ATOM      2  C   UNL     1       4.750   3.741  19.003  0.00  0.00    +0.000 A 
ATOM      3  C   UNL     1       3.598   3.758  19.803  0.00  0.00    +0.000 A 
ATOM      4  C   UNL     1       2.816   4.915  19.926  0.00  0.00    +0.000 A 
ATOM      5  C   UNL     1       3.202   6.089  19.278  0.00  0.00    +0.000 A 
ATOM      6  C   UNL     1       4.400   6.061  18.534  0.00  0.00    +0.000 A 
ENDROOT
BRANCH   5   7
ATOM      7  N   UNL     1       2.417   7.273  19.281  0.00  0.00    +0.000 N 
ATOM      8  C   UNL     1       1.694   7.642  20.482  0.00  0.00    +0.000 C 
ATOM      9  C   UNL     1       1.069   8.945  20.158  0.00  0.00    +0.000 A 
ATOM     10  C   UNL     1       1.419   9.322  18.864  0.00  0.00    +0.000 A 
ATOM     11  C   UNL     1       0.985  10.517  18.324  0.00  0.00    +0.000 A 
ATOM     12  C   UNL     1       0.166  11.331  19.121  0.00  0.00    +0.000 A 
ATOM     13  C   UNL     1      -0.190  10.946  20.430  0.00  0.00    +0.000 A 
ATOM     14  C   UNL     1       0.267   9.738  20.975  0.00  0.00    +0.000 A 
ATOM     15  C   UNL     1       2.283   8.258  18.294  0.00  0.00    +0.000 C 
ATOM     16  O   UNL     1       2.758   8.319  17.175  0.00  0.00    +0.000 OA
BRANCH  14  17
ATOM     17  C   UNL     1      -0.095   9.326  22.380  0.00  0.00    +0.000 C 
ATOM     18  F   UNL     1       0.982   9.073  23.177  0.00  0.00    +0.000 F 
ATOM     19  F   UNL     1      -0.814  10.280  23.035  0.00  0.00    +0.000 F 
ATOM     20  F   UNL     1      -0.848   8.195  22.412  0.00  0.00    +0.000 F 
ENDBRANCH  14  17
ENDBRANCH   5   7
BRANCH   1  21
ATOM     21  C   UNL     1       6.247   4.921  17.237  0.00  0.00    +0.000 C 
ATOM     22  C   UNL     1       6.685   6.392  17.124  0.00  0.00    +0.000 C 
ATOM     23  F   UNL     1       7.374   4.238  17.667  0.00  0.00    +0.000 F 
BRANCH  21  24
ATOM     24  C   UNL     1       5.847   4.280  15.870  0.00  0.00    +0.000 C 
ATOM     25  F   UNL     1       4.551   4.582  15.565  0.00  0.00    +0.000 F 
ATOM     26  F   UNL     1       5.872   2.917  16.003  0.00  0.00    +0.000 F 
BRANCH  24  32
ATOM     27  C   UNL     1       5.707   3.487  12.755  0.00  0.00    +0.000 C 
ATOM     28  N   UNL     1       6.684   4.305  13.424  0.00  0.00    +0.000 N 
ATOM     29  C   UNL     1       7.751   4.883  12.798  0.00  0.00    +0.000 A 
ATOM     30  N   UNL     1       8.372   5.677  13.634  0.00  0.00    +0.000 NA
ATOM     31  N   UNL     1       7.715   5.605  14.831  0.00  0.00    +0.000 NA
ATOM     32  C   UNL     1       6.735   4.719  14.734  0.00  0.00    +0.000 A 
ENDBRANCH  24  32
ENDBRANCH  21  24
ENDBRANCH   1  21
TORSDOF 5
ENDMDL
MODEL 4
REMARK VINA RESULT:      -9.5      1.461      2.601
REMARK  Name = 
REMARK  7 active torsions:
REMARK  status: ('A' for Active; 'I' for Inactive)
REMARK    1  A    between atoms: C_1  and  N_2
REMARK    2  A    between atoms: C_6  and  C_7
REMARK    3  A    between atoms: C_7  and  C_10
REMARK    4  A    between atoms: C_10  and  C_11
REMARK    5  A    between atoms: C_10  and  C_13
REMARK    6  A    between atoms: C_17  and  N_18
REMARK    7  A    between atoms: C_25  and  C_26
REMARK                            x       y       z     vdW  Elec       q    Type
REMARK                         _______ _______ _______ _____ _____    ______ ____
ROOT
ATOM      1  C   UNL     1       5.254   5.133  19.061  0.00  0.00    +0.000 A 
ATOM      2  C   UNL     1       4.693   3.885  19.350  0.00  0.00    +0.000 A 
ATOM      3  C   UNL     1       3.348   3.786  19.737  0.00  0.00    +0.000 A 
ATOM      4  C   UNL     1       2.527   4.921  19.810  0.00  0.00    +0.000 A 
ATOM      5  C   UNL     1       3.056   6.183  19.533  0.00  0.00    +0.000 A 
ATOM      6  C   UNL     1       4.427   6.260  19.210  0.00  0.00    +0.000 A 
ENDROOT
BRANCH   5   7
ATOM      7  N   UNL     1       2.269   7.365  19.498  0.00  0.00    +0.000 N 
ATOM      8  C   UNL     1       1.559   7.781  20.691  0.00  0.00    +0.000 C 
ATOM      9  C   UNL     1       0.928   9.068  20.323  0.00  0.00    +0.000 A 
ATOM     10  C   UNL     1       1.263   9.394  19.011  0.00  0.00    +0.000 A 
ATOM     11  C   UNL     1       0.821  10.565  18.427  0.00  0.00    +0.000 A 
ATOM     12  C   UNL     1       0.009  11.410  19.201  0.00  0.00    +0.000 A 
ATOM     13  C   UNL     1      -0.331  11.077  20.528  0.00  0.00    +0.000 A 
ATOM     14  C   UNL     1       0.135   9.893  21.116  0.00  0.00    +0.000 A 
ATOM     15  C   UNL     1       2.122   8.309  18.473  0.00  0.00    +0.000 C 
ATOM     16  O   UNL     1       2.584   8.325  17.347  0.00  0.00    +0.000 OA
BRANCH  14  17
ATOM     17  C   UNL     1      -0.211   9.537  22.541  0.00  0.00    +0.000 C 
ATOM     18  F   UNL     1       0.875   9.362  23.345  0.00  0.00    +0.000 F 
ATOM     19  F   UNL     1      -0.963  10.495  23.150  0.00  0.00    +0.000 F 
ATOM     20  F   UNL     1      -0.922   8.382  22.630  0.00  0.00    +0.000 F 
ENDBRANCH  14  17
ENDBRANCH   5   7
BRANCH   1  21
ATOM     21  C   UNL     1       6.625   5.327  18.380  0.00  0.00    +0.000 C 
ATOM     22  C   UNL     1       7.570   5.818  19.491  0.00  0.00    +0.000 C 
ATOM     23  F   UNL     1       7.136   4.100  17.985  0.00  0.00    +0.000 F 
BRANCH  21  24
ATOM     24  C   UNL     1       6.634   6.230  17.105  0.00  0.00    +0.000 C 
ATOM     25  F   UNL     1       7.731   7.041  17.106  0.00  0.00    +0.000 F 
ATOM     26  F   UNL     1       5.563   7.081  17.166  0.00  0.00    +0.000 F 
BRANCH  24  32
ATOM     27  C   UNL     1       4.333   4.299  15.952  0.00  0.00    +0.000 C 
ATOM     28  N   UNL     1       5.633   4.567  15.397  0.00  0.00    +0.000 N 
ATOM     29  C   UNL     1       6.100   4.003  14.245  0.00  0.00    +0.000 A 
ATOM     30  N   UNL     1       7.247   4.549  13.923  0.00  0.00    +0.000 NA
ATOM     31  N   UNL     1       7.546   5.471  14.888  0.00  0.00    +0.000 NA
ATOM     32  C   UNL     1       6.609   5.436  15.824  0.00  0.00    +0.000 A 
ENDBRANCH  24  32
ENDBRANCH  21  24
ENDBRANCH   1  21
TORSDOF 5
ENDMDL
MODEL 5
REMARK VINA RESULT:      -9.4      1.757      2.650
REMARK  Name = 
REMARK  7 active torsions:
REMARK  status: ('A' for Active; 'I' for Inactive)
REMARK    1  A    between atoms: C_1  and  N_2
REMARK    2  A    between atoms: C_6  and  C_7
REMARK    3  A    between atoms: C_7  and  C_10
REMARK    4  A    between atoms: C_10  and  C_11
REMARK    5  A    between atoms: C_10  and  C_13
REMARK    6  A    between atoms: C_17  and  N_18
REMARK    7  A    between atoms: C_25  and  C_26
REMARK                            x       y       z     vdW  Elec       q    Type
REMARK                         _______ _______ _______ _____ _____    ______ ____
ROOT
ATOM      1  C   UNL     1       4.801   5.743  17.780  0.00  0.00    +0.000 A 
ATOM      2  C   UNL     1       4.516   4.510  18.374  0.00  0.00    +0.000 A 
ATOM      3  C   UNL     1       3.452   4.390  19.281  0.00  0.00    +0.000 A 
ATOM      4  C   UNL     1       2.630   5.485  19.586  0.00  0.00    +0.000 A 
ATOM      5  C   UNL     1       2.890   6.732  19.015  0.00  0.00    +0.000 A 
ATOM      6  C   UNL     1       4.005   6.838  18.158  0.00  0.00    +0.000 A 
ENDROOT
BRANCH   5   7
ATOM      7  N   UNL     1       2.052   7.863  19.205  0.00  0.00    +0.000 N 
ATOM      8  C   UNL     1       1.428   8.076  20.495  0.00  0.00    +0.000 C 
ATOM      9  C   UNL     1       0.712   9.365  20.358  0.00  0.00    +0.000 A 
ATOM     10  C   UNL     1       0.921   9.881  19.082  0.00  0.00    +0.000 A 
ATOM     11  C   UNL     1       0.380  11.094  18.702  0.00  0.00    +0.000 A 
ATOM     12  C   UNL     1      -0.399  11.782  19.646  0.00  0.00    +0.000 A 
ATOM     13  C   UNL     1      -0.611  11.256  20.936  0.00  0.00    +0.000 A 
ATOM     14  C   UNL     1      -0.047  10.031  21.316  0.00  0.00    +0.000 A 
ATOM     15  C   UNL     1       1.778   8.927  18.334  0.00  0.00    +0.000 C 
ATOM     16  O   UNL     1       2.142   9.119  17.189  0.00  0.00    +0.000 OA
BRANCH  14  17
ATOM     17  C   UNL     1      -0.256   9.469  22.701  0.00  0.00    +0.000 C 
ATOM     18  F   UNL     1      -0.835   8.235  22.714  0.00  0.00    +0.000 F 
ATOM     19  F   UNL     1       0.911   9.330  23.389  0.00  0.00    +0.000 F 
ATOM     20  F   UNL     1      -1.057  10.257  23.466  0.00  0.00    +0.000 F 
ENDBRANCH  14  17
ENDBRANCH   5   7
BRANCH   1  21
ATOM     21  C   UNL     1       5.763   5.925  16.586  0.00  0.00    +0.000 C 
ATOM     22  C   UNL     1       4.999   6.796  15.573  0.00  0.00    +0.000 C 
ATOM     23  F   UNL     1       6.855   6.688  16.970  0.00  0.00    +0.000 F 
BRANCH  21  24
ATOM     24  C   UNL     1       6.346   4.613  15.972  0.00  0.00    +0.000 C 
ATOM     25  F   UNL     1       5.376   3.656  15.890  0.00  0.00    +0.000 F 
ATOM     26  F   UNL     1       7.277   4.102  16.836  0.00  0.00    +0.000 F 
BRANCH  24  32
ATOM     27  C   UNL     1       5.386   3.454  13.128  0.00  0.00    +0.000 C 
ATOM     28  N   UNL     1       6.546   4.254  13.419  0.00  0.00    +0.000 N 
ATOM     29  C   UNL     1       7.455   4.648  12.480  0.00  0.00    +0.000 A 
ATOM     30  N   UNL     1       8.311   5.479  13.020  0.00  0.00    +0.000 NA
ATOM     31  N   UNL     1       7.971   5.619  14.337  0.00  0.00    +0.000 NA
ATOM     32  C   UNL     1       6.947   4.822  14.605  0.00  0.00    +0.000 A 
ENDBRANCH  24  32
ENDBRANCH  21  24
ENDBRANCH   1  21
TORSDOF 5
ENDMDL
MODEL 6
REMARK VINA RESULT:      -9.0      2.270      3.017
REMARK  Name = 
REMARK  7 active torsions:
REMARK  status: ('A' for Active; 'I' for Inactive)
REMARK    1  A    between atoms: C_1  and  N_2
REMARK    2  A    between atoms: C_6  and  C_7
REMARK    3  A    between atoms: C_7  and  C_10
REMARK    4  A    between atoms: C_10  and  C_11
REMARK    5  A    between atoms: C_10  and  C_13
REMARK    6  A    between atoms: C_17  and  N_18
REMARK    7  A    between atoms: C_25  and  C_26
REMARK                            x       y       z     vdW  Elec       q    Type
REMARK                         _______ _______ _______ _____ _____    ______ ____
ROOT
ATOM      1  C   UNL     1       4.472   4.705  16.670  0.00  0.00    +0.000 A 
ATOM      2  C   UNL     1       3.855   3.452  16.629  0.00  0.00    +0.000 A 
ATOM      3  C   UNL     1       2.774   3.166  17.476  0.00  0.00    +0.000 A 
ATOM      4  C   UNL     1       2.263   4.133  18.355  0.00  0.00    +0.000 A 
ATOM      5  C   UNL     1       2.859   5.394  18.425  0.00  0.00    +0.000 A 
ATOM      6  C   UNL     1       3.984   5.631  17.609  0.00  0.00    +0.000 A 
ENDROOT
BRANCH   5   7
ATOM      7  N   UNL     1       2.345   6.452  19.222  0.00  0.00    +0.000 N 
ATOM      8  C   UNL     1       2.087   7.740  18.610  0.00  0.00    +0.000 C 
ATOM      9  C   UNL     1       1.490   8.556  19.692  0.00  0.00    +0.000 A 
ATOM     10  C   UNL     1       1.387   7.791  20.851  0.00  0.00    +0.000 A 
ATOM     11  C   UNL     1       0.837   8.311  22.006  0.00  0.00    +0.000 A 
ATOM     12  C   UNL     1       0.398   9.644  21.974  0.00  0.00    +0.000 A 
ATOM     13  C   UNL     1       0.507  10.418  20.801  0.00  0.00    +0.000 A 
ATOM     14  C   UNL     1       1.053   9.876  19.629  0.00  0.00    +0.000 A 
ATOM     15  C   UNL     1       1.932   6.441  20.560  0.00  0.00    +0.000 C 
ATOM     16  O   UNL     1       1.959   5.546  21.384  0.00  0.00    +0.000 OA
BRANCH  14  17
ATOM     17  C   UNL     1       1.158  10.693  18.364  0.00  0.00    +0.000 C 
ATOM     18  F   UNL     1       0.824  12.005  18.525  0.00  0.00    +0.000 F 
ATOM     19  F   UNL     1       2.418  10.699  17.850  0.00  0.00    +0.000 F 
ATOM     20  F   UNL     1       0.346  10.228  17.378  0.00  0.00    +0.000 F 
ENDBRANCH  14  17
ENDBRANCH   5   7
BRANCH   1  21
ATOM     21  C   UNL     1       5.479   5.208  15.613  0.00  0.00    +0.000 C 
ATOM     22  C   UNL     1       5.030   4.574  14.285  0.00  0.00    +0.000 C 
ATOM     23  F   UNL     1       5.333   6.575  15.432  0.00  0.00    +0.000 F 
BRANCH  21  24
ATOM     24  C   UNL     1       6.988   4.974  15.942  0.00  0.00    +0.000 C 
ATOM     25  F   UNL     1       7.776   5.703  15.100  0.00  0.00    +0.000 F 
ATOM     26  F   UNL     1       7.295   3.667  15.673  0.00  0.00    +0.000 F 
BRANCH  24  32
ATOM     27  C   UNL     1       7.416   7.865  17.285  0.00  0.00    +0.000 C 
ATOM     28  N   UNL     1       7.579   6.569  17.889  0.00  0.00    +0.000 N 
ATOM     29  C   UNL     1       7.967   6.374  19.183  0.00  0.00    +0.000 A 
ATOM     30  N   UNL     1       7.885   5.101  19.478  0.00  0.00    +0.000 NA
ATOM     31  N   UNL     1       7.455   4.448  18.356  0.00  0.00    +0.000 NA
ATOM     32  C   UNL     1       7.338   5.320  17.367  0.00  0.00    +0.000 A 
ENDBRANCH  24  32
ENDBRANCH  21  24
ENDBRANCH   1  21
TORSDOF 5
ENDMDL
MODEL 7
REMARK VINA RESULT:      -8.9      1.460      2.014
REMARK  Name = 
REMARK  7 active torsions:
REMARK  status: ('A' for Active; 'I' for Inactive)
REMARK    1  A    between atoms: C_1  and  N_2
REMARK    2  A    between atoms: C_6  and  C_7
REMARK    3  A    between atoms: C_7  and  C_10
REMARK    4  A    between atoms: C_10  and  C_11
REMARK    5  A    between atoms: C_10  and  C_13
REMARK    6  A    between atoms: C_17  and  N_18
REMARK    7  A    between atoms: C_25  and  C_26
REMARK                            x       y       z     vdW  Elec       q    Type
REMARK                         _______ _______ _______ _____ _____    ______ ____
ROOT
ATOM      1  C   UNL     1       3.322   3.968  18.724  0.00  0.00    +0.000 A 
ATOM      2  C   UNL     1       3.118   3.179  19.860  0.00  0.00    +0.000 A 
ATOM      3  C   UNL     1       2.531   3.729  21.009  0.00  0.00    +0.000 A 
ATOM      4  C   UNL     1       2.103   5.064  21.038  0.00  0.00    +0.000 A 
ATOM      5  C   UNL     1       2.296   5.882  19.923  0.00  0.00    +0.000 A 
ATOM      6  C   UNL     1       2.948   5.320  18.806  0.00  0.00    +0.000 A 
ENDROOT
BRANCH   5   7
ATOM      7  N   UNL     1       1.810   7.215  19.844  0.00  0.00    +0.000 N 
ATOM      8  C   UNL     1       1.164   7.805  20.999  0.00  0.00    +0.000 C 
ATOM      9  C   UNL     1       0.870   9.198  20.594  0.00  0.00    +0.000 A 
ATOM     10  C   UNL     1       1.331   9.414  19.298  0.00  0.00    +0.000 A 
ATOM     11  C   UNL     1       1.202  10.647  18.688  0.00  0.00    +0.000 A 
ATOM     12  C   UNL     1       0.578  11.671  19.417  0.00  0.00    +0.000 A 
ATOM     13  C   UNL     1       0.109  11.449  20.728  0.00  0.00    +0.000 A 
ATOM     14  C   UNL     1       0.257  10.198  21.344  0.00  0.00    +0.000 A 
ATOM     15  C   UNL     1       1.935   8.150  18.808  0.00  0.00    +0.000 C 
ATOM     16  O   UNL     1       2.438   8.039  17.706  0.00  0.00    +0.000 OA
BRANCH  14  17
ATOM     17  C   UNL     1      -0.227   9.957  22.753  0.00  0.00    +0.000 C 
ATOM     18  F   UNL     1      -0.848  11.033  23.314  0.00  0.00    +0.000 F 
ATOM     19  F   UNL     1      -1.127   8.938  22.828  0.00  0.00    +0.000 F 
ATOM     20  F   UNL     1       0.785   9.636  23.602  0.00  0.00    +0.000 F 
ENDBRANCH  14  17
ENDBRANCH   5   7
BRANCH   1  21
ATOM     21  C   UNL     1       3.708   3.406  17.339  0.00  0.00    +0.000 C 
ATOM     22  C   UNL     1       3.840   1.885  17.536  0.00  0.00    +0.000 C 
ATOM     23  F   UNL     1       2.656   3.568  16.452  0.00  0.00    +0.000 F 
BRANCH  21  24
ATOM     24  C   UNL     1       4.953   4.060  16.660  0.00  0.00    +0.000 C 
ATOM     25  F   UNL     1       4.559   4.991  15.742  0.00  0.00    +0.000 F 
ATOM     26  F   UNL     1       5.608   3.102  15.934  0.00  0.00    +0.000 F 
BRANCH  24  32
ATOM     27  C   UNL     1       5.767   7.158  16.957  0.00  0.00    +0.000 C 
ATOM     28  N   UNL     1       6.263   6.031  17.702  0.00  0.00    +0.000 N 
ATOM     29  C   UNL     1       7.204   6.122  18.686  0.00  0.00    +0.000 A 
ATOM     30  N   UNL     1       7.341   4.958  19.271  0.00  0.00    +0.000 NA
ATOM     31  N   UNL     1       6.491   4.086  18.649  0.00  0.00    +0.000 NA
ATOM     32  C   UNL     1       5.888   4.709  17.649  0.00  0.00    +0.000 A 
ENDBRANCH  24  32
ENDBRANCH  21  24
ENDBRANCH   1  21
TORSDOF 5
ENDMDL
MODEL 8
REMARK VINA RESULT:      -8.6      2.207      2.734
REMARK  Name = 
REMARK  7 active torsions:
REMARK  status: ('A' for Active; 'I' for Inactive)
REMARK    1  A    between atoms: C_1  and  N_2
REMARK    2  A    between atoms: C_6  and  C_7
REMARK    3  A    between atoms: C_7  and  C_10
REMARK    4  A    between atoms: C_10  and  C_11
REMARK    5  A    between atoms: C_10  and  C_13
REMARK    6  A    between atoms: C_17  and  N_18
REMARK    7  A    between atoms: C_25  and  C_26
REMARK                            x       y       z     vdW  Elec       q    Type
REMARK                         _______ _______ _______ _____ _____    ______ ____
ROOT
ATOM      1  C   UNL     1       4.314   4.686  16.907  0.00  0.00    +0.000 A 
ATOM      2  C   UNL     1       3.524   3.554  16.688  0.00  0.00    +0.000 A 
ATOM      3  C   UNL     1       2.306   3.398  17.366  0.00  0.00    +0.000 A 
ATOM      4  C   UNL     1       1.834   4.382  18.247  0.00  0.00    +0.000 A 
ATOM      5  C   UNL     1       2.600   5.522  18.493  0.00  0.00    +0.000 A 
ATOM      6  C   UNL     1       3.850   5.621  17.848  0.00  0.00    +0.000 A 
ENDROOT
BRANCH   5   7
ATOM      7  N   UNL     1       2.150   6.601  19.300  0.00  0.00    +0.000 N 
ATOM      8  C   UNL     1       1.931   7.898  18.694  0.00  0.00    +0.000 C 
ATOM      9  C   UNL     1       1.394   8.739  19.788  0.00  0.00    +0.000 A 
ATOM     10  C   UNL     1       1.287   7.979  20.950  0.00  0.00    +0.000 A 
ATOM     11  C   UNL     1       0.787   8.522  22.118  0.00  0.00    +0.000 A 
ATOM     12  C   UNL     1       0.403   9.872  22.095  0.00  0.00    +0.000 A 
ATOM     13  C   UNL     1       0.515  10.640  20.918  0.00  0.00    +0.000 A 
ATOM     14  C   UNL     1       1.011  10.076  19.734  0.00  0.00    +0.000 A 
ATOM     15  C   UNL     1       1.769   6.608  20.649  0.00  0.00    +0.000 C 
ATOM     16  O   UNL     1       1.779   5.712  21.473  0.00  0.00    +0.000 OA
BRANCH  14  17
ATOM     17  C   UNL     1       1.118  10.887  18.466  0.00  0.00    +0.000 C 
ATOM     18  F   UNL     1       2.383  10.957  17.961  0.00  0.00    +0.000 F 
ATOM     19  F   UNL     1       0.353  10.384  17.458  0.00  0.00    +0.000 F 
ATOM     20  F   UNL     1       0.722  12.176  18.639  0.00  0.00    +0.000 F 
ENDBRANCH  14  17
ENDBRANCH   5   7
BRANCH   1  21
ATOM     21  C   UNL     1       5.522   5.080  16.030  0.00  0.00    +0.000 C 
ATOM     22  C   UNL     1       5.363   4.275  14.727  0.00  0.00    +0.000 C 
ATOM     23  F   UNL     1       5.419   6.409  15.650  0.00  0.00    +0.000 F 
BRANCH  21  24
ATOM     24  C   UNL     1       6.928   4.927  16.694  0.00  0.00    +0.000 C 
ATOM     25  F   UNL     1       7.824   4.421  15.797  0.00  0.00    +0.000 F 
ATOM     26  F   UNL     1       6.843   3.983  17.682  0.00  0.00    +0.000 F 
BRANCH  24  32
ATOM     27  C   UNL     1       7.940   5.613  19.669  0.00  0.00    +0.000 C 
ATOM     28  N   UNL     1       7.822   6.499  18.541  0.00  0.00    +0.000 N 
ATOM     29  C   UNL     1       8.132   7.828  18.579  0.00  0.00    +0.000 A 
ATOM     30  N   UNL     1       8.061   8.330  17.372  0.00  0.00    +0.000 NA
ATOM     31  N   UNL     1       7.680   7.321  16.531  0.00  0.00    +0.000 NA
ATOM     32  C   UNL     1       7.461   6.225  17.243  0.00  0.00    +0.000 A 
ENDBRANCH  24  32
ENDBRANCH  21  24
ENDBRANCH   1  21
TORSDOF 5
ENDMDL
MODEL 9
REMARK VINA RESULT:      -8.5      1.545      2.220
REMARK  Name = 
REMARK  7 active torsions:
REMARK  status: ('A' for Active; 'I' for Inactive)
REMARK    1  A    between atoms: C_1  and  N_2
REMARK    2  A    between atoms: C_6  and  C_7
REMARK    3  A    between atoms: C_7  and  C_10
REMARK    4  A    between atoms: C_10  and  C_11
REMARK    5  A    between atoms: C_10  and  C_13
REMARK    6  A    between atoms: C_17  and  N_18
REMARK    7  A    between atoms: C_25  and  C_26
REMARK                            x       y       z     vdW  Elec       q    Type
REMARK                         _______ _______ _______ _____ _____    ______ ____
ROOT
ATOM      1  C   UNL     1       2.992   5.347  18.924  0.00  0.00    +0.000 A 
ATOM      2  C   UNL     1       2.558   4.592  20.018  0.00  0.00    +0.000 A 
ATOM      3  C   UNL     1       1.799   5.190  21.035  0.00  0.00    +0.000 A 
ATOM      4  C   UNL     1       1.427   6.540  20.966  0.00  0.00    +0.000 A 
ATOM      5  C   UNL     1       1.847   7.324  19.890  0.00  0.00    +0.000 A 
ATOM      6  C   UNL     1       2.664   6.713  18.916  0.00  0.00    +0.000 A 
ENDROOT
BRANCH   5   7
ATOM      7  N   UNL     1       1.437   8.672  19.705  0.00  0.00    +0.000 N 
ATOM      8  C   UNL     1       0.729   9.351  20.770  0.00  0.00    +0.000 C 
ATOM      9  C   UNL     1       0.540  10.734  20.274  0.00  0.00    +0.000 A 
ATOM     10  C   UNL     1       1.117  10.859  19.013  0.00  0.00    +0.000 A 
ATOM     11  C   UNL     1       1.101  12.062  18.334  0.00  0.00    +0.000 A 
ATOM     12  C   UNL     1       0.471  13.151  18.956  0.00  0.00    +0.000 A 
ATOM     13  C   UNL     1      -0.115  13.021  20.231  0.00  0.00    +0.000 A 
ATOM     14  C   UNL     1      -0.082  11.799  20.919  0.00  0.00    +0.000 A 
ATOM     15  C   UNL     1       1.695   9.544  18.638  0.00  0.00    +0.000 C 
ATOM     16  O   UNL     1       2.281   9.352  17.590  0.00  0.00    +0.000 OA
BRANCH  14  17
ATOM     17  C   UNL     1      -0.692  11.656  22.291  0.00  0.00    +0.000 C 
ATOM     18  F   UNL     1      -0.609  12.784  23.053  0.00  0.00    +0.000 F 
ATOM     19  F   UNL     1      -2.018  11.348  22.243  0.00  0.00    +0.000 F 
ATOM     20  F   UNL     1      -0.100  10.676  23.023  0.00  0.00    +0.000 F 
ENDBRANCH  14  17
ENDBRANCH   5   7
BRANCH   1  21
ATOM     21  C   UNL     1       3.594   4.739  17.639  0.00  0.00    +0.000 C 
ATOM     22  C   UNL     1       2.457   3.925  16.998  0.00  0.00    +0.000 C 
ATOM     23  F   UNL     1       3.879   5.745  16.728  0.00  0.00    +0.000 F 
BRANCH  21  24
ATOM     24  C   UNL     1       4.919   3.931  17.821  0.00  0.00    +0.000 C 
ATOM     25  F   UNL     1       5.358   3.463  16.616  0.00  0.00    +0.000 F 
ATOM     26  F   UNL     1       4.649   2.811  18.560  0.00  0.00    +0.000 F 
BRANCH  24  32
ATOM     27  C   UNL     1       6.972   6.008  16.471  0.00  0.00    +0.000 C 
ATOM     28  N   UNL     1       6.919   5.570  17.841  0.00  0.00    +0.000 N 
ATOM     29  C   UNL     1       7.783   5.990  18.810  0.00  0.00    +0.000 A 
ATOM     30  N   UNL     1       7.394   5.532  19.973  0.00  0.00    +0.000 NA
ATOM     31  N   UNL     1       6.268   4.785  19.763  0.00  0.00    +0.000 NA
ATOM     32  C   UNL     1       6.016   4.741  18.464  0.00  0.00    +0.000 A 
ENDBRANCH  24  32
ENDBRANCH  21  24
ENDBRANCH   1  21
TORSDOF 5
ENDMDL
