MODEL 1
REMARK VINA RESULT:      -8.1      0.000      0.000
REMARK  Name = 
REMARK  13 active torsions:
REMARK  status: ('A' for Active; 'I' for Inactive)
REMARK    1  A    between atoms: C_1  and  C_2
REMARK    2  A    between atoms: C_2  and  S_3
REMARK    3  A    between atoms: C_2  and  C_10
REMARK    4  A    between atoms: S_3  and  C_4
REMARK    5  A    between atoms: N_8  and  C_9
REMARK    6  A    between atoms: C_14  and  N_15
REMARK    7  A    between atoms: C_16  and  C_18
REMARK    8  A    between atoms: C_22  and  O_23
REMARK    9  A    between atoms: O_23  and  C_24
REMARK   10  A    between atoms: C_24  and  C_25
REMARK   11  A    between atoms: N_27  and  C_28
REMARK   12  A    between atoms: C_28  and  C_29
REMARK   13  A    between atoms: C_29  and  N_30
REMARK                            x       y       z     vdW  Elec       q    Type
REMARK                         _______ _______ _______ _____ _____    ______ ____
ROOT
ATOM      1  C   UNL     1       1.521   8.563  19.966  0.00  0.00    +0.000 A 
ATOM      2  C   UNL     1       0.940   9.701  19.436  0.00  0.00    +0.000 A 
ATOM      3  C   UNL     1       0.124  10.465  20.250  0.00  0.00    +0.000 A 
ATOM      4  C   UNL     1      -0.715  11.403  19.665  0.00  0.00    +0.000 A 
ATOM      5  C   UNL     1      -1.599  12.147  20.436  0.00  0.00    +0.000 A 
ATOM      6  C   UNL     1      -1.530  12.078  21.823  0.00  0.00    +0.000 A 
ATOM      7  C   UNL     1      -0.688  11.121  22.424  0.00  0.00    +0.000 A 
ATOM      8  C   UNL     1       0.075  10.230  21.629  0.00  0.00    +0.000 A 
ATOM      9  C   UNL     1       0.756   9.081  22.077  0.00  0.00    +0.000 A 
ATOM     10  N   UNL     1       1.427   8.201  21.273  0.00  0.00    +0.000 NA
ENDROOT
BRANCH   1  12
ATOM     11  N   UNL     1       2.643   6.449  19.450  0.00  0.00    +0.000 N 
ATOM     12  C   UNL     1       2.185   7.665  18.975  0.00  0.00    +0.000 C 
ATOM     13  O   UNL     1       2.269   8.060  17.821  0.00  0.00    +0.000 OA
ATOM     14  H   UNL     1       2.618   6.320  20.455  0.00  0.00    +0.000 HD
BRANCH  11  19
ATOM     15  C   UNL     1       4.656   4.879  16.739  0.00  0.00    +0.000 A 
ATOM     16  C   UNL     1       4.386   3.518  16.963  0.00  0.00    +0.000 A 
ATOM     17  C   UNL     1       3.530   3.117  17.977  0.00  0.00    +0.000 A 
ATOM     18  C   UNL     1       2.943   4.074  18.806  0.00  0.00    +0.000 A 
ATOM     19  C   UNL     1       3.216   5.436  18.642  0.00  0.00    +0.000 A 
ATOM     20  C   UNL     1       4.092   5.825  17.619  0.00  0.00    +0.000 A 
BRANCH  15  22
ATOM     21  C   UNL     1       5.135   4.461  14.270  0.00  0.00    +0.000 C 
ATOM     22  C   UNL     1       5.493   5.266  15.529  0.00  0.00    +0.000 C 
BRANCH  22  23
ATOM     23  S   UNL     1       7.284   4.989  15.788  0.00  0.00    +0.000 S 
BRANCH  23  24
ATOM     24  C   UNL     1       7.545   5.302  17.465  0.00  0.00    +0.000 A 
ATOM     25  N   UNL     1       7.641   4.443  18.454  0.00  0.00    +0.000 NA
ATOM     26  N   UNL     1       7.909   5.157  19.605  0.00  0.00    +0.000 NA
ATOM     27  C   UNL     1       7.925   6.431  19.286  0.00  0.00    +0.000 A 
ATOM     28  N   UNL     1       7.652   6.570  17.958  0.00  0.00    +0.000 N 
ATOM     29  C   UNL     1       7.476   7.811  17.252  0.00  0.00    +0.000 C 
ENDBRANCH  23  24
ENDBRANCH  22  23
ENDBRANCH  15  22
ENDBRANCH  11  19
ENDBRANCH   1  12
BRANCH   5  30
ATOM     30  O   UNL     1      -2.509  12.802  19.673  0.00  0.00    +0.000 OA
BRANCH  30  31
ATOM     31  C   UNL     1      -3.855  12.357  19.654  0.00  0.00    +0.000 C 
BRANCH  31  32
ATOM     32  C   UNL     1      -3.933  11.389  18.472  0.00  0.00    +0.000 C 
ATOM     33  O   UNL     1      -3.913  10.172  18.622  0.00  0.00    +0.000 OA
ATOM     34  N   UNL     1      -3.993  12.002  17.233  0.00  0.00    +0.000 N 
ATOM     35  H   UNL     1      -4.168  13.002  17.212  0.00  0.00    +0.000 HD
BRANCH  34  36
ATOM     36  C   UNL     1      -4.240  11.257  16.011  0.00  0.00    +0.000 C 
BRANCH  36  37
ATOM     37  C   UNL     1      -2.939  10.860  15.295  0.00  0.00    +0.000 C 
BRANCH  37  38
ATOM     38  N   UNL     1      -2.141   9.916  16.088  0.00  0.00    +0.000 NA
ATOM     39  H   UNL     1      -1.171  10.230  16.092  0.00  0.00    +0.000 HD
ATOM     40  H   UNL     1      -2.138   9.011  15.617  0.00  0.00    +0.000 HD
ENDBRANCH  37  38
ENDBRANCH  36  37
ENDBRANCH  34  36
ENDBRANCH  31  32
ENDBRANCH  30  31
ENDBRANCH   5  30
TORSDOF 11
ENDMDL
MODEL 2
REMARK VINA RESULT:      -8.0      3.433     10.170
REMARK  Name = 
REMARK  13 active torsions:
REMARK  status: ('A' for Active; 'I' for Inactive)
REMARK    1  A    between atoms: C_1  and  C_2
REMARK    2  A    between atoms: C_2  and  S_3
REMARK    3  A    between atoms: C_2  and  C_10
REMARK    4  A    between atoms: S_3  and  C_4
REMARK    5  A    between atoms: N_8  and  C_9
REMARK    6  A    between atoms: C_14  and  N_15
REMARK    7  A    between atoms: C_16  and  C_18
REMARK    8  A    between atoms: C_22  and  O_23
REMARK    9  A    between atoms: O_23  and  C_24
REMARK   10  A    between atoms: C_24  and  C_25
REMARK   11  A    between atoms: N_27  and  C_28
REMARK   12  A    between atoms: C_28  and  C_29
REMARK   13  A    between atoms: C_29  and  N_30
REMARK                            x       y       z     vdW  Elec       q    Type
REMARK                         _______ _______ _______ _____ _____    ______ ____
ROOT
ATOM      1  C   UNL     1       2.033   7.097  19.580  0.00  0.00    +0.000 A 
ATOM      2  C   UNL     1       2.629   6.749  18.381  0.00  0.00    +0.000 A 
ATOM      3  C   UNL     1       3.097   5.456  18.228  0.00  0.00    +0.000 A 
ATOM      4  C   UNL     1       3.973   5.181  17.188  0.00  0.00    +0.000 A 
ATOM      5  C   UNL     1       4.521   3.913  17.036  0.00  0.00    +0.000 A 
ATOM      6  C   UNL     1       4.062   2.865  17.825  0.00  0.00    +0.000 A 
ATOM      7  C   UNL     1       3.180   3.139  18.889  0.00  0.00    +0.000 A 
ATOM      8  C   UNL     1       2.769   4.467  19.162  0.00  0.00    +0.000 A 
ATOM      9  C   UNL     1       2.104   4.916  20.320  0.00  0.00    +0.000 A 
ATOM     10  N   UNL     1       1.782   6.219  20.586  0.00  0.00    +0.000 NA
ENDROOT
BRANCH   1  12
ATOM     11  N   UNL     1       1.813   9.340  18.624  0.00  0.00    +0.000 N 
ATOM     12  C   UNL     1       1.774   8.555  19.763  0.00  0.00    +0.000 C 
ATOM     13  O   UNL     1       1.536   8.951  20.895  0.00  0.00    +0.000 OA
ATOM     14  H   UNL     1       2.150   8.892  17.780  0.00  0.00    +0.000 HD
BRANCH  11  19
ATOM     15  C   UNL     1      -0.186  12.470  18.890  0.00  0.00    +0.000 A 
ATOM     16  C   UNL     1       0.776  13.430  18.532  0.00  0.00    +0.000 A 
ATOM     17  C   UNL     1       2.063  13.055  18.179  0.00  0.00    +0.000 A 
ATOM     18  C   UNL     1       2.421  11.706  18.202  0.00  0.00    +0.000 A 
ATOM     19  C   UNL     1       1.505  10.723  18.590  0.00  0.00    +0.000 A 
ATOM     20  C   UNL     1       0.211  11.118  18.954  0.00  0.00    +0.000 A 
BRANCH  15  22
ATOM     21  C   UNL     1      -1.814  13.564  20.519  0.00  0.00    +0.000 C 
ATOM     22  C   UNL     1      -1.617  12.927  19.134  0.00  0.00    +0.000 C 
BRANCH  22  23
ATOM     23  S   UNL     1      -2.823  11.552  19.057  0.00  0.00    +0.000 S 
BRANCH  23  24
ATOM     24  C   UNL     1      -3.015  11.220  17.375  0.00  0.00    +0.000 A 
ATOM     25  N   UNL     1      -2.114  10.811  16.512  0.00  0.00    +0.000 NA
ATOM     26  N   UNL     1      -2.748  10.627  15.299  0.00  0.00    +0.000 NA
ATOM     27  C   UNL     1      -4.005  10.973  15.453  0.00  0.00    +0.000 A 
ATOM     28  N   UNL     1      -4.206  11.398  16.732  0.00  0.00    +0.000 N 
ATOM     29  C   UNL     1      -5.421  11.956  17.261  0.00  0.00    +0.000 C 
ENDBRANCH  23  24
ENDBRANCH  22  23
ENDBRANCH  15  22
ENDBRANCH  11  19
ENDBRANCH   1  12
BRANCH   5  30
ATOM     30  O   UNL     1       5.544   3.908  16.145  0.00  0.00    +0.000 OA
BRANCH  30  31
ATOM     31  C   UNL     1       6.144   5.134  15.762  0.00  0.00    +0.000 C 
BRANCH  31  32
ATOM     32  C   UNL     1       6.765   4.858  14.392  0.00  0.00    +0.000 C 
ATOM     33  O   UNL     1       7.782   5.427  14.010  0.00  0.00    +0.000 OA
ATOM     34  N   UNL     1       6.068   3.947  13.619  0.00  0.00    +0.000 N 
ATOM     35  H   UNL     1       5.336   3.409  14.074  0.00  0.00    +0.000 HD
BRANCH  34  36
ATOM     36  C   UNL     1       6.590   3.433  12.366  0.00  0.00    +0.000 C 
BRANCH  36  37
ATOM     37  C   UNL     1       5.562   2.572  11.613  0.00  0.00    +0.000 C 
BRANCH  37  38
ATOM     38  N   UNL     1       4.230   3.190  11.600  0.00  0.00    +0.000 NA
ATOM     39  H   UNL     1       4.325   4.168  11.328  0.00  0.00    +0.000 HD
ATOM     40  H   UNL     1       3.864   3.202  12.553  0.00  0.00    +0.000 HD
ENDBRANCH  37  38
ENDBRANCH  36  37
ENDBRANCH  34  36
ENDBRANCH  31  32
ENDBRANCH  30  31
ENDBRANCH   5  30
TORSDOF 11
ENDMDL
MODEL 3
REMARK VINA RESULT:      -8.0      3.251      4.441
REMARK  Name = 
REMARK  13 active torsions:
REMARK  status: ('A' for Active; 'I' for Inactive)
REMARK    1  A    between atoms: C_1  and  C_2
REMARK    2  A    between atoms: C_2  and  S_3
REMARK    3  A    between atoms: C_2  and  C_10
REMARK    4  A    between atoms: S_3  and  C_4
REMARK    5  A    between atoms: N_8  and  C_9
REMARK    6  A    between atoms: C_14  and  N_15
REMARK    7  A    between atoms: C_16  and  C_18
REMARK    8  A    between atoms: C_22  and  O_23
REMARK    9  A    between atoms: O_23  and  C_24
REMARK   10  A    between atoms: C_24  and  C_25
REMARK   11  A    between atoms: N_27  and  C_28
REMARK   12  A    between atoms: C_28  and  C_29
REMARK   13  A    between atoms: C_29  and  N_30
REMARK                            x       y       z     vdW  Elec       q    Type
REMARK                         _______ _______ _______ _____ _____    ______ ____
ROOT
ATOM      1  C   UNL     1       0.122  10.363  21.070  0.00  0.00    +0.000 A 
ATOM      2  C   UNL     1      -0.663  11.421  20.649  0.00  0.00    +0.000 A 
ATOM      3  C   UNL     1      -1.688  11.851  21.473  0.00  0.00    +0.000 A 
ATOM      4  C   UNL     1      -2.673  12.671  20.942  0.00  0.00    +0.000 A 
ATOM      5  C   UNL     1      -3.757  13.073  21.713  0.00  0.00    +0.000 A 
ATOM      6  C   UNL     1      -3.774  12.795  23.074  0.00  0.00    +0.000 A 
ATOM      7  C   UNL     1      -2.782  11.955  23.619  0.00  0.00    +0.000 A 
ATOM      8  C   UNL     1      -1.782  11.389  22.791  0.00  0.00    +0.000 A 
ATOM      9  C   UNL     1      -0.892  10.354  23.140  0.00  0.00    +0.000 A 
ATOM     10  N   UNL     1       0.018   9.781  22.295  0.00  0.00    +0.000 NA
ENDROOT
BRANCH   1  12
ATOM     11  N   UNL     1       1.455   8.494  20.220  0.00  0.00    +0.000 N 
ATOM     12  C   UNL     1       1.042   9.801  20.038  0.00  0.00    +0.000 C 
ATOM     13  O   UNL     1       1.358  10.527  19.106  0.00  0.00    +0.000 OA
ATOM     14  H   UNL     1       1.214   8.065  21.107  0.00  0.00    +0.000 HD
BRANCH  11  19
ATOM     15  C   UNL     1       3.911   5.997  18.957  0.00  0.00    +0.000 A 
ATOM     16  C   UNL     1       3.893   6.281  17.580  0.00  0.00    +0.000 A 
ATOM     17  C   UNL     1       3.104   7.300  17.071  0.00  0.00    +0.000 A 
ATOM     18  C   UNL     1       2.294   8.043  17.932  0.00  0.00    +0.000 A 
ATOM     19  C   UNL     1       2.253   7.767  19.302  0.00  0.00    +0.000 A 
ATOM     20  C   UNL     1       3.049   6.727  19.801  0.00  0.00    +0.000 A 
BRANCH  15  22
ATOM     21  C   UNL     1       6.284   5.074  18.821  0.00  0.00    +0.000 C 
ATOM     22  C   UNL     1       4.898   4.961  19.475  0.00  0.00    +0.000 C 
BRANCH  22  23
ATOM     23  S   UNL     1       4.351   3.242  19.158  0.00  0.00    +0.000 S 
BRANCH  23  24
ATOM     24  C   UNL     1       3.067   2.970  20.277  0.00  0.00    +0.000 A 
ATOM     25  N   UNL     1       3.135   2.539  21.515  0.00  0.00    +0.000 NA
ATOM     26  N   UNL     1       1.854   2.538  22.031  0.00  0.00    +0.000 NA
ATOM     27  C   UNL     1       1.042   2.926  21.075  0.00  0.00    +0.000 A 
ATOM     28  N   UNL     1       1.758   3.162  19.939  0.00  0.00    +0.000 N 
ATOM     29  C   UNL     1       1.218   3.500  18.650  0.00  0.00    +0.000 C 
ENDBRANCH  23  24
ENDBRANCH  22  23
ENDBRANCH  15  22
ENDBRANCH  11  19
ENDBRANCH   1  12
BRANCH   5  30
ATOM     30  O   UNL     1      -4.734  13.634  20.959  0.00  0.00    +0.000 OA
BRANCH  30  31
ATOM     31  C   UNL     1      -5.942  14.049  21.576  0.00  0.00    +0.000 C 
BRANCH  31  32
ATOM     32  C   UNL     1      -7.017  13.129  20.996  0.00  0.00    +0.000 C 
ATOM     33  O   UNL     1      -7.916  13.549  20.276  0.00  0.00    +0.000 OA
ATOM     34  N   UNL     1      -6.905  11.804  21.379  0.00  0.00    +0.000 N 
ATOM     35  H   UNL     1      -6.046  11.520  21.839  0.00  0.00    +0.000 HD
BRANCH  34  36
ATOM     36  C   UNL     1      -7.728  10.757  20.800  0.00  0.00    +0.000 C 
BRANCH  36  37
ATOM     37  C   UNL     1      -6.956   9.903  19.781  0.00  0.00    +0.000 C 
BRANCH  37  38
ATOM     38  N   UNL     1      -7.708   8.705  19.385  0.00  0.00    +0.000 NA
ATOM     39  H   UNL     1      -7.222   8.254  18.611  0.00  0.00    +0.000 HD
ATOM     40  H   UNL     1      -8.614   8.993  19.013  0.00  0.00    +0.000 HD
ENDBRANCH  37  38
ENDBRANCH  36  37
ENDBRANCH  34  36
ENDBRANCH  31  32
ENDBRANCH  30  31
ENDBRANCH   5  30
TORSDOF 11
ENDMDL
MODEL 4
REMARK VINA RESULT:      -7.9      4.236     10.320
REMARK  Name = 
REMARK  13 active torsions:
REMARK  status: ('A' for Active; 'I' for Inactive)
REMARK    1  A    between atoms: C_1  and  C_2
REMARK    2  A    between atoms: C_2  and  S_3
REMARK    3  A    between atoms: C_2  and  C_10
REMARK    4  A    between atoms: S_3  and  C_4
REMARK    5  A    between atoms: N_8  and  C_9
REMARK    6  A    between atoms: C_14  and  N_15
REMARK    7  A    between atoms: C_16  and  C_18
REMARK    8  A    between atoms: C_22  and  O_23
REMARK    9  A    between atoms: O_23  and  C_24
REMARK   10  A    between atoms: C_24  and  C_25
REMARK   11  A    between atoms: N_27  and  C_28
REMARK   12  A    between atoms: C_28  and  C_29
REMARK   13  A    between atoms: C_29  and  N_30
REMARK                            x       y       z     vdW  Elec       q    Type
REMARK                         _______ _______ _______ _____ _____    ______ ____
ROOT
ATOM      1  C   UNL     1       1.953   7.051  19.680  0.00  0.00    +0.000 A 
ATOM      2  C   UNL     1       2.291   6.697  18.387  0.00  0.00    +0.000 A 
ATOM      3  C   UNL     1       2.944   5.495  18.181  0.00  0.00    +0.000 A 
ATOM      4  C   UNL     1       3.573   5.275  16.964  0.00  0.00    +0.000 A 
ATOM      5  C   UNL     1       4.297   4.112  16.737  0.00  0.00    +0.000 A 
ATOM      6  C   UNL     1       4.253   3.081  17.668  0.00  0.00    +0.000 A 
ATOM      7  C   UNL     1       3.624   3.299  18.909  0.00  0.00    +0.000 A 
ATOM      8  C   UNL     1       3.049   4.557  19.215  0.00  0.00    +0.000 A 
ATOM      9  C   UNL     1       2.615   4.995  20.482  0.00  0.00    +0.000 A 
ATOM     10  N   UNL     1       2.128   6.242  20.759  0.00  0.00    +0.000 NA
ENDROOT
BRANCH   1  12
ATOM     11  N   UNL     1       1.229   9.173  18.697  0.00  0.00    +0.000 N 
ATOM     12  C   UNL     1       1.475   8.454  19.853  0.00  0.00    +0.000 C 
ATOM     13  O   UNL     1       1.326   8.865  20.995  0.00  0.00    +0.000 OA
ATOM     14  H   UNL     1       1.522   8.741  17.828  0.00  0.00    +0.000 HD
BRANCH  11  19
ATOM     15  C   UNL     1       1.100  12.892  18.823  0.00  0.00    +0.000 A 
ATOM     16  C   UNL     1      -0.276  13.116  18.642  0.00  0.00    +0.000 A 
ATOM     17  C   UNL     1      -1.160  12.057  18.506  0.00  0.00    +0.000 A 
ATOM     18  C   UNL     1      -0.678  10.747  18.525  0.00  0.00    +0.000 A 
ATOM     19  C   UNL     1       0.688  10.482  18.664  0.00  0.00    +0.000 A 
ATOM     20  C   UNL     1       1.571  11.563  18.790  0.00  0.00    +0.000 A 
BRANCH  15  22
ATOM     21  C   UNL     1       2.984  13.836  20.258  0.00  0.00    +0.000 C 
ATOM     22  C   UNL     1       2.002  14.085  19.103  0.00  0.00    +0.000 C 
BRANCH  22  23
ATOM     23  S   UNL     1       1.066  15.586  19.576  0.00  0.00    +0.000 S 
BRANCH  23  24
ATOM     24  C   UNL     1       1.415  16.738  18.341  0.00  0.00    +0.000 A 
ATOM     25  N   UNL     1       2.575  17.038  17.804  0.00  0.00    +0.000 NA
ATOM     26  N   UNL     1       2.350  17.975  16.814  0.00  0.00    +0.000 NA
ATOM     27  C   UNL     1       1.065  18.246  16.811  0.00  0.00    +0.000 A 
ATOM     28  N   UNL     1       0.446  17.525  17.788  0.00  0.00    +0.000 N 
ATOM     29  C   UNL     1      -0.937  17.623  18.170  0.00  0.00    +0.000 C 
ENDBRANCH  23  24
ENDBRANCH  22  23
ENDBRANCH  15  22
ENDBRANCH  11  19
ENDBRANCH   1  12
BRANCH   5  30
ATOM     30  O   UNL     1       5.051   4.196  15.613  0.00  0.00    +0.000 OA
BRANCH  30  31
ATOM     31  C   UNL     1       6.387   3.720  15.631  0.00  0.00    +0.000 C 
BRANCH  31  32
ATOM     32  C   UNL     1       7.182   4.802  16.362  0.00  0.00    +0.000 C 
ATOM     33  O   UNL     1       7.395   5.903  15.867  0.00  0.00    +0.000 OA
ATOM     34  N   UNL     1       7.663   4.420  17.602  0.00  0.00    +0.000 N 
ATOM     35  H   UNL     1       7.304   3.557  17.998  0.00  0.00    +0.000 HD
BRANCH  34  36
ATOM     36  C   UNL     1       8.292   5.360  18.512  0.00  0.00    +0.000 C 
BRANCH  36  37
ATOM     37  C   UNL     1       7.455   5.596  19.780  0.00  0.00    +0.000 C 
BRANCH  37  38
ATOM     38  N   UNL     1       8.187   5.230  20.999  0.00  0.00    +0.000 NA
ATOM     39  H   UNL     1       7.938   5.883  21.741  0.00  0.00    +0.000 HD
ATOM     40  H   UNL     1       9.186   5.363  20.836  0.00  0.00    +0.000 HD
ENDBRANCH  37  38
ENDBRANCH  36  37
ENDBRANCH  34  36
ENDBRANCH  31  32
ENDBRANCH  30  31
ENDBRANCH   5  30
TORSDOF 11
ENDMDL
MODEL 5
REMARK VINA RESULT:      -7.8      4.525     10.216
REMARK  Name = 
REMARK  13 active torsions:
REMARK  status: ('A' for Active; 'I' for Inactive)
REMARK    1  A    between atoms: C_1  and  C_2
REMARK    2  A    between atoms: C_2  and  S_3
REMARK    3  A    between atoms: C_2  and  C_10
REMARK    4  A    between atoms: S_3  and  C_4
REMARK    5  A    between atoms: N_8  and  C_9
REMARK    6  A    between atoms: C_14  and  N_15
REMARK    7  A    between atoms: C_16  and  C_18
REMARK    8  A    between atoms: C_22  and  O_23
REMARK    9  A    between atoms: O_23  and  C_24
REMARK   10  A    between atoms: C_24  and  C_25
REMARK   11  A    between atoms: N_27  and  C_28
REMARK   12  A    between atoms: C_28  and  C_29
REMARK   13  A    between atoms: C_29  and  N_30
REMARK                            x       y       z     vdW  Elec       q    Type
REMARK                         _______ _______ _______ _____ _____    ______ ____
ROOT
ATOM      1  C   UNL     1       1.822   6.860  20.152  0.00  0.00    +0.000 A 
ATOM      2  C   UNL     1       2.546   6.781  18.976  0.00  0.00    +0.000 A 
ATOM      3  C   UNL     1       3.052   5.552  18.594  0.00  0.00    +0.000 A 
ATOM      4  C   UNL     1       4.037   5.507  17.618  0.00  0.00    +0.000 A 
ATOM      5  C   UNL     1       4.622   4.302  17.250  0.00  0.00    +0.000 A 
ATOM      6  C   UNL     1       4.103   3.109  17.737  0.00  0.00    +0.000 A 
ATOM      7  C   UNL     1       3.109   3.145  18.735  0.00  0.00    +0.000 A 
ATOM      8  C   UNL     1       2.647   4.382  19.248  0.00  0.00    +0.000 A 
ATOM      9  C   UNL     1       1.856   4.569  20.399  0.00  0.00    +0.000 A 
ATOM     10  N   UNL     1       1.483   5.783  20.909  0.00  0.00    +0.000 NA
ENDROOT
BRANCH   1  12
ATOM     11  N   UNL     1       1.181   9.169  19.649  0.00  0.00    +0.000 N 
ATOM     12  C   UNL     1       1.517   8.244  20.621  0.00  0.00    +0.000 C 
ATOM     13  O   UNL     1       1.577   8.460  21.823  0.00  0.00    +0.000 OA
ATOM     14  H   UNL     1       1.301   8.874  18.686  0.00  0.00    +0.000 HD
BRANCH  11  19
ATOM     15  C   UNL     1       1.002  12.877  19.360  0.00  0.00    +0.000 A 
ATOM     16  C   UNL     1       0.065  13.176  20.364  0.00  0.00    +0.000 A 
ATOM     17  C   UNL     1      -0.485  12.175  21.149  0.00  0.00    +0.000 A 
ATOM     18  C   UNL     1      -0.124  10.845  20.927  0.00  0.00    +0.000 A 
ATOM     19  C   UNL     1       0.775  10.500  19.913  0.00  0.00    +0.000 A 
ATOM     20  C   UNL     1       1.315  11.522  19.120  0.00  0.00    +0.000 A 
BRANCH  15  22
ATOM     21  C   UNL     1       3.161  13.769  18.340  0.00  0.00    +0.000 C 
ATOM     22  C   UNL     1       1.673  14.027  18.622  0.00  0.00    +0.000 C 
BRANCH  22  23
ATOM     23  S   UNL     1       1.622  15.597  19.563  0.00  0.00    +0.000 S 
BRANCH  23  24
ATOM     24  C   UNL     1       1.448  16.828  18.366  0.00  0.00    +0.000 A 
ATOM     25  N   UNL     1       2.377  17.392  17.629  0.00  0.00    +0.000 NA
ATOM     26  N   UNL     1       1.753  18.278  16.774  0.00  0.00    +0.000 NA
ATOM     27  C   UNL     1       0.468  18.257  17.049  0.00  0.00    +0.000 A 
ATOM     28  N   UNL     1       0.239  17.392  18.077  0.00  0.00    +0.000 N 
ATOM     29  C   UNL     1      -1.020  17.171  18.736  0.00  0.00    +0.000 C 
ENDBRANCH  23  24
ENDBRANCH  22  23
ENDBRANCH  15  22
ENDBRANCH  11  19
ENDBRANCH   1  12
BRANCH   5  30
ATOM     30  O   UNL     1       5.732   4.488  16.494  0.00  0.00    +0.000 OA
BRANCH  30  31
ATOM     31  C   UNL     1       5.751   5.520  15.522  0.00  0.00    +0.000 C 
BRANCH  31  32
ATOM     32  C   UNL     1       6.533   4.939  14.344  0.00  0.00    +0.000 C 
ATOM     33  O   UNL     1       7.684   5.278  14.092  0.00  0.00    +0.000 OA
ATOM     34  N   UNL     1       5.822   4.033  13.576  0.00  0.00    +0.000 N 
ATOM     35  H   UNL     1       4.942   3.692  13.948  0.00  0.00    +0.000 HD
BRANCH  34  36
ATOM     36  C   UNL     1       6.446   3.252  12.522  0.00  0.00    +0.000 C 
BRANCH  36  37
ATOM     37  C   UNL     1       5.413   2.560  11.618  0.00  0.00    +0.000 C 
BRANCH  37  38
ATOM     38  N   UNL     1       4.184   3.351  11.480  0.00  0.00    +0.000 NA
ATOM     39  H   UNL     1       4.108   3.674  10.516  0.00  0.00    +0.000 HD
ATOM     40  H   UNL     1       4.270   4.195  12.048  0.00  0.00    +0.000 HD
ENDBRANCH  37  38
ENDBRANCH  36  37
ENDBRANCH  34  36
ENDBRANCH  31  32
ENDBRANCH  30  31
ENDBRANCH   5  30
TORSDOF 11
ENDMDL
MODEL 6
REMARK VINA RESULT:      -7.8      4.525      9.470
REMARK  Name = 
REMARK  13 active torsions:
REMARK  status: ('A' for Active; 'I' for Inactive)
REMARK    1  A    between atoms: C_1  and  C_2
REMARK    2  A    between atoms: C_2  and  S_3
REMARK    3  A    between atoms: C_2  and  C_10
REMARK    4  A    between atoms: S_3  and  C_4
REMARK    5  A    between atoms: N_8  and  C_9
REMARK    6  A    between atoms: C_14  and  N_15
REMARK    7  A    between atoms: C_16  and  C_18
REMARK    8  A    between atoms: C_22  and  O_23
REMARK    9  A    between atoms: O_23  and  C_24
REMARK   10  A    between atoms: C_24  and  C_25
REMARK   11  A    between atoms: N_27  and  C_28
REMARK   12  A    between atoms: C_28  and  C_29
REMARK   13  A    between atoms: C_29  and  N_30
REMARK                            x       y       z     vdW  Elec       q    Type
REMARK                         _______ _______ _______ _____ _____    ______ ____
ROOT
ATOM      1  C   UNL     1       1.842   8.386  19.031  0.00  0.00    +0.000 A 
ATOM      2  C   UNL     1       2.460   7.549  18.120  0.00  0.00    +0.000 A 
ATOM      3  C   UNL     1       2.899   6.311  18.553  0.00  0.00    +0.000 A 
ATOM      4  C   UNL     1       3.795   5.605  17.763  0.00  0.00    +0.000 A 
ATOM      5  C   UNL     1       4.315   4.389  18.188  0.00  0.00    +0.000 A 
ATOM      6  C   UNL     1       3.809   3.788  19.334  0.00  0.00    +0.000 A 
ATOM      7  C   UNL     1       2.907   4.502  20.147  0.00  0.00    +0.000 A 
ATOM      8  C   UNL     1       2.522   5.823  19.809  0.00  0.00    +0.000 A 
ATOM      9  C   UNL     1       1.838   6.734  20.638  0.00  0.00    +0.000 A 
ATOM     10  N   UNL     1       1.542   8.028  20.308  0.00  0.00    +0.000 NA
ENDROOT
BRANCH   1  12
ATOM     11  N   UNL     1       1.042  10.658  19.468  0.00  0.00    +0.000 N 
ATOM     12  C   UNL     1       1.614   9.784  18.561  0.00  0.00    +0.000 C 
ATOM     13  O   UNL     1       1.954  10.060  17.420  0.00  0.00    +0.000 OA
ATOM     14  H   UNL     1       0.696  10.250  20.330  0.00  0.00    +0.000 HD
BRANCH  11  19
ATOM     15  C   UNL     1       1.832  14.229  18.771  0.00  0.00    +0.000 A 
ATOM     16  C   UNL     1       0.544  14.792  18.776  0.00  0.00    +0.000 A 
ATOM     17  C   UNL     1      -0.574  14.014  19.034  0.00  0.00    +0.000 A 
ATOM     18  C   UNL     1      -0.425  12.646  19.267  0.00  0.00    +0.000 A 
ATOM     19  C   UNL     1       0.834  12.039  19.232  0.00  0.00    +0.000 A 
ATOM     20  C   UNL     1       1.954  12.837  18.960  0.00  0.00    +0.000 A 
BRANCH  15  22
ATOM     21  C   UNL     1       4.334  14.400  18.313  0.00  0.00    +0.000 C 
ATOM     22  C   UNL     1       3.031  15.154  18.618  0.00  0.00    +0.000 C 
BRANCH  22  23
ATOM     23  S   UNL     1       3.375  16.123  20.134  0.00  0.00    +0.000 S 
BRANCH  23  24
ATOM     24  C   UNL     1       4.159  15.018  21.201  0.00  0.00    +0.000 A 
ATOM     25  N   UNL     1       3.638  14.016  21.871  0.00  0.00    +0.000 NA
ATOM     26  N   UNL     1       4.664  13.382  22.544  0.00  0.00    +0.000 NA
ATOM     27  C   UNL     1       5.769  14.046  22.297  0.00  0.00    +0.000 A 
ATOM     28  N   UNL     1       5.489  15.112  21.494  0.00  0.00    +0.000 N 
ATOM     29  C   UNL     1       6.413  16.136  21.089  0.00  0.00    +0.000 C 
ENDBRANCH  23  24
ENDBRANCH  22  23
ENDBRANCH  15  22
ENDBRANCH  11  19
ENDBRANCH   1  12
BRANCH   5  30
ATOM     30  O   UNL     1       5.360   3.990  17.422  0.00  0.00    +0.000 OA
BRANCH  30  31
ATOM     31  C   UNL     1       6.579   4.712  17.470  0.00  0.00    +0.000 C 
BRANCH  31  32
ATOM     32  C   UNL     1       6.931   4.992  16.009  0.00  0.00    +0.000 C 
ATOM     33  O   UNL     1       7.604   5.960  15.673  0.00  0.00    +0.000 OA
ATOM     34  N   UNL     1       6.401   4.085  15.108  0.00  0.00    +0.000 N 
ATOM     35  H   UNL     1       5.998   3.233  15.484  0.00  0.00    +0.000 HD
BRANCH  34  36
ATOM     36  C   UNL     1       6.762   4.088  13.702  0.00  0.00    +0.000 C 
BRANCH  36  37
ATOM     37  C   UNL     1       5.640   3.533  12.809  0.00  0.00    +0.000 C 
BRANCH  37  38
ATOM     38  N   UNL     1       6.110   2.437  11.952  0.00  0.00    +0.000 NA
ATOM     39  H   UNL     1       5.437   1.673  11.998  0.00  0.00    +0.000 HD
ATOM     40  H   UNL     1       6.979   2.065  12.340  0.00  0.00    +0.000 HD
ENDBRANCH  37  38
ENDBRANCH  36  37
ENDBRANCH  34  36
ENDBRANCH  31  32
ENDBRANCH  30  31
ENDBRANCH   5  30
TORSDOF 11
ENDMDL
MODEL 7
REMARK VINA RESULT:      -7.8      3.669     10.506
REMARK  Name = 
REMARK  13 active torsions:
REMARK  status: ('A' for Active; 'I' for Inactive)
REMARK    1  A    between atoms: C_1  and  C_2
REMARK    2  A    between atoms: C_2  and  S_3
REMARK    3  A    between atoms: C_2  and  C_10
REMARK    4  A    between atoms: S_3  and  C_4
REMARK    5  A    between atoms: N_8  and  C_9
REMARK    6  A    between atoms: C_14  and  N_15
REMARK    7  A    between atoms: C_16  and  C_18
REMARK    8  A    between atoms: C_22  and  O_23
REMARK    9  A    between atoms: O_23  and  C_24
REMARK   10  A    between atoms: C_24  and  C_25
REMARK   11  A    between atoms: N_27  and  C_28
REMARK   12  A    between atoms: C_28  and  C_29
REMARK   13  A    between atoms: C_29  and  N_30
REMARK                            x       y       z     vdW  Elec       q    Type
REMARK                         _______ _______ _______ _____ _____    ______ ____
ROOT
ATOM      1  C   UNL     1       1.901   6.743  19.956  0.00  0.00    +0.000 A 
ATOM      2  C   UNL     1       2.274   6.463  18.654  0.00  0.00    +0.000 A 
ATOM      3  C   UNL     1       2.858   5.239  18.384  0.00  0.00    +0.000 A 
ATOM      4  C   UNL     1       3.527   5.068  17.180  0.00  0.00    +0.000 A 
ATOM      5  C   UNL     1       4.185   3.879  16.894  0.00  0.00    +0.000 A 
ATOM      6  C   UNL     1       4.035   2.788  17.741  0.00  0.00    +0.000 A 
ATOM      7  C   UNL     1       3.366   2.956  18.970  0.00  0.00    +0.000 A 
ATOM      8  C   UNL     1       2.858   4.223  19.347  0.00  0.00    +0.000 A 
ATOM      9  C   UNL     1       2.396   4.594  20.625  0.00  0.00    +0.000 A 
ATOM     10  N   UNL     1       1.976   5.848  20.977  0.00  0.00    +0.000 NA
ENDROOT
BRANCH   1  12
ATOM     11  N   UNL     1       1.256   8.947  19.106  0.00  0.00    +0.000 N 
ATOM     12  C   UNL     1       1.505   8.159  20.216  0.00  0.00    +0.000 C 
ATOM     13  O   UNL     1       1.419   8.518  21.381  0.00  0.00    +0.000 OA
ATOM     14  H   UNL     1       1.495   8.546  18.206  0.00  0.00    +0.000 HD
BRANCH  11  19
ATOM     15  C   UNL     1      -1.041  11.806  19.749  0.00  0.00    +0.000 A 
ATOM     16  C   UNL     1      -0.262  12.881  19.287  0.00  0.00    +0.000 A 
ATOM     17  C   UNL     1       0.996  12.670  18.743  0.00  0.00    +0.000 A 
ATOM     18  C   UNL     1       1.511  11.374  18.674  0.00  0.00    +0.000 A 
ATOM     19  C   UNL     1       0.785  10.282  19.158  0.00  0.00    +0.000 A 
ATOM     20  C   UNL     1      -0.481  10.512  19.715  0.00  0.00    +0.000 A 
BRANCH  15  22
ATOM     21  C   UNL     1      -3.448  12.255  19.040  0.00  0.00    +0.000 C 
ATOM     22  C   UNL     1      -2.465  12.082  20.208  0.00  0.00    +0.000 C 
BRANCH  22  23
ATOM     23  S   UNL     1      -2.606  13.620  21.193  0.00  0.00    +0.000 S 
BRANCH  23  24
ATOM     24  C   UNL     1      -3.446  13.156  22.627  0.00  0.00    +0.000 A 
ATOM     25  N   UNL     1      -4.516  12.404  22.743  0.00  0.00    +0.000 NA
ATOM     26  N   UNL     1      -4.785  12.263  24.090  0.00  0.00    +0.000 NA
ATOM     27  C   UNL     1      -3.895  12.970  24.748  0.00  0.00    +0.000 A 
ATOM     28  N   UNL     1      -3.062  13.587  23.864  0.00  0.00    +0.000 N 
ATOM     29  C   UNL     1      -2.025  14.529  24.189  0.00  0.00    +0.000 C 
ENDBRANCH  23  24
ENDBRANCH  22  23
ENDBRANCH  15  22
ENDBRANCH  11  19
ENDBRANCH   1  12
BRANCH   5  30
ATOM     30  O   UNL     1       4.994   3.995  15.811  0.00  0.00    +0.000 OA
BRANCH  30  31
ATOM     31  C   UNL     1       5.532   5.263  15.474  0.00  0.00    +0.000 C 
BRANCH  31  32
ATOM     32  C   UNL     1       6.745   5.433  16.389  0.00  0.00    +0.000 C 
ATOM     33  O   UNL     1       7.724   4.698  16.320  0.00  0.00    +0.000 OA
ATOM     34  N   UNL     1       6.626   6.456  17.313  0.00  0.00    +0.000 N 
ATOM     35  H   UNL     1       5.860   7.110  17.192  0.00  0.00    +0.000 HD
BRANCH  34  36
ATOM     36  C   UNL     1       7.735   6.877  18.150  0.00  0.00    +0.000 C 
BRANCH  36  37
ATOM     37  C   UNL     1       8.052   5.859  19.258  0.00  0.00    +0.000 C 
BRANCH  37  38
ATOM     38  N   UNL     1       6.833   5.334  19.888  0.00  0.00    +0.000 NA
ATOM     39  H   UNL     1       6.034   5.870  19.552  0.00  0.00    +0.000 HD
ATOM     40  H   UNL     1       6.881   5.508  20.893  0.00  0.00    +0.000 HD
ENDBRANCH  37  38
ENDBRANCH  36  37
ENDBRANCH  34  36
ENDBRANCH  31  32
ENDBRANCH  30  31
ENDBRANCH   5  30
TORSDOF 11
ENDMDL
MODEL 8
REMARK VINA RESULT:      -7.8      4.667      9.700
REMARK  Name = 
REMARK  13 active torsions:
REMARK  status: ('A' for Active; 'I' for Inactive)
REMARK    1  A    between atoms: C_1  and  C_2
REMARK    2  A    between atoms: C_2  and  S_3
REMARK    3  A    between atoms: C_2  and  C_10
REMARK    4  A    between atoms: S_3  and  C_4
REMARK    5  A    between atoms: N_8  and  C_9
REMARK    6  A    between atoms: C_14  and  N_15
REMARK    7  A    between atoms: C_16  and  C_18
REMARK    8  A    between atoms: C_22  and  O_23
REMARK    9  A    between atoms: O_23  and  C_24
REMARK   10  A    between atoms: C_24  and  C_25
REMARK   11  A    between atoms: N_27  and  C_28
REMARK   12  A    between atoms: C_28  and  C_29
REMARK   13  A    between atoms: C_29  and  N_30
REMARK                            x       y       z     vdW  Elec       q    Type
REMARK                         _______ _______ _______ _____ _____    ______ ____
ROOT
ATOM      1  C   UNL     1       1.854   7.156  19.808  0.00  0.00    +0.000 A 
ATOM      2  C   UNL     1       2.406   6.766  18.601  0.00  0.00    +0.000 A 
ATOM      3  C   UNL     1       3.020   5.530  18.526  0.00  0.00    +0.000 A 
ATOM      4  C   UNL     1       3.851   5.260  17.448  0.00  0.00    +0.000 A 
ATOM      5  C   UNL     1       4.542   4.057  17.364  0.00  0.00    +0.000 A 
ATOM      6  C   UNL     1       4.272   3.044  18.276  0.00  0.00    +0.000 A 
ATOM      7  C   UNL     1       3.437   3.313  19.378  0.00  0.00    +0.000 A 
ATOM      8  C   UNL     1       2.883   4.603  19.566  0.00  0.00    +0.000 A 
ATOM      9  C   UNL     1       2.246   5.080  20.729  0.00  0.00    +0.000 A 
ATOM     10  N   UNL     1       1.783   6.355  20.904  0.00  0.00    +0.000 NA
ENDROOT
BRANCH   1  12
ATOM     11  N   UNL     1       1.070   9.188  18.690  0.00  0.00    +0.000 N 
ATOM     12  C   UNL     1       1.427   8.584  19.882  0.00  0.00    +0.000 C 
ATOM     13  O   UNL     1       1.413   9.115  20.984  0.00  0.00    +0.000 OA
ATOM     14  H   UNL     1       1.257   8.660  17.844  0.00  0.00    +0.000 HD
BRANCH  11  19
ATOM     15  C   UNL     1       0.958  12.907  18.832  0.00  0.00    +0.000 A 
ATOM     16  C   UNL     1      -0.362  13.149  18.416  0.00  0.00    +0.000 A 
ATOM     17  C   UNL     1      -1.220  12.102  18.116  0.00  0.00    +0.000 A 
ATOM     18  C   UNL     1      -0.762  10.786  18.205  0.00  0.00    +0.000 A 
ATOM     19  C   UNL     1       0.556  10.503  18.577  0.00  0.00    +0.000 A 
ATOM     20  C   UNL     1       1.414  11.573  18.867  0.00  0.00    +0.000 A 
BRANCH  15  22
ATOM     21  C   UNL     1       1.155  15.445  18.979  0.00  0.00    +0.000 C 
ATOM     22  C   UNL     1       1.809  14.087  19.279  0.00  0.00    +0.000 C 
BRANCH  22  23
ATOM     23  S   UNL     1       3.439  14.139  18.446  0.00  0.00    +0.000 S 
BRANCH  23  24
ATOM     24  C   UNL     1       4.203  15.563  19.051  0.00  0.00    +0.000 A 
ATOM     25  N   UNL     1       4.394  16.712  18.445  0.00  0.00    +0.000 NA
ATOM     26  N   UNL     1       4.994  17.568  19.347  0.00  0.00    +0.000 NA
ATOM     27  C   UNL     1       5.189  16.898  20.459  0.00  0.00    +0.000 A 
ATOM     28  N   UNL     1       4.750  15.617  20.301  0.00  0.00    +0.000 N 
ATOM     29  C   UNL     1       4.886  14.549  21.253  0.00  0.00    +0.000 C 
ENDBRANCH  23  24
ENDBRANCH  22  23
ENDBRANCH  15  22
ENDBRANCH  11  19
ENDBRANCH   1  12
BRANCH   5  30
ATOM     30  O   UNL     1       5.494   4.087  16.399  0.00  0.00    +0.000 OA
BRANCH  30  31
ATOM     31  C   UNL     1       5.933   5.334  15.887  0.00  0.00    +0.000 C 
BRANCH  31  32
ATOM     32  C   UNL     1       6.623   4.997  14.565  0.00  0.00    +0.000 C 
ATOM     33  O   UNL     1       7.725   5.448  14.270  0.00  0.00    +0.000 OA
ATOM     34  N   UNL     1       5.888   4.177  13.728  0.00  0.00    +0.000 N 
ATOM     35  H   UNL     1       5.068   3.724  14.117  0.00  0.00    +0.000 HD
BRANCH  34  36
ATOM     36  C   UNL     1       6.444   3.614  12.510  0.00  0.00    +0.000 C 
BRANCH  36  37
ATOM     37  C   UNL     1       5.472   2.647  11.815  0.00  0.00    +0.000 C 
BRANCH  37  38
ATOM     38  N   UNL     1       6.119   1.379  11.457  0.00  0.00    +0.000 NA
ATOM     39  H   UNL     1       5.433   0.629  11.528  0.00  0.00    +0.000 HD
ATOM     40  H   UNL     1       6.834   1.166  12.154  0.00  0.00    +0.000 HD
ENDBRANCH  37  38
ENDBRANCH  36  37
ENDBRANCH  34  36
ENDBRANCH  31  32
ENDBRANCH  30  31
ENDBRANCH   5  30
TORSDOF 11
ENDMDL
MODEL 9
REMARK VINA RESULT:      -7.8      1.543      2.181
REMARK  Name = 
REMARK  13 active torsions:
REMARK  status: ('A' for Active; 'I' for Inactive)
REMARK    1  A    between atoms: C_1  and  C_2
REMARK    2  A    between atoms: C_2  and  S_3
REMARK    3  A    between atoms: C_2  and  C_10
REMARK    4  A    between atoms: S_3  and  C_4
REMARK    5  A    between atoms: N_8  and  C_9
REMARK    6  A    between atoms: C_14  and  N_15
REMARK    7  A    between atoms: C_16  and  C_18
REMARK    8  A    between atoms: C_22  and  O_23
REMARK    9  A    between atoms: O_23  and  C_24
REMARK   10  A    between atoms: C_24  and  C_25
REMARK   11  A    between atoms: N_27  and  C_28
REMARK   12  A    between atoms: C_28  and  C_29
REMARK   13  A    between atoms: C_29  and  N_30
REMARK                            x       y       z     vdW  Elec       q    Type
REMARK                         _______ _______ _______ _____ _____    ______ ____
ROOT
ATOM      1  C   UNL     1       1.413   8.169  20.603  0.00  0.00    +0.000 A 
ATOM      2  C   UNL     1       0.835   8.975  19.639  0.00  0.00    +0.000 A 
ATOM      3  C   UNL     1       0.130  10.092  20.049  0.00  0.00    +0.000 A 
ATOM      4  C   UNL     1      -0.716  10.718  19.146  0.00  0.00    +0.000 A 
ATOM      5  C   UNL     1      -1.494  11.802  19.532  0.00  0.00    +0.000 A 
ATOM      6  C   UNL     1      -1.303  12.376  20.783  0.00  0.00    +0.000 A 
ATOM      7  C   UNL     1      -0.452  11.741  21.710  0.00  0.00    +0.000 A 
ATOM      8  C   UNL     1       0.196  10.526  21.379  0.00  0.00    +0.000 A 
ATOM      9  C   UNL     1       0.865   9.663  22.270  0.00  0.00    +0.000 A 
ATOM     10  N   UNL     1       1.422   8.460  21.931  0.00  0.00    +0.000 NA
ENDROOT
BRANCH   1  12
ATOM     11  N   UNL     1       1.935   6.670  18.739  0.00  0.00    +0.000 N 
ATOM     12  C   UNL     1       1.945   6.865  20.108  0.00  0.00    +0.000 C 
ATOM     13  O   UNL     1       2.358   6.070  20.940  0.00  0.00    +0.000 OA
ATOM     14  H   UNL     1       1.442   7.365  18.189  0.00  0.00    +0.000 HD
BRANCH  11  19
ATOM     15  C   UNL     1       4.336   4.592  16.794  0.00  0.00    +0.000 A 
ATOM     16  C   UNL     1       3.644   3.371  16.738  0.00  0.00    +0.000 A 
ATOM     17  C   UNL     1       2.388   3.233  17.308  0.00  0.00    +0.000 A 
ATOM     18  C   UNL     1       1.808   4.316  17.971  0.00  0.00    +0.000 A 
ATOM     19  C   UNL     1       2.479   5.538  18.084  0.00  0.00    +0.000 A 
ATOM     20  C   UNL     1       3.753   5.658  17.511  0.00  0.00    +0.000 A 
BRANCH  15  22
ATOM     21  C   UNL     1       5.822   3.648  14.950  0.00  0.00    +0.000 C 
ATOM     22  C   UNL     1       5.648   4.723  16.034  0.00  0.00    +0.000 C 
BRANCH  22  23
ATOM     23  S   UNL     1       7.114   4.561  17.118  0.00  0.00    +0.000 S 
BRANCH  23  24
ATOM     24  C   UNL     1       7.576   6.181  17.490  0.00  0.00    +0.000 A 
ATOM     25  N   UNL     1       7.651   7.217  16.686  0.00  0.00    +0.000 NA
ATOM     26  N   UNL     1       8.007   8.313  17.447  0.00  0.00    +0.000 NA
ATOM     27  C   UNL     1       8.180   7.899  18.682  0.00  0.00    +0.000 A 
ATOM     28  N   UNL     1       7.965   6.554  18.744  0.00  0.00    +0.000 N 
ATOM     29  C   UNL     1       8.159   5.716  19.896  0.00  0.00    +0.000 C 
ENDBRANCH  23  24
ENDBRANCH  22  23
ENDBRANCH  15  22
ENDBRANCH  11  19
ENDBRANCH   1  12
BRANCH   5  30
ATOM     30  O   UNL     1      -2.441  12.102  18.608  0.00  0.00    +0.000 OA
BRANCH  30  31
ATOM     31  C   UNL     1      -2.408  11.463  17.342  0.00  0.00    +0.000 C 
BRANCH  31  32
ATOM     32  C   UNL     1      -3.866  11.426  16.881  0.00  0.00    +0.000 C 
ATOM     33  O   UNL     1      -4.224  10.784  15.900  0.00  0.00    +0.000 OA
ATOM     34  N   UNL     1      -4.726  12.199  17.640  0.00  0.00    +0.000 N 
ATOM     35  H   UNL     1      -4.377  12.563  18.521  0.00  0.00    +0.000 HD
BRANCH  34  36
ATOM     36  C   UNL     1      -6.167  12.159  17.461  0.00  0.00    +0.000 C 
BRANCH  36  37
ATOM     37  C   UNL     1      -6.923  12.740  18.668  0.00  0.00    +0.000 C 
BRANCH  37  38
ATOM     38  N   UNL     1      -6.011  13.132  19.751  0.00  0.00    +0.000 NA
ATOM     39  H   UNL     1      -5.154  13.501  19.341  0.00  0.00    +0.000 HD
ATOM     40  H   UNL     1      -5.735  12.296  20.267  0.00  0.00    +0.000 HD
ENDBRANCH  37  38
ENDBRANCH  36  37
ENDBRANCH  34  36
ENDBRANCH  31  32
ENDBRANCH  30  31
ENDBRANCH   5  30
TORSDOF 11
ENDMDL
