MODEL 1
REMARK VINA RESULT:      -8.7      0.000      0.000
REMARK  Name = 
REMARK  6 active torsions:
REMARK  status: ('A' for Active; 'I' for Inactive)
REMARK    1  A    between atoms: C_1  and  C_2
REMARK    2  A    between atoms: C_2  and  S_3
REMARK    3  A    between atoms: C_2  and  C_10
REMARK    4  A    between atoms: S_3  and  C_4
REMARK    5  A    between atoms: N_8  and  C_9
REMARK    6  A    between atoms: C_14  and  C_15
REMARK                            x       y       z     vdW  Elec       q    Type
REMARK                         _______ _______ _______ _____ _____    ______ ____
ROOT
ATOM      1  C   UNL     1       4.543   5.357  17.255  0.00  0.00    +0.000 A 
ATOM      2  C   UNL     1       3.767   4.211  17.466  0.00  0.00    +0.000 A 
ATOM      3  C   UNL     1       2.464   4.302  17.964  0.00  0.00    +0.000 A 
ATOM      4  C   UNL     1       1.901   5.543  18.275  0.00  0.00    +0.000 A 
ATOM      5  C   UNL     1       2.643   6.716  18.119  0.00  0.00    +0.000 A 
ATOM      6  C   UNL     1       3.960   6.596  17.601  0.00  0.00    +0.000 A 
ENDROOT
BRANCH   5   7
ATOM      7  C   UNL     1       2.106   8.060  18.441  0.00  0.00    +0.000 A 
ATOM      8  N   UNL     1       2.123   8.995  17.470  0.00  0.00    +0.000 NA
ATOM      9  N   UNL     1       1.586  10.083  18.021  0.00  0.00    +0.000 N 
ATOM     10  C   UNL     1       1.171   9.920  19.307  0.00  0.00    +0.000 A 
ATOM     11  C   UNL     1       0.531  10.816  20.169  0.00  0.00    +0.000 A 
ATOM     12  C   UNL     1       0.257  10.377  21.462  0.00  0.00    +0.000 A 
ATOM     13  C   UNL     1       0.627   9.098  21.867  0.00  0.00    +0.000 A 
ATOM     14  C   UNL     1       1.260   8.211  20.977  0.00  0.00    +0.000 A 
ATOM     15  C   UNL     1       1.530   8.615  19.647  0.00  0.00    +0.000 A 
ATOM     16  H   UNL     1       1.535  10.924  17.460  0.00  0.00    +0.000 HD
ENDBRANCH   5   7
BRANCH   1  18
ATOM     17  C   UNL     1       7.050   5.228  17.789  0.00  0.00    +0.000 C 
ATOM     18  C   UNL     1       5.977   5.309  16.692  0.00  0.00    +0.000 C 
BRANCH  18  19
ATOM     19  S   UNL     1       6.166   3.888  15.528  0.00  0.00    +0.000 S 
BRANCH  19  20
ATOM     20  C   UNL     1       6.925   4.595  14.140  0.00  0.00    +0.000 A 
ATOM     21  N   UNL     1       7.845   5.534  14.118  0.00  0.00    +0.000 NA
ATOM     22  N   UNL     1       8.237   5.717  12.810  0.00  0.00    +0.000 NA
ATOM     23  C   UNL     1       7.522   4.906  12.069  0.00  0.00    +0.000 A 
ATOM     24  N   UNL     1       6.670   4.194  12.859  0.00  0.00    +0.000 N 
ATOM     25  C   UNL     1       5.702   3.236  12.395  0.00  0.00    +0.000 C 
ENDBRANCH  19  20
ENDBRANCH  18  19
ENDBRANCH   1  18
TORSDOF 4
ENDMDL
MODEL 2
REMARK VINA RESULT:      -8.4      2.825      4.421
REMARK  Name = 
REMARK  6 active torsions:
REMARK  status: ('A' for Active; 'I' for Inactive)
REMARK    1  A    between atoms: C_1  and  C_2
REMARK    2  A    between atoms: C_2  and  S_3
REMARK    3  A    between atoms: C_2  and  C_10
REMARK    4  A    between atoms: S_3  and  C_4
REMARK    5  A    between atoms: N_8  and  C_9
REMARK    6  A    between atoms: C_14  and  C_15
REMARK                            x       y       z     vdW  Elec       q    Type
REMARK                         _______ _______ _______ _____ _____    ______ ____
ROOT
ATOM      1  C   UNL     1       2.467   7.220  19.332  0.00  0.00    +0.000 A 
ATOM      2  C   UNL     1       2.530   7.895  18.107  0.00  0.00    +0.000 A 
ATOM      3  C   UNL     1       1.877   9.117  17.919  0.00  0.00    +0.000 A 
ATOM      4  C   UNL     1       1.134   9.697  18.951  0.00  0.00    +0.000 A 
ATOM      5  C   UNL     1       1.006   9.050  20.182  0.00  0.00    +0.000 A 
ATOM      6  C   UNL     1       1.688   7.815  20.349  0.00  0.00    +0.000 A 
ENDROOT
BRANCH   5   7
ATOM      7  C   UNL     1       0.224   9.609  21.310  0.00  0.00    +0.000 A 
ATOM      8  N   UNL     1       0.313   8.994  22.507  0.00  0.00    +0.000 NA
ATOM      9  N   UNL     1      -0.472   9.697  23.322  0.00  0.00    +0.000 N 
ATOM     10  C   UNL     1      -1.061  10.781  22.747  0.00  0.00    +0.000 A 
ATOM     11  C   UNL     1      -1.897  11.754  23.303  0.00  0.00    +0.000 A 
ATOM     12  C   UNL     1      -2.388  12.740  22.449  0.00  0.00    +0.000 A 
ATOM     13  C   UNL     1      -2.061  12.730  21.097  0.00  0.00    +0.000 A 
ATOM     14  C   UNL     1      -1.208  11.745  20.564  0.00  0.00    +0.000 A 
ATOM     15  C   UNL     1      -0.670  10.744  21.408  0.00  0.00    +0.000 A 
ATOM     16  H   UNL     1      -0.571   9.377  24.278  0.00  0.00    +0.000 HD
ENDBRANCH   5   7
BRANCH   1  18
ATOM     17  C   UNL     1       2.391   4.947  20.522  0.00  0.00    +0.000 C 
ATOM     18  C   UNL     1       3.183   5.881  19.593  0.00  0.00    +0.000 C 
BRANCH  18  19
ATOM     19  S   UNL     1       3.539   5.019  17.998  0.00  0.00    +0.000 S 
BRANCH  19  20
ATOM     20  C   UNL     1       5.265   4.860  17.998  0.00  0.00    +0.000 A 
ATOM     21  N   UNL     1       6.059   4.712  19.034  0.00  0.00    +0.000 NA
ATOM     22  N   UNL     1       7.340   4.519  18.567  0.00  0.00    +0.000 NA
ATOM     23  C   UNL     1       7.295   4.587  17.258  0.00  0.00    +0.000 A 
ATOM     24  N   UNL     1       6.013   4.818  16.855  0.00  0.00    +0.000 N 
ATOM     25  C   UNL     1       5.583   4.993  15.494  0.00  0.00    +0.000 C 
ENDBRANCH  19  20
ENDBRANCH  18  19
ENDBRANCH   1  18
TORSDOF 4
ENDMDL
MODEL 3
REMARK VINA RESULT:      -8.4      2.622      3.782
REMARK  Name = 
REMARK  6 active torsions:
REMARK  status: ('A' for Active; 'I' for Inactive)
REMARK    1  A    between atoms: C_1  and  C_2
REMARK    2  A    between atoms: C_2  and  S_3
REMARK    3  A    between atoms: C_2  and  C_10
REMARK    4  A    between atoms: S_3  and  C_4
REMARK    5  A    between atoms: N_8  and  C_9
REMARK    6  A    between atoms: C_14  and  C_15
REMARK                            x       y       z     vdW  Elec       q    Type
REMARK                         _______ _______ _______ _____ _____    ______ ____
ROOT
ATOM      1  C   UNL     1       2.911   6.423  19.218  0.00  0.00    +0.000 A 
ATOM      2  C   UNL     1       3.440   6.615  17.936  0.00  0.00    +0.000 A 
ATOM      3  C   UNL     1       3.163   7.774  17.205  0.00  0.00    +0.000 A 
ATOM      4  C   UNL     1       2.341   8.773  17.733  0.00  0.00    +0.000 A 
ATOM      5  C   UNL     1       1.757   8.618  18.992  0.00  0.00    +0.000 A 
ATOM      6  C   UNL     1       2.063   7.436  19.717  0.00  0.00    +0.000 A 
ENDROOT
BRANCH   5   7
ATOM      7  C   UNL     1       0.868   9.637  19.601  0.00  0.00    +0.000 A 
ATOM      8  N   UNL     1       0.410  10.628  18.810  0.00  0.00    +0.000 NA
ATOM      9  N   UNL     1      -0.355  11.381  19.600  0.00  0.00    +0.000 N 
ATOM     10  C   UNL     1      -0.468  10.928  20.878  0.00  0.00    +0.000 A 
ATOM     11  C   UNL     1      -1.212  11.430  21.951  0.00  0.00    +0.000 A 
ATOM     12  C   UNL     1      -1.102  10.769  23.172  0.00  0.00    +0.000 A 
ATOM     13  C   UNL     1      -0.266   9.665  23.305  0.00  0.00    +0.000 A 
ATOM     14  C   UNL     1       0.464   9.172  22.207  0.00  0.00    +0.000 A 
ATOM     15  C   UNL     1       0.355   9.803  20.944  0.00  0.00    +0.000 A 
ATOM     16  H   UNL     1      -0.776  12.211  19.202  0.00  0.00    +0.000 HD
ENDBRANCH   5   7
BRANCH   1  18
ATOM     17  C   UNL     1       1.942   4.586  20.725  0.00  0.00    +0.000 C 
ATOM     18  C   UNL     1       3.202   5.171  20.068  0.00  0.00    +0.000 C 
BRANCH  18  19
ATOM     19  S   UNL     1       4.032   3.875  19.046  0.00  0.00    +0.000 S 
BRANCH  19  20
ATOM     20  C   UNL     1       5.636   4.493  18.828  0.00  0.00    +0.000 A 
ATOM     21  N   UNL     1       6.442   4.980  19.744  0.00  0.00    +0.000 NA
ATOM     22  N   UNL     1       7.652   5.255  19.147  0.00  0.00    +0.000 NA
ATOM     23  C   UNL     1       7.539   4.956  17.876  0.00  0.00    +0.000 A 
ATOM     24  N   UNL     1       6.283   4.491  17.624  0.00  0.00    +0.000 N 
ATOM     25  C   UNL     1       5.777   4.103  16.335  0.00  0.00    +0.000 C 
ENDBRANCH  19  20
ENDBRANCH  18  19
ENDBRANCH   1  18
TORSDOF 4
ENDMDL
MODEL 4
REMARK VINA RESULT:      -8.2      3.046      8.040
REMARK  Name = 
REMARK  6 active torsions:
REMARK  status: ('A' for Active; 'I' for Inactive)
REMARK    1  A    between atoms: C_1  and  C_2
REMARK    2  A    between atoms: C_2  and  S_3
REMARK    3  A    between atoms: C_2  and  C_10
REMARK    4  A    between atoms: S_3  and  C_4
REMARK    5  A    between atoms: N_8  and  C_9
REMARK    6  A    between atoms: C_14  and  C_15
REMARK                            x       y       z     vdW  Elec       q    Type
REMARK                         _______ _______ _______ _____ _____    ______ ____
ROOT
ATOM      1  C   UNL     1       4.592   5.804  18.276  0.00  0.00    +0.000 A 
ATOM      2  C   UNL     1       5.458   5.486  19.329  0.00  0.00    +0.000 A 
ATOM      3  C   UNL     1       6.772   5.074  19.087  0.00  0.00    +0.000 A 
ATOM      4  C   UNL     1       7.256   4.959  17.781  0.00  0.00    +0.000 A 
ATOM      5  C   UNL     1       6.425   5.228  16.691  0.00  0.00    +0.000 A 
ATOM      6  C   UNL     1       5.098   5.654  16.966  0.00  0.00    +0.000 A 
ENDROOT
BRANCH   5   7
ATOM      7  C   UNL     1       6.877   5.113  15.284  0.00  0.00    +0.000 A 
ATOM      8  N   UNL     1       8.029   5.724  14.939  0.00  0.00    +0.000 NA
ATOM      9  N   UNL     1       8.193   5.457  13.644  0.00  0.00    +0.000 N 
ATOM     10  C   UNL     1       7.229   4.665  13.102  0.00  0.00    +0.000 A 
ATOM     11  C   UNL     1       7.104   4.153  11.806  0.00  0.00    +0.000 A 
ATOM     12  C   UNL     1       5.973   3.392  11.524  0.00  0.00    +0.000 A 
ATOM     13  C   UNL     1       5.007   3.172  12.502  0.00  0.00    +0.000 A 
ATOM     14  C   UNL     1       5.161   3.689  13.802  0.00  0.00    +0.000 A 
ATOM     15  C   UNL     1       6.312   4.446  14.130  0.00  0.00    +0.000 A 
ATOM     16  H   UNL     1       8.997   5.857  13.176  0.00  0.00    +0.000 HD
ENDBRANCH   5   7
BRANCH   1  18
ATOM     17  C   UNL     1       2.823   7.588  17.755  0.00  0.00    +0.000 C 
ATOM     18  C   UNL     1       3.143   6.279  18.494  0.00  0.00    +0.000 C 
BRANCH  18  19
ATOM     19  S   UNL     1       1.949   4.966  17.980  0.00  0.00    +0.000 S 
BRANCH  19  20
ATOM     20  C   UNL     1       1.806   3.970  19.391  0.00  0.00    +0.000 A 
ATOM     21  N   UNL     1       1.077   4.191  20.461  0.00  0.00    +0.000 NA
ATOM     22  N   UNL     1       1.183   3.093  21.286  0.00  0.00    +0.000 NA
ATOM     23  C   UNL     1       2.000   2.246  20.708  0.00  0.00    +0.000 A 
ATOM     24  N   UNL     1       2.432   2.762  19.523  0.00  0.00    +0.000 N 
ATOM     25  C   UNL     1       3.370   2.136  18.631  0.00  0.00    +0.000 C 
ENDBRANCH  19  20
ENDBRANCH  18  19
ENDBRANCH   1  18
TORSDOF 4
ENDMDL
MODEL 5
REMARK VINA RESULT:      -8.1      2.599      3.633
REMARK  Name = 
REMARK  6 active torsions:
REMARK  status: ('A' for Active; 'I' for Inactive)
REMARK    1  A    between atoms: C_1  and  C_2
REMARK    2  A    between atoms: C_2  and  S_3
REMARK    3  A    between atoms: C_2  and  C_10
REMARK    4  A    between atoms: S_3  and  C_4
REMARK    5  A    between atoms: N_8  and  C_9
REMARK    6  A    between atoms: C_14  and  C_15
REMARK                            x       y       z     vdW  Elec       q    Type
REMARK                         _______ _______ _______ _____ _____    ______ ____
ROOT
ATOM      1  C   UNL     1       4.501   4.711  16.700  0.00  0.00    +0.000 A 
ATOM      2  C   UNL     1       4.352   3.368  17.066  0.00  0.00    +0.000 A 
ATOM      3  C   UNL     1       3.566   2.999  18.162  0.00  0.00    +0.000 A 
ATOM      4  C   UNL     1       2.912   3.966  18.930  0.00  0.00    +0.000 A 
ATOM      5  C   UNL     1       3.055   5.323  18.633  0.00  0.00    +0.000 A 
ATOM      6  C   UNL     1       3.850   5.669  17.509  0.00  0.00    +0.000 A 
ENDROOT
BRANCH   5   7
ATOM      7  C   UNL     1       2.395   6.395  19.417  0.00  0.00    +0.000 A 
ATOM      8  N   UNL     1       2.059   6.127  20.695  0.00  0.00    +0.000 NA
ATOM      9  N   UNL     1       1.500   7.246  21.153  0.00  0.00    +0.000 N 
ATOM     10  C   UNL     1       1.473   8.273  20.260  0.00  0.00    +0.000 A 
ATOM     11  C   UNL     1       1.012   9.585  20.406  0.00  0.00    +0.000 A 
ATOM     12  C   UNL     1       1.077  10.415  19.290  0.00  0.00    +0.000 A 
ATOM     13  C   UNL     1       1.570   9.936  18.080  0.00  0.00    +0.000 A 
ATOM     14  C   UNL     1       2.039   8.614  17.962  0.00  0.00    +0.000 A 
ATOM     15  C   UNL     1       2.012   7.750  19.083  0.00  0.00    +0.000 A 
ATOM     16  H   UNL     1       1.143   7.246  22.100  0.00  0.00    +0.000 HD
ENDBRANCH   5   7
BRANCH   1  18
ATOM     17  C   UNL     1       5.153   6.652  15.153  0.00  0.00    +0.000 C 
ATOM     18  C   UNL     1       5.341   5.165  15.491  0.00  0.00    +0.000 C 
BRANCH  18  19
ATOM     19  S   UNL     1       7.132   4.814  15.781  0.00  0.00    +0.000 S 
BRANCH  19  20
ATOM     20  C   UNL     1       7.360   5.211  17.452  0.00  0.00    +0.000 A 
ATOM     21  N   UNL     1       7.388   4.390  18.477  0.00  0.00    +0.000 NA
ATOM     22  N   UNL     1       7.699   5.121  19.602  0.00  0.00    +0.000 NA
ATOM     23  C   UNL     1       7.821   6.374  19.235  0.00  0.00    +0.000 A 
ATOM     24  N   UNL     1       7.598   6.482  17.894  0.00  0.00    +0.000 N 
ATOM     25  C   UNL     1       7.606   7.707  17.142  0.00  0.00    +0.000 C 
ENDBRANCH  19  20
ENDBRANCH  18  19
ENDBRANCH   1  18
TORSDOF 4
ENDMDL
MODEL 6
REMARK VINA RESULT:      -8.0      1.938      7.861
REMARK  Name = 
REMARK  6 active torsions:
REMARK  status: ('A' for Active; 'I' for Inactive)
REMARK    1  A    between atoms: C_1  and  C_2
REMARK    2  A    between atoms: C_2  and  S_3
REMARK    3  A    between atoms: C_2  and  C_10
REMARK    4  A    between atoms: S_3  and  C_4
REMARK    5  A    between atoms: N_8  and  C_9
REMARK    6  A    between atoms: C_14  and  C_15
REMARK                            x       y       z     vdW  Elec       q    Type
REMARK                         _______ _______ _______ _____ _____    ______ ____
ROOT
ATOM      1  C   UNL     1       2.659   4.085  18.467  0.00  0.00    +0.000 A 
ATOM      2  C   UNL     1       2.527   2.694  18.547  0.00  0.00    +0.000 A 
ATOM      3  C   UNL     1       3.382   1.844  17.840  0.00  0.00    +0.000 A 
ATOM      4  C   UNL     1       4.391   2.362  17.024  0.00  0.00    +0.000 A 
ATOM      5  C   UNL     1       4.545   3.742  16.878  0.00  0.00    +0.000 A 
ATOM      6  C   UNL     1       3.670   4.583  17.615  0.00  0.00    +0.000 A 
ENDROOT
BRANCH   5   7
ATOM      7  C   UNL     1       5.589   4.351  16.019  0.00  0.00    +0.000 A 
ATOM      8  N   UNL     1       6.431   5.240  16.584  0.00  0.00    +0.000 NA
ATOM      9  N   UNL     1       7.253   5.615  15.604  0.00  0.00    +0.000 N 
ATOM     10  C   UNL     1       7.033   4.997  14.412  0.00  0.00    +0.000 A 
ATOM     11  C   UNL     1       7.719   5.108  13.198  0.00  0.00    +0.000 A 
ATOM     12  C   UNL     1       7.236   4.371  12.120  0.00  0.00    +0.000 A 
ATOM     13  C   UNL     1       6.105   3.573  12.259  0.00  0.00    +0.000 A 
ATOM     14  C   UNL     1       5.438   3.470  13.495  0.00  0.00    +0.000 A 
ATOM     15  C   UNL     1       5.918   4.185  14.619  0.00  0.00    +0.000 A 
ATOM     16  H   UNL     1       7.954   6.315  15.815  0.00  0.00    +0.000 HD
ENDBRANCH   5   7
BRANCH   1  18
ATOM     17  C   UNL     1       0.938   4.375  20.349  0.00  0.00    +0.000 C 
ATOM     18  C   UNL     1       1.752   5.062  19.241  0.00  0.00    +0.000 C 
BRANCH  18  19
ATOM     19  S   UNL     1       2.753   6.436  19.964  0.00  0.00    +0.000 S 
BRANCH  19  20
ATOM     20  C   UNL     1       2.282   7.818  19.030  0.00  0.00    +0.000 A 
ATOM     21  N   UNL     1       2.614   8.102  17.791  0.00  0.00    +0.000 NA
ATOM     22  N   UNL     1       1.932   9.239  17.415  0.00  0.00    +0.000 NA
ATOM     23  C   UNL     1       1.227   9.633  18.448  0.00  0.00    +0.000 A 
ATOM     24  N   UNL     1       1.430   8.781  19.493  0.00  0.00    +0.000 N 
ATOM     25  C   UNL     1       0.856   8.916  20.805  0.00  0.00    +0.000 C 
ENDBRANCH  19  20
ENDBRANCH  18  19
ENDBRANCH   1  18
TORSDOF 4
ENDMDL
MODEL 7
REMARK VINA RESULT:      -8.0      1.361      1.719
REMARK  Name = 
REMARK  6 active torsions:
REMARK  status: ('A' for Active; 'I' for Inactive)
REMARK    1  A    between atoms: C_1  and  C_2
REMARK    2  A    between atoms: C_2  and  S_3
REMARK    3  A    between atoms: C_2  and  C_10
REMARK    4  A    between atoms: S_3  and  C_4
REMARK    5  A    between atoms: N_8  and  C_9
REMARK    6  A    between atoms: C_14  and  C_15
REMARK                            x       y       z     vdW  Elec       q    Type
REMARK                         _______ _______ _______ _____ _____    ______ ____
ROOT
ATOM      1  C   UNL     1       4.229   5.196  17.232  0.00  0.00    +0.000 A 
ATOM      2  C   UNL     1       3.539   3.980  17.159  0.00  0.00    +0.000 A 
ATOM      3  C   UNL     1       2.345   3.782  17.859  0.00  0.00    +0.000 A 
ATOM      4  C   UNL     1       1.810   4.793  18.662  0.00  0.00    +0.000 A 
ATOM      5  C   UNL     1       2.475   6.013  18.801  0.00  0.00    +0.000 A 
ATOM      6  C   UNL     1       3.680   6.192  18.071  0.00  0.00    +0.000 A 
ENDROOT
BRANCH   5   7
ATOM      7  C   UNL     1       1.964   7.119  19.646  0.00  0.00    +0.000 A 
ATOM      8  N   UNL     1       1.728   6.861  20.948  0.00  0.00    +0.000 NA
ATOM      9  N   UNL     1       1.290   8.011  21.459  0.00  0.00    +0.000 N 
ATOM     10  C   UNL     1       1.252   9.046  20.576  0.00  0.00    +0.000 A 
ATOM     11  C   UNL     1       0.896  10.384  20.769  0.00  0.00    +0.000 A 
ATOM     12  C   UNL     1       0.916  11.220  19.654  0.00  0.00    +0.000 A 
ATOM     13  C   UNL     1       1.263  10.720  18.403  0.00  0.00    +0.000 A 
ATOM     14  C   UNL     1       1.628   9.371  18.237  0.00  0.00    +0.000 A 
ATOM     15  C   UNL     1       1.645   8.500  19.353  0.00  0.00    +0.000 A 
ATOM     16  H   UNL     1       1.022   8.025  22.435  0.00  0.00    +0.000 HD
ENDBRANCH   5   7
BRANCH   1  18
ATOM     17  C   UNL     1       6.677   5.951  17.376  0.00  0.00    +0.000 C 
ATOM     18  C   UNL     1       5.537   5.468  16.466  0.00  0.00    +0.000 C 
BRANCH  18  19
ATOM     19  S   UNL     1       6.072   3.959  15.544  0.00  0.00    +0.000 S 
BRANCH  19  20
ATOM     20  C   UNL     1       6.875   4.597  14.148  0.00  0.00    +0.000 A 
ATOM     21  N   UNL     1       7.822   5.507  14.111  0.00  0.00    +0.000 NA
ATOM     22  N   UNL     1       8.242   5.635  12.805  0.00  0.00    +0.000 NA
ATOM     23  C   UNL     1       7.516   4.820  12.078  0.00  0.00    +0.000 A 
ATOM     24  N   UNL     1       6.630   4.160  12.876  0.00  0.00    +0.000 N 
ATOM     25  C   UNL     1       5.642   3.216  12.427  0.00  0.00    +0.000 C 
ENDBRANCH  19  20
ENDBRANCH  18  19
ENDBRANCH   1  18
TORSDOF 4
ENDMDL
MODEL 8
REMARK VINA RESULT:      -8.0      3.120      7.737
REMARK  Name = 
REMARK  6 active torsions:
REMARK  status: ('A' for Active; 'I' for Inactive)
REMARK    1  A    between atoms: C_1  and  C_2
REMARK    2  A    between atoms: C_2  and  S_3
REMARK    3  A    between atoms: C_2  and  C_10
REMARK    4  A    between atoms: S_3  and  C_4
REMARK    5  A    between atoms: N_8  and  C_9
REMARK    6  A    between atoms: C_14  and  C_15
REMARK                            x       y       z     vdW  Elec       q    Type
REMARK                         _______ _______ _______ _____ _____    ______ ____
ROOT
ATOM      1  C   UNL     1       4.353   5.761  18.302  0.00  0.00    +0.000 A 
ATOM      2  C   UNL     1       5.187   5.458  19.384  0.00  0.00    +0.000 A 
ATOM      3  C   UNL     1       6.518   5.077  19.188  0.00  0.00    +0.000 A 
ATOM      4  C   UNL     1       7.051   4.979  17.900  0.00  0.00    +0.000 A 
ATOM      5  C   UNL     1       6.254   5.233  16.782  0.00  0.00    +0.000 A 
ATOM      6  C   UNL     1       4.909   5.629  17.010  0.00  0.00    +0.000 A 
ENDROOT
BRANCH   5   7
ATOM      7  C   UNL     1       6.759   5.135  15.392  0.00  0.00    +0.000 A 
ATOM      8  N   UNL     1       7.918   5.756  15.096  0.00  0.00    +0.000 NA
ATOM      9  N   UNL     1       8.133   5.503  13.805  0.00  0.00    +0.000 N 
ATOM     10  C   UNL     1       7.195   4.709  13.220  0.00  0.00    +0.000 A 
ATOM     11  C   UNL     1       7.122   4.209  11.917  0.00  0.00    +0.000 A 
ATOM     12  C   UNL     1       6.008   3.442  11.586  0.00  0.00    +0.000 A 
ATOM     13  C   UNL     1       5.008   3.207  12.524  0.00  0.00    +0.000 A 
ATOM     14  C   UNL     1       5.110   3.712  13.834  0.00  0.00    +0.000 A 
ATOM     15  C   UNL     1       6.242   4.474  14.212  0.00  0.00    +0.000 A 
ATOM     16  H   UNL     1       8.950   5.913  13.371  0.00  0.00    +0.000 HD
ENDBRANCH   5   7
BRANCH   1  18
ATOM     17  C   UNL     1       2.584   7.549  17.792  0.00  0.00    +0.000 C 
ATOM     18  C   UNL     1       2.886   6.203  18.469  0.00  0.00    +0.000 C 
BRANCH  18  19
ATOM     19  S   UNL     1       1.743   4.906  17.817  0.00  0.00    +0.000 S 
BRANCH  19  20
ATOM     20  C   UNL     1       2.433   3.426  18.395  0.00  0.00    +0.000 A 
ATOM     21  N   UNL     1       3.068   2.509  17.700  0.00  0.00    +0.000 NA
ATOM     22  N   UNL     1       3.537   1.556  18.576  0.00  0.00    +0.000 NA
ATOM     23  C   UNL     1       3.147   1.904  19.779  0.00  0.00    +0.000 A 
ATOM     24  N   UNL     1       2.434   3.063  19.712  0.00  0.00    +0.000 N 
ATOM     25  C   UNL     1       1.811   3.727  20.826  0.00  0.00    +0.000 C 
ENDBRANCH  19  20
ENDBRANCH  18  19
ENDBRANCH   1  18
TORSDOF 4
ENDMDL
MODEL 9
REMARK VINA RESULT:      -8.0      1.661      8.250
REMARK  Name = 
REMARK  6 active torsions:
REMARK  status: ('A' for Active; 'I' for Inactive)
REMARK    1  A    between atoms: C_1  and  C_2
REMARK    2  A    between atoms: C_2  and  S_3
REMARK    3  A    between atoms: C_2  and  C_10
REMARK    4  A    between atoms: S_3  and  C_4
REMARK    5  A    between atoms: N_8  and  C_9
REMARK    6  A    between atoms: C_14  and  C_15
REMARK                            x       y       z     vdW  Elec       q    Type
REMARK                         _______ _______ _______ _____ _____    ______ ____
ROOT
ATOM      1  C   UNL     1       4.014   5.455  18.151  0.00  0.00    +0.000 A 
ATOM      2  C   UNL     1       4.809   5.280  19.290  0.00  0.00    +0.000 A 
ATOM      3  C   UNL     1       6.188   5.072  19.186  0.00  0.00    +0.000 A 
ATOM      4  C   UNL     1       6.811   5.024  17.936  0.00  0.00    +0.000 A 
ATOM      5  C   UNL     1       6.062   5.155  16.765  0.00  0.00    +0.000 A 
ATOM      6  C   UNL     1       4.665   5.376  16.900  0.00  0.00    +0.000 A 
ENDROOT
BRANCH   5   7
ATOM      7  C   UNL     1       6.663   5.102  15.411  0.00  0.00    +0.000 A 
ATOM      8  N   UNL     1       7.819   5.766  15.208  0.00  0.00    +0.000 NA
ATOM      9  N   UNL     1       8.130   5.547  13.931  0.00  0.00    +0.000 N 
ATOM     10  C   UNL     1       7.261   4.736  13.268  0.00  0.00    +0.000 A 
ATOM     11  C   UNL     1       7.295   4.260  11.953  0.00  0.00    +0.000 A 
ATOM     12  C   UNL     1       6.231   3.465  11.532  0.00  0.00    +0.000 A 
ATOM     13  C   UNL     1       5.178   3.179  12.395  0.00  0.00    +0.000 A 
ATOM     14  C   UNL     1       5.173   3.661  13.717  0.00  0.00    +0.000 A 
ATOM     15  C   UNL     1       6.250   4.450  14.187  0.00  0.00    +0.000 A 
ATOM     16  H   UNL     1       8.961   5.991  13.561  0.00  0.00    +0.000 HD
ENDBRANCH   5   7
BRANCH   1  18
ATOM     17  C   UNL     1       1.671   4.409  18.155  0.00  0.00    +0.000 C 
ATOM     18  C   UNL     1       2.495   5.704  18.216  0.00  0.00    +0.000 C 
BRANCH  18  19
ATOM     19  S   UNL     1       2.061   6.647  19.744  0.00  0.00    +0.000 S 
BRANCH  19  20
ATOM     20  C   UNL     1       1.833   8.267  19.173  0.00  0.00    +0.000 A 
ATOM     21  N   UNL     1       2.226   8.778  18.028  0.00  0.00    +0.000 NA
ATOM     22  N   UNL     1       1.742  10.066  17.946  0.00  0.00    +0.000 NA
ATOM     23  C   UNL     1       1.094  10.312  19.059  0.00  0.00    +0.000 A 
ATOM     24  N   UNL     1       1.140   9.217  19.869  0.00  0.00    +0.000 N 
ATOM     25  C   UNL     1       0.575   9.129  21.188  0.00  0.00    +0.000 C 
ENDBRANCH  19  20
ENDBRANCH  18  19
ENDBRANCH   1  18
TORSDOF 4
ENDMDL
