MODEL 1
REMARK VINA RESULT:      -8.2      0.000      0.000
REMARK  Name = 
REMARK  9 active torsions:
REMARK  status: ('A' for Active; 'I' for Inactive)
REMARK    1  A    between atoms: C_1  and  O_2
REMARK    2  A    between atoms: O_2  and  C_3
REMARK    3  A    between atoms: C_7  and  C_8
REMARK    4  A    between atoms: N_10  and  C_11
REMARK    5  A    between atoms: C_15  and  C_16
REMARK    6  A    between atoms: C_16  and  C_17
REMARK    7  A    between atoms: C_16  and  S_18
REMARK    8  A    between atoms: S_18  and  C_19
REMARK    9  A    between atoms: N_23  and  C_24
REMARK                            x       y       z     vdW  Elec       q    Type
REMARK                         _______ _______ _______ _____ _____    ______ ____
ROOT
ATOM      1  C   UNL     1       0.684   9.425  20.713  0.00  0.00    +0.000 A 
ATOM      2  C   UNL     1       0.846   8.867  21.983  0.00  0.00    +0.000 A 
ATOM      3  C   UNL     1       0.160   9.412  23.072  0.00  0.00    +0.000 A 
ATOM      4  C   UNL     1      -0.673  10.525  22.906  0.00  0.00    +0.000 A 
ATOM      5  C   UNL     1      -0.838  11.110  21.643  0.00  0.00    +0.000 A 
ATOM      6  C   UNL     1      -0.165  10.531  20.549  0.00  0.00    +0.000 A 
ENDROOT
BRANCH   1   9
ATOM      7  C   UNL     1       2.566   7.646  18.250  0.00  0.00    +0.000 A 
ATOM      8  C   UNL     1       2.034   7.682  19.516  0.00  0.00    +0.000 A 
ATOM      9  N   UNL     1       1.372   8.884  19.597  0.00  0.00    +0.000 N 
ATOM     10  N   UNL     1       1.470   9.530  18.410  0.00  0.00    +0.000 NA
ATOM     11  N   UNL     1       2.199   8.785  17.587  0.00  0.00    +0.000 NA
BRANCH   7  16
ATOM     12  C   UNL     1       3.927   4.228  17.402  0.00  0.00    +0.000 A 
ATOM     13  C   UNL     1       5.075   4.582  16.691  0.00  0.00    +0.000 A 
ATOM     14  C   UNL     1       5.389   5.924  16.476  0.00  0.00    +0.000 A 
ATOM     15  C   UNL     1       4.559   6.925  16.980  0.00  0.00    +0.000 A 
ATOM     16  C   UNL     1       3.404   6.595  17.699  0.00  0.00    +0.000 A 
ATOM     17  C   UNL     1       3.095   5.235  17.896  0.00  0.00    +0.000 A 
BRANCH  12  19
ATOM     18  C   UNL     1       3.525   2.405  18.880  0.00  0.00    +0.000 C 
ATOM     19  O   UNL     1       3.732   2.883  17.555  0.00  0.00    +0.000 OA
ENDBRANCH  12  19
ENDBRANCH   7  16
ENDBRANCH   1   9
BRANCH   5  20
ATOM     20  C   UNL     1      -1.728  12.338  21.447  0.00  0.00    +0.000 C 
ATOM     21  C   UNL     1      -1.151  13.211  20.325  0.00  0.00    +0.000 C 
BRANCH  20  22
ATOM     22  S   UNL     1      -1.885  13.236  23.057  0.00  0.00    +0.000 S 
BRANCH  22  23
ATOM     23  C   UNL     1      -3.527  12.963  23.505  0.00  0.00    +0.000 A 
ATOM     24  N   UNL     1      -3.979  12.044  24.327  0.00  0.00    +0.000 NA
ATOM     25  N   UNL     1      -5.354  12.104  24.309  0.00  0.00    +0.000 NA
ATOM     26  C   UNL     1      -5.699  13.082  23.504  0.00  0.00    +0.000 A 
ATOM     27  N   UNL     1      -4.580  13.681  23.003  0.00  0.00    +0.000 N 
ATOM     28  C   UNL     1      -4.561  14.833  22.146  0.00  0.00    +0.000 C 
ENDBRANCH  22  23
ENDBRANCH  20  22
ENDBRANCH   5  20
TORSDOF 6
ENDMDL
MODEL 2
REMARK VINA RESULT:      -8.1      4.427     10.094
REMARK  Name = 
REMARK  9 active torsions:
REMARK  status: ('A' for Active; 'I' for Inactive)
REMARK    1  A    between atoms: C_1  and  O_2
REMARK    2  A    between atoms: O_2  and  C_3
REMARK    3  A    between atoms: C_7  and  C_8
REMARK    4  A    between atoms: N_10  and  C_11
REMARK    5  A    between atoms: C_15  and  C_16
REMARK    6  A    between atoms: C_16  and  C_17
REMARK    7  A    between atoms: C_16  and  S_18
REMARK    8  A    between atoms: S_18  and  C_19
REMARK    9  A    between atoms: N_23  and  C_24
REMARK                            x       y       z     vdW  Elec       q    Type
REMARK                         _______ _______ _______ _____ _____    ______ ____
ROOT
ATOM      1  C   UNL     1       1.137   9.295  20.016  0.00  0.00    +0.000 A 
ATOM      2  C   UNL     1       1.123   9.955  18.785  0.00  0.00    +0.000 A 
ATOM      3  C   UNL     1       1.738   9.366  17.677  0.00  0.00    +0.000 A 
ATOM      4  C   UNL     1       2.386   8.130  17.793  0.00  0.00    +0.000 A 
ATOM      5  C   UNL     1       2.425   7.459  19.022  0.00  0.00    +0.000 A 
ATOM      6  C   UNL     1       1.775   8.049  20.123  0.00  0.00    +0.000 A 
ENDROOT
BRANCH   1   9
ATOM      7  C   UNL     1      -0.648  11.129  22.511  0.00  0.00    +0.000 A 
ATOM      8  C   UNL     1      -0.392  10.908  21.179  0.00  0.00    +0.000 A 
ATOM      9  N   UNL     1       0.518   9.878  21.151  0.00  0.00    +0.000 N 
ATOM     10  N   UNL     1       0.770   9.469  22.417  0.00  0.00    +0.000 NA
ATOM     11  N   UNL     1       0.067  10.228  23.251  0.00  0.00    +0.000 NA
BRANCH   7  16
ATOM     12  C   UNL     1      -1.870  14.454  23.818  0.00  0.00    +0.000 A 
ATOM     13  C   UNL     1      -3.171  14.116  24.192  0.00  0.00    +0.000 A 
ATOM     14  C   UNL     1      -3.648  12.819  24.003  0.00  0.00    +0.000 A 
ATOM     15  C   UNL     1      -2.822  11.846  23.441  0.00  0.00    +0.000 A 
ATOM     16  C   UNL     1      -1.512  12.160  23.061  0.00  0.00    +0.000 A 
ATOM     17  C   UNL     1      -1.050  13.477  23.249  0.00  0.00    +0.000 A 
BRANCH  12  19
ATOM     18  C   UNL     1      -0.710  16.399  23.084  0.00  0.00    +0.000 C 
ATOM     19  O   UNL     1      -1.514  15.752  24.064  0.00  0.00    +0.000 OA
ENDBRANCH  12  19
ENDBRANCH   7  16
ENDBRANCH   1   9
BRANCH   5  20
ATOM     20  C   UNL     1       3.146   6.118  19.172  0.00  0.00    +0.000 C 
ATOM     21  C   UNL     1       4.440   6.141  18.349  0.00  0.00    +0.000 C 
BRANCH  20  22
ATOM     22  S   UNL     1       1.997   4.754  18.679  0.00  0.00    +0.000 S 
BRANCH  22  23
ATOM     23  C   UNL     1       2.016   3.705  20.047  0.00  0.00    +0.000 A 
ATOM     24  N   UNL     1       1.071   3.565  20.947  0.00  0.00    +0.000 NA
ATOM     25  N   UNL     1       1.543   2.716  21.924  0.00  0.00    +0.000 NA
ATOM     26  C   UNL     1       2.748   2.336  21.571  0.00  0.00    +0.000 A 
ATOM     27  N   UNL     1       3.076   2.902  20.372  0.00  0.00    +0.000 N 
ATOM     28  C   UNL     1       4.286   2.660  19.637  0.00  0.00    +0.000 C 
ENDBRANCH  22  23
ENDBRANCH  20  22
ENDBRANCH   5  20
TORSDOF 6
ENDMDL
MODEL 3
REMARK VINA RESULT:      -8.1      4.250     10.147
REMARK  Name = 
REMARK  9 active torsions:
REMARK  status: ('A' for Active; 'I' for Inactive)
REMARK    1  A    between atoms: C_1  and  O_2
REMARK    2  A    between atoms: O_2  and  C_3
REMARK    3  A    between atoms: C_7  and  C_8
REMARK    4  A    between atoms: N_10  and  C_11
REMARK    5  A    between atoms: C_15  and  C_16
REMARK    6  A    between atoms: C_16  and  C_17
REMARK    7  A    between atoms: C_16  and  S_18
REMARK    8  A    between atoms: S_18  and  C_19
REMARK    9  A    between atoms: N_23  and  C_24
REMARK                            x       y       z     vdW  Elec       q    Type
REMARK                         _______ _______ _______ _____ _____    ______ ____
ROOT
ATOM      1  C   UNL     1       0.916   9.418  20.194  0.00  0.00    +0.000 A 
ATOM      2  C   UNL     1       0.864  10.022  18.935  0.00  0.00    +0.000 A 
ATOM      3  C   UNL     1       1.483   9.405  17.845  0.00  0.00    +0.000 A 
ATOM      4  C   UNL     1       2.173   8.198  18.005  0.00  0.00    +0.000 A 
ATOM      5  C   UNL     1       2.251   7.583  19.261  0.00  0.00    +0.000 A 
ATOM      6  C   UNL     1       1.596   8.199  20.345  0.00  0.00    +0.000 A 
ENDROOT
BRANCH   1   9
ATOM      7  C   UNL     1      -0.868  11.322  22.636  0.00  0.00    +0.000 A 
ATOM      8  C   UNL     1      -0.599  11.076  21.311  0.00  0.00    +0.000 A 
ATOM      9  N   UNL     1       0.293  10.029  21.311  0.00  0.00    +0.000 N 
ATOM     10  N   UNL     1       0.521   9.635  22.587  0.00  0.00    +0.000 NA
ATOM     11  N   UNL     1      -0.179  10.420  23.399  0.00  0.00    +0.000 NA
BRANCH   7  16
ATOM     12  C   UNL     1      -3.918  13.196  23.836  0.00  0.00    +0.000 A 
ATOM     13  C   UNL     1      -3.359  14.448  24.097  0.00  0.00    +0.000 A 
ATOM     14  C   UNL     1      -1.997  14.670  23.900  0.00  0.00    +0.000 A 
ATOM     15  C   UNL     1      -1.181  13.640  23.431  0.00  0.00    +0.000 A 
ATOM     16  C   UNL     1      -1.720  12.377  23.159  0.00  0.00    +0.000 A 
ATOM     17  C   UNL     1      -3.096  12.167  23.375  0.00  0.00    +0.000 A 
BRANCH  12  19
ATOM     18  C   UNL     1      -6.093  12.866  22.925  0.00  0.00    +0.000 C 
ATOM     19  O   UNL     1      -5.265  13.105  24.057  0.00  0.00    +0.000 OA
ENDBRANCH  12  19
ENDBRANCH   7  16
ENDBRANCH   1   9
BRANCH   5  20
ATOM     20  C   UNL     1       3.017   6.274  19.459  0.00  0.00    +0.000 C 
ATOM     21  C   UNL     1       3.277   5.625  18.093  0.00  0.00    +0.000 C 
BRANCH  20  22
ATOM     22  S   UNL     1       2.067   5.182  20.610  0.00  0.00    +0.000 S 
BRANCH  22  23
ATOM     23  C   UNL     1       1.774   3.769  19.668  0.00  0.00    +0.000 A 
ATOM     24  N   UNL     1       0.706   3.505  18.950  0.00  0.00    +0.000 NA
ATOM     25  N   UNL     1       0.836   2.226  18.457  0.00  0.00    +0.000 NA
ATOM     26  C   UNL     1       1.996   1.762  18.859  0.00  0.00    +0.000 A 
ATOM     27  N   UNL     1       2.644   2.714  19.593  0.00  0.00    +0.000 N 
ATOM     28  C   UNL     1       3.967   2.593  20.136  0.00  0.00    +0.000 C 
ENDBRANCH  22  23
ENDBRANCH  20  22
ENDBRANCH   5  20
TORSDOF 6
ENDMDL
MODEL 4
REMARK VINA RESULT:      -8.1      1.199      1.802
REMARK  Name = 
REMARK  9 active torsions:
REMARK  status: ('A' for Active; 'I' for Inactive)
REMARK    1  A    between atoms: C_1  and  O_2
REMARK    2  A    between atoms: O_2  and  C_3
REMARK    3  A    between atoms: C_7  and  C_8
REMARK    4  A    between atoms: N_10  and  C_11
REMARK    5  A    between atoms: C_15  and  C_16
REMARK    6  A    between atoms: C_16  and  C_17
REMARK    7  A    between atoms: C_16  and  S_18
REMARK    8  A    between atoms: S_18  and  C_19
REMARK    9  A    between atoms: N_23  and  C_24
REMARK                            x       y       z     vdW  Elec       q    Type
REMARK                         _______ _______ _______ _____ _____    ______ ____
ROOT
ATOM      1  C   UNL     1       0.667   9.581  20.707  0.00  0.00    +0.000 A 
ATOM      2  C   UNL     1       0.548   8.879  21.909  0.00  0.00    +0.000 A 
ATOM      3  C   UNL     1      -0.119   9.463  22.989  0.00  0.00    +0.000 A 
ATOM      4  C   UNL     1      -0.651  10.754  22.885  0.00  0.00    +0.000 A 
ATOM      5  C   UNL     1      -0.529  11.481  21.694  0.00  0.00    +0.000 A 
ATOM      6  C   UNL     1       0.118  10.869  20.604  0.00  0.00    +0.000 A 
ENDROOT
BRANCH   1   9
ATOM      7  C   UNL     1       2.496   7.708  18.274  0.00  0.00    +0.000 A 
ATOM      8  C   UNL     1       1.961   7.778  19.538  0.00  0.00    +0.000 A 
ATOM      9  N   UNL     1       1.340   9.003  19.601  0.00  0.00    +0.000 N 
ATOM     10  N   UNL     1       1.463   9.630  18.406  0.00  0.00    +0.000 NA
ATOM     11  N   UNL     1       2.170   8.849  17.595  0.00  0.00    +0.000 NA
BRANCH   7  16
ATOM     12  C   UNL     1       5.239   5.828  16.486  0.00  0.00    +0.000 A 
ATOM     13  C   UNL     1       4.796   4.515  16.652  0.00  0.00    +0.000 A 
ATOM     14  C   UNL     1       3.622   4.248  17.356  0.00  0.00    +0.000 A 
ATOM     15  C   UNL     1       2.877   5.296  17.896  0.00  0.00    +0.000 A 
ATOM     16  C   UNL     1       3.300   6.621  17.739  0.00  0.00    +0.000 A 
ATOM     17  C   UNL     1       4.493   6.872  17.036  0.00  0.00    +0.000 A 
BRANCH  12  19
ATOM     18  C   UNL     1       7.083   4.767  15.416  0.00  0.00    +0.000 C 
ATOM     19  O   UNL     1       6.397   5.963  15.769  0.00  0.00    +0.000 OA
ENDBRANCH  12  19
ENDBRANCH   7  16
ENDBRANCH   1   9
BRANCH   5  20
ATOM     20  C   UNL     1      -1.087  12.900  21.570  0.00  0.00    +0.000 C 
ATOM     21  C   UNL     1      -0.922  13.632  22.908  0.00  0.00    +0.000 C 
BRANCH  20  22
ATOM     22  S   UNL     1      -2.846  12.813  21.004  0.00  0.00    +0.000 S 
BRANCH  22  23
ATOM     23  C   UNL     1      -3.741  12.907  22.473  0.00  0.00    +0.000 A 
ATOM     24  N   UNL     1      -3.836  11.982  23.401  0.00  0.00    +0.000 NA
ATOM     25  N   UNL     1      -4.739  12.422  24.343  0.00  0.00    +0.000 NA
ATOM     26  C   UNL     1      -5.141  13.618  23.980  0.00  0.00    +0.000 A 
ATOM     27  N   UNL     1      -4.508  13.985  22.827  0.00  0.00    +0.000 N 
ATOM     28  C   UNL     1      -4.640  15.255  22.170  0.00  0.00    +0.000 C 
ENDBRANCH  22  23
ENDBRANCH  20  22
ENDBRANCH   5  20
TORSDOF 6
ENDMDL
MODEL 5
REMARK VINA RESULT:      -8.0      4.456     10.448
REMARK  Name = 
REMARK  9 active torsions:
REMARK  status: ('A' for Active; 'I' for Inactive)
REMARK    1  A    between atoms: C_1  and  O_2
REMARK    2  A    between atoms: O_2  and  C_3
REMARK    3  A    between atoms: C_7  and  C_8
REMARK    4  A    between atoms: N_10  and  C_11
REMARK    5  A    between atoms: C_15  and  C_16
REMARK    6  A    between atoms: C_16  and  C_17
REMARK    7  A    between atoms: C_16  and  S_18
REMARK    8  A    between atoms: S_18  and  C_19
REMARK    9  A    between atoms: N_23  and  C_24
REMARK                            x       y       z     vdW  Elec       q    Type
REMARK                         _______ _______ _______ _____ _____    ______ ____
ROOT
ATOM      1  C   UNL     1       0.936   9.358  20.141  0.00  0.00    +0.000 A 
ATOM      2  C   UNL     1       0.815   9.949  18.881  0.00  0.00    +0.000 A 
ATOM      3  C   UNL     1       1.419   9.349  17.773  0.00  0.00    +0.000 A 
ATOM      4  C   UNL     1       2.162   8.171  17.917  0.00  0.00    +0.000 A 
ATOM      5  C   UNL     1       2.309   7.570  19.174  0.00  0.00    +0.000 A 
ATOM      6  C   UNL     1       1.669   8.168  20.276  0.00  0.00    +0.000 A 
ENDROOT
BRANCH   1   9
ATOM      7  C   UNL     1      -0.822  11.221  22.634  0.00  0.00    +0.000 A 
ATOM      8  C   UNL     1      -0.578  10.987  21.302  0.00  0.00    +0.000 A 
ATOM      9  N   UNL     1       0.328   9.953  21.275  0.00  0.00    +0.000 N 
ATOM     10  N   UNL     1       0.590   9.555  22.543  0.00  0.00    +0.000 NA
ATOM     11  N   UNL     1      -0.103  10.325  23.376  0.00  0.00    +0.000 NA
BRANCH   7  16
ATOM     12  C   UNL     1      -2.012  14.554  23.949  0.00  0.00    +0.000 A 
ATOM     13  C   UNL     1      -3.321  14.231  24.309  0.00  0.00    +0.000 A 
ATOM     14  C   UNL     1      -3.813  12.941  24.107  0.00  0.00    +0.000 A 
ATOM     15  C   UNL     1      -2.995  11.960  23.548  0.00  0.00    +0.000 A 
ATOM     16  C   UNL     1      -1.677  12.260  23.182  0.00  0.00    +0.000 A 
ATOM     17  C   UNL     1      -1.200  13.570  23.381  0.00  0.00    +0.000 A 
BRANCH  12  19
ATOM     18  C   UNL     1      -2.686  16.780  24.460  0.00  0.00    +0.000 C 
ATOM     19  O   UNL     1      -1.642  15.846  24.205  0.00  0.00    +0.000 OA
ENDBRANCH  12  19
ENDBRANCH   7  16
ENDBRANCH   1   9
BRANCH   5  20
ATOM     20  C   UNL     1       3.134   6.294  19.353  0.00  0.00    +0.000 C 
ATOM     21  C   UNL     1       3.568   5.771  17.977  0.00  0.00    +0.000 C 
BRANCH  20  22
ATOM     22  S   UNL     1       2.146   5.064  20.318  0.00  0.00    +0.000 S 
BRANCH  22  23
ATOM     23  C   UNL     1       2.827   3.552  19.848  0.00  0.00    +0.000 A 
ATOM     24  N   UNL     1       4.047   3.127  20.084  0.00  0.00    +0.000 NA
ATOM     25  N   UNL     1       4.206   1.923  19.435  0.00  0.00    +0.000 NA
ATOM     26  C   UNL     1       3.067   1.632  18.853  0.00  0.00    +0.000 A 
ATOM     27  N   UNL     1       2.152   2.610  19.118  0.00  0.00    +0.000 N 
ATOM     28  C   UNL     1       0.776   2.599  18.709  0.00  0.00    +0.000 C 
ENDBRANCH  22  23
ENDBRANCH  20  22
ENDBRANCH   5  20
TORSDOF 6
ENDMDL
MODEL 6
REMARK VINA RESULT:      -8.0      1.243      1.911
REMARK  Name = 
REMARK  9 active torsions:
REMARK  status: ('A' for Active; 'I' for Inactive)
REMARK    1  A    between atoms: C_1  and  O_2
REMARK    2  A    between atoms: O_2  and  C_3
REMARK    3  A    between atoms: C_7  and  C_8
REMARK    4  A    between atoms: N_10  and  C_11
REMARK    5  A    between atoms: C_15  and  C_16
REMARK    6  A    between atoms: C_16  and  C_17
REMARK    7  A    between atoms: C_16  and  S_18
REMARK    8  A    between atoms: S_18  and  C_19
REMARK    9  A    between atoms: N_23  and  C_24
REMARK                            x       y       z     vdW  Elec       q    Type
REMARK                         _______ _______ _______ _____ _____    ______ ____
ROOT
ATOM      1  C   UNL     1       0.899   9.294  20.466  0.00  0.00    +0.000 A 
ATOM      2  C   UNL     1       0.996   8.735  21.743  0.00  0.00    +0.000 A 
ATOM      3  C   UNL     1       0.294   9.310  22.805  0.00  0.00    +0.000 A 
ATOM      4  C   UNL     1      -0.490  10.454  22.608  0.00  0.00    +0.000 A 
ATOM      5  C   UNL     1      -0.589  11.039  21.338  0.00  0.00    +0.000 A 
ATOM      6  C   UNL     1       0.099  10.431  20.270  0.00  0.00    +0.000 A 
ENDROOT
BRANCH   1   9
ATOM      7  C   UNL     1       2.797   7.435  18.075  0.00  0.00    +0.000 A 
ATOM      8  C   UNL     1       2.224   7.497  19.323  0.00  0.00    +0.000 A 
ATOM      9  N   UNL     1       1.603   8.723  19.377  0.00  0.00    +0.000 N 
ATOM     10  N   UNL     1       1.764   9.358  18.191  0.00  0.00    +0.000 NA
ATOM     11  N   UNL     1       2.493   8.583  17.395  0.00  0.00    +0.000 NA
BRANCH   7  16
ATOM     12  C   UNL     1       5.550   5.563  16.295  0.00  0.00    +0.000 A 
ATOM     13  C   UNL     1       5.137   4.247  16.503  0.00  0.00    +0.000 A 
ATOM     14  C   UNL     1       3.979   3.975  17.233  0.00  0.00    +0.000 A 
ATOM     15  C   UNL     1       3.221   5.022  17.756  0.00  0.00    +0.000 A 
ATOM     16  C   UNL     1       3.614   6.351  17.557  0.00  0.00    +0.000 A 
ATOM     17  C   UNL     1       4.791   6.607  16.828  0.00  0.00    +0.000 A 
BRANCH  12  19
ATOM     18  C   UNL     1       6.801   4.913  14.376  0.00  0.00    +0.000 C 
ATOM     19  O   UNL     1       6.693   5.702  15.556  0.00  0.00    +0.000 OA
ENDBRANCH  12  19
ENDBRANCH   7  16
ENDBRANCH   1   9
BRANCH   5  20
ATOM     20  C   UNL     1      -1.424  12.300  21.108  0.00  0.00    +0.000 C 
ATOM     21  C   UNL     1      -0.795  13.128  19.980  0.00  0.00    +0.000 C 
BRANCH  20  22
ATOM     22  S   UNL     1      -1.566  13.232  22.700  0.00  0.00    +0.000 S 
BRANCH  22  23
ATOM     23  C   UNL     1      -3.241  13.106  23.085  0.00  0.00    +0.000 A 
ATOM     24  N   UNL     1      -4.132  12.341  22.497  0.00  0.00    +0.000 NA
ATOM     25  N   UNL     1      -5.363  12.637  23.038  0.00  0.00    +0.000 NA
ATOM     26  C   UNL     1      -5.181  13.547  23.965  0.00  0.00    +0.000 A 
ATOM     27  N   UNL     1      -3.853  13.847  24.061  0.00  0.00    +0.000 N 
ATOM     28  C   UNL     1      -3.266  14.746  25.014  0.00  0.00    +0.000 C 
ENDBRANCH  22  23
ENDBRANCH  20  22
ENDBRANCH   5  20
TORSDOF 6
ENDMDL
MODEL 7
REMARK VINA RESULT:      -8.0      4.325     10.404
REMARK  Name = 
REMARK  9 active torsions:
REMARK  status: ('A' for Active; 'I' for Inactive)
REMARK    1  A    between atoms: C_1  and  O_2
REMARK    2  A    between atoms: O_2  and  C_3
REMARK    3  A    between atoms: C_7  and  C_8
REMARK    4  A    between atoms: N_10  and  C_11
REMARK    5  A    between atoms: C_15  and  C_16
REMARK    6  A    between atoms: C_16  and  C_17
REMARK    7  A    between atoms: C_16  and  S_18
REMARK    8  A    between atoms: S_18  and  C_19
REMARK    9  A    between atoms: N_23  and  C_24
REMARK                            x       y       z     vdW  Elec       q    Type
REMARK                         _______ _______ _______ _____ _____    ______ ____
ROOT
ATOM      1  C   UNL     1       1.122   9.330  20.114  0.00  0.00    +0.000 A 
ATOM      2  C   UNL     1       1.213  10.060  18.927  0.00  0.00    +0.000 A 
ATOM      3  C   UNL     1       1.843   9.497  17.814  0.00  0.00    +0.000 A 
ATOM      4  C   UNL     1       2.404   8.216  17.884  0.00  0.00    +0.000 A 
ATOM      5  C   UNL     1       2.338   7.473  19.070  0.00  0.00    +0.000 A 
ATOM      6  C   UNL     1       1.672   8.040  20.174  0.00  0.00    +0.000 A 
ENDROOT
BRANCH   1   9
ATOM      7  C   UNL     1      -0.735  11.078  22.618  0.00  0.00    +0.000 A 
ATOM      8  C   UNL     1      -0.485  10.860  21.285  0.00  0.00    +0.000 A 
ATOM      9  N   UNL     1       0.485   9.886  21.252  0.00  0.00    +0.000 N 
ATOM     10  N   UNL     1       0.779   9.505  22.519  0.00  0.00    +0.000 NA
ATOM     11  N   UNL     1       0.044  10.230  23.356  0.00  0.00    +0.000 NA
BRANCH   7  16
ATOM     12  C   UNL     1      -3.838  12.656  24.080  0.00  0.00    +0.000 A 
ATOM     13  C   UNL     1      -3.428  13.987  24.167  0.00  0.00    +0.000 A 
ATOM     14  C   UNL     1      -2.144  14.360  23.769  0.00  0.00    +0.000 A 
ATOM     15  C   UNL     1      -1.260  13.402  23.272  0.00  0.00    +0.000 A 
ATOM     16  C   UNL     1      -1.651  12.061  23.172  0.00  0.00    +0.000 A 
ATOM     17  C   UNL     1      -2.946  11.700  23.589  0.00  0.00    +0.000 A 
BRANCH  12  19
ATOM     18  C   UNL     1      -6.168  12.959  23.692  0.00  0.00    +0.000 C 
ATOM     19  O   UNL     1      -5.121  12.417  24.490  0.00  0.00    +0.000 OA
ENDBRANCH  12  19
ENDBRANCH   7  16
ENDBRANCH   1   9
BRANCH   5  20
ATOM     20  C   UNL     1       2.962   6.080  19.170  0.00  0.00    +0.000 C 
ATOM     21  C   UNL     1       4.263   6.046  18.358  0.00  0.00    +0.000 C 
BRANCH  20  22
ATOM     22  S   UNL     1       1.727   4.820  18.614  0.00  0.00    +0.000 S 
BRANCH  22  23
ATOM     23  C   UNL     1       2.650   3.367  18.534  0.00  0.00    +0.000 A 
ATOM     24  N   UNL     1       3.126   2.793  17.453  0.00  0.00    +0.000 NA
ATOM     25  N   UNL     1       3.698   1.598  17.829  0.00  0.00    +0.000 NA
ATOM     26  C   UNL     1       3.586   1.497  19.133  0.00  0.00    +0.000 A 
ATOM     27  N   UNL     1       2.967   2.608  19.629  0.00  0.00    +0.000 N 
ATOM     28  C   UNL     1       2.735   2.886  21.018  0.00  0.00    +0.000 C 
ENDBRANCH  22  23
ENDBRANCH  20  22
ENDBRANCH   5  20
TORSDOF 6
ENDMDL
MODEL 8
REMARK VINA RESULT:      -7.9      3.755      5.918
REMARK  Name = 
REMARK  9 active torsions:
REMARK  status: ('A' for Active; 'I' for Inactive)
REMARK    1  A    between atoms: C_1  and  O_2
REMARK    2  A    between atoms: O_2  and  C_3
REMARK    3  A    between atoms: C_7  and  C_8
REMARK    4  A    between atoms: N_10  and  C_11
REMARK    5  A    between atoms: C_15  and  C_16
REMARK    6  A    between atoms: C_16  and  C_17
REMARK    7  A    between atoms: C_16  and  S_18
REMARK    8  A    between atoms: S_18  and  C_19
REMARK    9  A    between atoms: N_23  and  C_24
REMARK                            x       y       z     vdW  Elec       q    Type
REMARK                         _______ _______ _______ _____ _____    ______ ____
ROOT
ATOM      1  C   UNL     1       3.654   5.290  18.799  0.00  0.00    +0.000 A 
ATOM      2  C   UNL     1       3.106   4.265  19.574  0.00  0.00    +0.000 A 
ATOM      3  C   UNL     1       2.101   4.557  20.499  0.00  0.00    +0.000 A 
ATOM      4  C   UNL     1       1.650   5.872  20.671  0.00  0.00    +0.000 A 
ATOM      5  C   UNL     1       2.197   6.917  19.915  0.00  0.00    +0.000 A 
ATOM      6  C   UNL     1       3.187   6.603  18.965  0.00  0.00    +0.000 A 
ENDROOT
BRANCH   1   9
ATOM      7  C   UNL     1       5.824   4.651  16.031  0.00  0.00    +0.000 A 
ATOM      8  C   UNL     1       4.586   5.043  16.483  0.00  0.00    +0.000 A 
ATOM      9  N   UNL     1       4.674   5.010  17.855  0.00  0.00    +0.000 N 
ATOM     10  N   UNL     1       5.929   4.649  18.214  0.00  0.00    +0.000 NA
ATOM     11  N   UNL     1       6.633   4.424  17.110  0.00  0.00    +0.000 NA
BRANCH   7  16
ATOM     12  C   UNL     1       5.923   3.402  12.470  0.00  0.00    +0.000 A 
ATOM     13  C   UNL     1       7.035   4.094  11.990  0.00  0.00    +0.000 A 
ATOM     14  C   UNL     1       7.734   4.972  12.817  0.00  0.00    +0.000 A 
ATOM     15  C   UNL     1       7.327   5.160  14.139  0.00  0.00    +0.000 A 
ATOM     16  C   UNL     1       6.216   4.475  14.643  0.00  0.00    +0.000 A 
ATOM     17  C   UNL     1       5.515   3.601  13.790  0.00  0.00    +0.000 A 
BRANCH  12  19
ATOM     18  C   UNL     1       6.023   1.364  11.242  0.00  0.00    +0.000 C 
ATOM     19  O   UNL     1       5.328   2.562  11.568  0.00  0.00    +0.000 OA
ENDBRANCH  12  19
ENDBRANCH   7  16
ENDBRANCH   1   9
BRANCH   5  20
ATOM     20  C   UNL     1       1.731   8.362  20.105  0.00  0.00    +0.000 C 
ATOM     21  C   UNL     1       0.483   8.382  20.997  0.00  0.00    +0.000 C 
BRANCH  20  22
ATOM     22  S   UNL     1       1.448   9.130  18.446  0.00  0.00    +0.000 S 
BRANCH  22  23
ATOM     23  C   UNL     1       0.642  10.606  18.824  0.00  0.00    +0.000 A 
ATOM     24  N   UNL     1       1.123  11.614  19.515  0.00  0.00    +0.000 NA
ATOM     25  N   UNL     1       0.111  12.533  19.677  0.00  0.00    +0.000 NA
ATOM     26  C   UNL     1      -0.947  12.075  19.049  0.00  0.00    +0.000 A 
ATOM     27  N   UNL     1      -0.650  10.880  18.460  0.00  0.00    +0.000 N 
ATOM     28  C   UNL     1      -1.535  10.116  17.627  0.00  0.00    +0.000 C 
ENDBRANCH  22  23
ENDBRANCH  20  22
ENDBRANCH   5  20
TORSDOF 6
ENDMDL
MODEL 9
REMARK VINA RESULT:      -7.8      2.590      3.651
REMARK  Name = 
REMARK  9 active torsions:
REMARK  status: ('A' for Active; 'I' for Inactive)
REMARK    1  A    between atoms: C_1  and  O_2
REMARK    2  A    between atoms: O_2  and  C_3
REMARK    3  A    between atoms: C_7  and  C_8
REMARK    4  A    between atoms: N_10  and  C_11
REMARK    5  A    between atoms: C_15  and  C_16
REMARK    6  A    between atoms: C_16  and  C_17
REMARK    7  A    between atoms: C_16  and  S_18
REMARK    8  A    between atoms: S_18  and  C_19
REMARK    9  A    between atoms: N_23  and  C_24
REMARK                            x       y       z     vdW  Elec       q    Type
REMARK                         _______ _______ _______ _____ _____    ______ ____
ROOT
ATOM      1  C   UNL     1       0.692   9.723  20.535  0.00  0.00    +0.000 A 
ATOM      2  C   UNL     1       0.716   9.173  21.819  0.00  0.00    +0.000 A 
ATOM      3  C   UNL     1       0.033   9.811  22.858  0.00  0.00    +0.000 A 
ATOM      4  C   UNL     1      -0.658  11.007  22.630  0.00  0.00    +0.000 A 
ATOM      5  C   UNL     1      -0.681  11.584  21.353  0.00  0.00    +0.000 A 
ATOM      6  C   UNL     1      -0.015  10.915  20.309  0.00  0.00    +0.000 A 
ENDROOT
BRANCH   1   9
ATOM      7  C   UNL     1       2.519   7.709  18.216  0.00  0.00    +0.000 A 
ATOM      8  C   UNL     1       1.937   7.832  19.455  0.00  0.00    +0.000 A 
ATOM      9  N   UNL     1       1.379   9.089  19.470  0.00  0.00    +0.000 N 
ATOM     10  N   UNL     1       1.584   9.684  18.270  0.00  0.00    +0.000 NA
ATOM     11  N   UNL     1       2.282   8.852  17.504  0.00  0.00    +0.000 NA
BRANCH   7  16
ATOM     12  C   UNL     1       3.568   4.163  17.454  0.00  0.00    +0.000 A 
ATOM     13  C   UNL     1       4.815   4.388  16.870  0.00  0.00    +0.000 A 
ATOM     14  C   UNL     1       5.298   5.686  16.711  0.00  0.00    +0.000 A 
ATOM     15  C   UNL     1       4.538   6.773  17.144  0.00  0.00    +0.000 A 
ATOM     16  C   UNL     1       3.286   6.572  17.736  0.00  0.00    +0.000 A 
ATOM     17  C   UNL     1       2.808   5.255  17.878  0.00  0.00    +0.000 A 
BRANCH  12  19
ATOM     18  C   UNL     1       2.127   2.543  18.439  0.00  0.00    +0.000 C 
ATOM     19  O   UNL     1       3.208   2.847  17.564  0.00  0.00    +0.000 OA
ENDBRANCH  12  19
ENDBRANCH   7  16
ENDBRANCH   1   9
BRANCH   5  20
ATOM     20  C   UNL     1      -1.413  12.901  21.090  0.00  0.00    +0.000 C 
ATOM     21  C   UNL     1      -2.809  12.604  20.527  0.00  0.00    +0.000 C 
BRANCH  20  22
ATOM     22  S   UNL     1      -0.386  13.952  19.966  0.00  0.00    +0.000 S 
BRANCH  22  23
ATOM     23  C   UNL     1       1.139  14.016  20.766  0.00  0.00    +0.000 A 
ATOM     24  N   UNL     1       1.367  14.396  22.002  0.00  0.00    +0.000 NA
ATOM     25  N   UNL     1       2.731  14.406  22.194  0.00  0.00    +0.000 NA
ATOM     26  C   UNL     1       3.292  13.996  21.081  0.00  0.00    +0.000 A 
ATOM     27  N   UNL     1       2.326  13.699  20.162  0.00  0.00    +0.000 N 
ATOM     28  C   UNL     1       2.557  13.153  18.854  0.00  0.00    +0.000 C 
ENDBRANCH  22  23
ENDBRANCH  20  22
ENDBRANCH   5  20
TORSDOF 6
ENDMDL
