MODEL 1
REMARK VINA RESULT:      -9.9      0.000      0.000
REMARK  Name = 
REMARK  8 active torsions:
REMARK  status: ('A' for Active; 'I' for Inactive)
REMARK    1  A    between atoms: C_1  and  N_2
REMARK    2  A    between atoms: C_6  and  C_7
REMARK    3  A    between atoms: C_7  and  C_9
REMARK    4  A    between atoms: C_9  and  C_10
REMARK    5  A    between atoms: C_14  and  N_15
REMARK    6  A    between atoms: C_20  and  C_21
REMARK    7  A    between atoms: C_21  and  N_22
REMARK    8  A    between atoms: C_29  and  C_30
REMARK                            x       y       z     vdW  Elec       q    Type
REMARK                         _______ _______ _______ _____ _____    ______ ____
ROOT
ATOM      1  N   UNL     1       1.246   8.333  20.347  0.00  0.00    +0.000 N 
ATOM      2  C   UNL     1       1.398   6.969  20.802  0.00  0.00    +0.000 C 
ATOM      3  C   UNL     1       2.156   6.296  19.729  0.00  0.00    +0.000 A 
ATOM      4  C   UNL     1       2.516   7.224  18.756  0.00  0.00    +0.000 A 
ATOM      5  C   UNL     1       3.303   6.846  17.681  0.00  0.00    +0.000 A 
ATOM      6  C   UNL     1       3.716   5.499  17.598  0.00  0.00    +0.000 A 
ATOM      7  C   UNL     1       3.287   4.566  18.572  0.00  0.00    +0.000 A 
ATOM      8  C   UNL     1       2.495   4.945  19.654  0.00  0.00    +0.000 A 
ATOM      9  C   UNL     1       1.911   8.538  19.128  0.00  0.00    +0.000 C 
ATOM     10  O   UNL     1       1.994   9.535  18.439  0.00  0.00    +0.000 OA
ENDROOT
BRANCH   1  15
ATOM     11  C   UNL     1      -1.070  11.217  20.969  0.00  0.00    +0.000 A 
ATOM     12  C   UNL     1      -1.087  11.227  22.368  0.00  0.00    +0.000 A 
ATOM     13  C   UNL     1      -0.378  10.271  23.114  0.00  0.00    +0.000 A 
ATOM     14  C   UNL     1       0.395   9.281  22.482  0.00  0.00    +0.000 A 
ATOM     15  C   UNL     1       0.418   9.216  21.094  0.00  0.00    +0.000 A 
ATOM     16  C   UNL     1      -0.364  10.146  20.385  0.00  0.00    +0.000 A 
BRANCH  11  17
ATOM     17  C   UNL     1      -1.614  12.413  20.022  0.00  0.00    +0.000 C 
ATOM     18  C   UNL     1      -2.246  13.674  20.655  0.00  0.00    +0.000 C 
ATOM     19  O   UNL     1      -3.585  13.174  20.390  0.00  0.00    +0.000 OA
ATOM     20  C   UNL     1      -3.043  12.242  19.426  0.00  0.00    +0.000 C 
BRANCH  17  21
ATOM     21  C   UNL     1      -0.577  12.665  18.915  0.00  0.00    +0.000 C 
ATOM     22  F   UNL     1      -1.203  12.662  17.702  0.00  0.00    +0.000 F 
BRANCH  21  28
ATOM     23  C   UNL     1       2.023  13.109  20.613  0.00  0.00    +0.000 C 
ATOM     24  N   UNL     1       1.324  14.095  19.833  0.00  0.00    +0.000 N 
ATOM     25  C   UNL     1       1.680  15.402  19.713  0.00  0.00    +0.000 A 
ATOM     26  N   UNL     1       0.780  16.038  19.003  0.00  0.00    +0.000 NA
ATOM     27  N   UNL     1      -0.171  15.124  18.619  0.00  0.00    +0.000 NA
ATOM     28  C   UNL     1       0.173  13.943  19.098  0.00  0.00    +0.000 A 
ENDBRANCH  21  28
ENDBRANCH  17  21
ENDBRANCH  11  17
ENDBRANCH   1  15
BRANCH   8  29
ATOM     29  C   UNL     1       2.036   3.936  20.671  0.00  0.00    +0.000 C 
ATOM     30  F   UNL     1       0.678   3.805  20.738  0.00  0.00    +0.000 F 
ATOM     31  F   UNL     1       2.505   2.686  20.409  0.00  0.00    +0.000 F 
ATOM     32  F   UNL     1       2.436   4.242  21.931  0.00  0.00    +0.000 F 
ENDBRANCH   8  29
BRANCH   6  33
ATOM     33  C   UNL     1       4.692   5.023  16.540  0.00  0.00    +0.000 C 
BRANCH  33  34
ATOM     34  N   UNL     1       6.102   5.397  16.803  0.00  0.00    +0.000 NA
ATOM     35  C   UNL     1       6.222   6.858  16.944  0.00  0.00    +0.000 C 
ATOM     36  C   UNL     1       7.575   7.326  17.482  0.00  0.00    +0.000 C 
ATOM     37  C   UNL     1       7.924   6.612  18.778  0.00  0.00    +0.000 C 
ATOM     38  C   UNL     1       7.923   5.114  18.529  0.00  0.00    +0.000 C 
ATOM     39  C   UNL     1       6.567   4.658  17.991  0.00  0.00    +0.000 C 
ENDBRANCH  33  34
ENDBRANCH   6  33
TORSDOF 7
ENDMDL
MODEL 2
REMARK VINA RESULT:      -9.9      0.905      1.212
REMARK  Name = 
REMARK  8 active torsions:
REMARK  status: ('A' for Active; 'I' for Inactive)
REMARK    1  A    between atoms: C_1  and  N_2
REMARK    2  A    between atoms: C_6  and  C_7
REMARK    3  A    between atoms: C_7  and  C_9
REMARK    4  A    between atoms: C_9  and  C_10
REMARK    5  A    between atoms: C_14  and  N_15
REMARK    6  A    between atoms: C_20  and  C_21
REMARK    7  A    between atoms: C_21  and  N_22
REMARK    8  A    between atoms: C_29  and  C_30
REMARK                            x       y       z     vdW  Elec       q    Type
REMARK                         _______ _______ _______ _____ _____    ______ ____
ROOT
ATOM      1  N   UNL     1       1.285   8.130  20.465  0.00  0.00    +0.000 N 
ATOM      2  C   UNL     1       1.417   6.755  20.891  0.00  0.00    +0.000 C 
ATOM      3  C   UNL     1       2.160   6.092  19.802  0.00  0.00    +0.000 A 
ATOM      4  C   UNL     1       2.531   7.032  18.846  0.00  0.00    +0.000 A 
ATOM      5  C   UNL     1       3.307   6.664  17.760  0.00  0.00    +0.000 A 
ATOM      6  C   UNL     1       3.698   5.311  17.649  0.00  0.00    +0.000 A 
ATOM      7  C   UNL     1       3.257   4.366  18.606  0.00  0.00    +0.000 A 
ATOM      8  C   UNL     1       2.476   4.737  19.699  0.00  0.00    +0.000 A 
ATOM      9  C   UNL     1       1.949   8.349  19.247  0.00  0.00    +0.000 C 
ATOM     10  O   UNL     1       2.047   9.357  18.577  0.00  0.00    +0.000 OA
ENDROOT
BRANCH   1  15
ATOM     11  C   UNL     1      -0.900  11.094  21.174  0.00  0.00    +0.000 A 
ATOM     12  C   UNL     1      -0.973  11.023  22.570  0.00  0.00    +0.000 A 
ATOM     13  C   UNL     1      -0.346   9.988  23.282  0.00  0.00    +0.000 A 
ATOM     14  C   UNL     1       0.400   8.996  22.620  0.00  0.00    +0.000 A 
ATOM     15  C   UNL     1       0.475   9.011  21.232  0.00  0.00    +0.000 A 
ATOM     16  C   UNL     1      -0.228  10.023  20.552  0.00  0.00    +0.000 A 
BRANCH  11  17
ATOM     17  C   UNL     1      -1.342  12.371  20.281  0.00  0.00    +0.000 C 
ATOM     18  C   UNL     1      -2.154  13.520  20.924  0.00  0.00    +0.000 C 
ATOM     19  O   UNL     1      -3.391  13.000  20.365  0.00  0.00    +0.000 OA
ATOM     20  C   UNL     1      -2.630  12.213  19.420  0.00  0.00    +0.000 C 
BRANCH  17  21
ATOM     21  C   UNL     1      -0.144  12.798  19.417  0.00  0.00    +0.000 C 
ATOM     22  F   UNL     1      -0.555  13.726  18.504  0.00  0.00    +0.000 F 
BRANCH  21  28
ATOM     23  C   UNL     1       2.814  13.228  18.466  0.00  0.00    +0.000 C 
ATOM     24  N   UNL     1       2.271  13.538  19.762  0.00  0.00    +0.000 N 
ATOM     25  C   UNL     1       2.969  14.067  20.803  0.00  0.00    +0.000 A 
ATOM     26  N   UNL     1       2.194  14.139  21.858  0.00  0.00    +0.000 NA
ATOM     27  N   UNL     1       0.951  13.680  21.496  0.00  0.00    +0.000 NA
ATOM     28  C   UNL     1       0.990  13.342  20.220  0.00  0.00    +0.000 A 
ENDBRANCH  21  28
ENDBRANCH  17  21
ENDBRANCH  11  17
ENDBRANCH   1  15
BRANCH   8  29
ATOM     29  C   UNL     1       2.004   3.716  20.697  0.00  0.00    +0.000 C 
ATOM     30  F   UNL     1       2.457   2.451  20.443  0.00  0.00    +0.000 F 
ATOM     31  F   UNL     1       2.418   3.998  21.962  0.00  0.00    +0.000 F 
ATOM     32  F   UNL     1       0.652   3.616  20.746  0.00  0.00    +0.000 F 
ENDBRANCH   8  29
BRANCH   6  33
ATOM     33  C   UNL     1       4.662   4.841  16.578  0.00  0.00    +0.000 C 
BRANCH  33  34
ATOM     34  N   UNL     1       6.070   5.238  16.812  0.00  0.00    +0.000 NA
ATOM     35  C   UNL     1       6.187   6.706  16.837  0.00  0.00    +0.000 C 
ATOM     36  C   UNL     1       7.538   7.219  17.338  0.00  0.00    +0.000 C 
ATOM     37  C   UNL     1       7.887   6.611  18.687  0.00  0.00    +0.000 C 
ATOM     38  C   UNL     1       7.890   5.097  18.558  0.00  0.00    +0.000 C 
ATOM     39  C   UNL     1       6.536   4.596  18.056  0.00  0.00    +0.000 C 
ENDBRANCH  33  34
ENDBRANCH   6  33
TORSDOF 7
ENDMDL
MODEL 3
REMARK VINA RESULT:      -9.8      1.905      2.809
REMARK  Name = 
REMARK  8 active torsions:
REMARK  status: ('A' for Active; 'I' for Inactive)
REMARK    1  A    between atoms: C_1  and  N_2
REMARK    2  A    between atoms: C_6  and  C_7
REMARK    3  A    between atoms: C_7  and  C_9
REMARK    4  A    between atoms: C_9  and  C_10
REMARK    5  A    between atoms: C_14  and  N_15
REMARK    6  A    between atoms: C_20  and  C_21
REMARK    7  A    between atoms: C_21  and  N_22
REMARK    8  A    between atoms: C_29  and  C_30
REMARK                            x       y       z     vdW  Elec       q    Type
REMARK                         _______ _______ _______ _____ _____    ______ ____
ROOT
ATOM      1  N   UNL     1       1.302   8.141  20.322  0.00  0.00    +0.000 N 
ATOM      2  C   UNL     1       1.420   6.789  20.822  0.00  0.00    +0.000 C 
ATOM      3  C   UNL     1       2.184   6.069  19.785  0.00  0.00    +0.000 A 
ATOM      4  C   UNL     1       2.581   6.958  18.791  0.00  0.00    +0.000 A 
ATOM      5  C   UNL     1       3.380   6.532  17.744  0.00  0.00    +0.000 A 
ATOM      6  C   UNL     1       3.768   5.175  17.712  0.00  0.00    +0.000 A 
ATOM      7  C   UNL     1       3.303   4.281  18.705  0.00  0.00    +0.000 A 
ATOM      8  C   UNL     1       2.498   4.710  19.760  0.00  0.00    +0.000 A 
ATOM      9  C   UNL     1       1.994   8.294  19.110  0.00  0.00    +0.000 C 
ATOM     10  O   UNL     1       2.110   9.267  18.391  0.00  0.00    +0.000 OA
ENDROOT
BRANCH   1  15
ATOM     11  C   UNL     1      -0.987  11.072  20.804  0.00  0.00    +0.000 A 
ATOM     12  C   UNL     1      -1.016  11.140  22.201  0.00  0.00    +0.000 A 
ATOM     13  C   UNL     1      -0.324  10.208  22.992  0.00  0.00    +0.000 A 
ATOM     14  C   UNL     1       0.443   9.184  22.408  0.00  0.00    +0.000 A 
ATOM     15  C   UNL     1       0.478   9.062  21.024  0.00  0.00    +0.000 A 
ATOM     16  C   UNL     1      -0.288   9.971  20.270  0.00  0.00    +0.000 A 
BRANCH  11  17
ATOM     17  C   UNL     1      -1.509  12.234  19.803  0.00  0.00    +0.000 C 
ATOM     18  C   UNL     1      -0.574  12.782  18.700  0.00  0.00    +0.000 C 
ATOM     19  O   UNL     1      -0.253  13.948  19.506  0.00  0.00    +0.000 OA
ATOM     20  C   UNL     1      -1.420  13.699  20.324  0.00  0.00    +0.000 C 
BRANCH  17  21
ATOM     21  C   UNL     1      -2.939  11.887  19.359  0.00  0.00    +0.000 C 
ATOM     22  F   UNL     1      -3.746  12.971  19.552  0.00  0.00    +0.000 F 
BRANCH  21  28
ATOM     23  C   UNL     1      -5.424  12.061  17.453  0.00  0.00    +0.000 C 
ATOM     24  N   UNL     1      -4.119  11.553  17.125  0.00  0.00    +0.000 N 
ATOM     25  C   UNL     1      -3.751  11.049  15.916  0.00  0.00    +0.000 A 
ATOM     26  N   UNL     1      -2.523  10.595  15.986  0.00  0.00    +0.000 NA
ATOM     27  N   UNL     1      -2.061  10.835  17.257  0.00  0.00    +0.000 NA
ATOM     28  C   UNL     1      -3.017  11.440  17.938  0.00  0.00    +0.000 A 
ENDBRANCH  21  28
ENDBRANCH  17  21
ENDBRANCH  11  17
ENDBRANCH   1  15
BRANCH   8  29
ATOM     29  C   UNL     1       2.001   3.742  20.798  0.00  0.00    +0.000 C 
ATOM     30  F   UNL     1       0.639   3.649  20.853  0.00  0.00    +0.000 F 
ATOM     31  F   UNL     1       2.440   2.473  20.578  0.00  0.00    +0.000 F 
ATOM     32  F   UNL     1       2.394   4.073  22.054  0.00  0.00    +0.000 F 
ENDBRANCH   8  29
BRANCH   6  33
ATOM     33  C   UNL     1       4.755   4.648  16.688  0.00  0.00    +0.000 C 
BRANCH  33  34
ATOM     34  N   UNL     1       6.148   5.109  16.894  0.00  0.00    +0.000 NA
ATOM     35  C   UNL     1       6.226   6.572  16.742  0.00  0.00    +0.000 C 
ATOM     36  C   UNL     1       7.554   7.179  17.197  0.00  0.00    +0.000 C 
ATOM     37  C   UNL     1       7.893   6.751  18.615  0.00  0.00    +0.000 C 
ATOM     38  C   UNL     1       7.938   5.233  18.672  0.00  0.00    +0.000 C 
ATOM     39  C   UNL     1       6.606   4.637  18.214  0.00  0.00    +0.000 C 
ENDBRANCH  33  34
ENDBRANCH   6  33
TORSDOF 7
ENDMDL
MODEL 4
REMARK VINA RESULT:      -9.8      0.852      1.347
REMARK  Name = 
REMARK  8 active torsions:
REMARK  status: ('A' for Active; 'I' for Inactive)
REMARK    1  A    between atoms: C_1  and  N_2
REMARK    2  A    between atoms: C_6  and  C_7
REMARK    3  A    between atoms: C_7  and  C_9
REMARK    4  A    between atoms: C_9  and  C_10
REMARK    5  A    between atoms: C_14  and  N_15
REMARK    6  A    between atoms: C_20  and  C_21
REMARK    7  A    between atoms: C_21  and  N_22
REMARK    8  A    between atoms: C_29  and  C_30
REMARK                            x       y       z     vdW  Elec       q    Type
REMARK                         _______ _______ _______ _____ _____    ______ ____
ROOT
ATOM      1  N   UNL     1       1.325   8.033  20.461  0.00  0.00    +0.000 N 
ATOM      2  C   UNL     1       1.445   6.668  20.923  0.00  0.00    +0.000 C 
ATOM      3  C   UNL     1       2.193   5.974  19.857  0.00  0.00    +0.000 A 
ATOM      4  C   UNL     1       2.578   6.888  18.881  0.00  0.00    +0.000 A 
ATOM      5  C   UNL     1       3.360   6.488  17.811  0.00  0.00    +0.000 A 
ATOM      6  C   UNL     1       3.744   5.131  17.737  0.00  0.00    +0.000 A 
ATOM      7  C   UNL     1       3.290   4.213  18.713  0.00  0.00    +0.000 A 
ATOM      8  C   UNL     1       2.502   4.615  19.790  0.00  0.00    +0.000 A 
ATOM      9  C   UNL     1       2.000   8.217  19.243  0.00  0.00    +0.000 C 
ATOM     10  O   UNL     1       2.108   9.208  18.549  0.00  0.00    +0.000 OA
ENDROOT
BRANCH   1  15
ATOM     11  C   UNL     1      -0.886  11.001  21.068  0.00  0.00    +0.000 A 
ATOM     12  C   UNL     1      -0.942  10.990  22.466  0.00  0.00    +0.000 A 
ATOM     13  C   UNL     1      -0.295   9.993  23.214  0.00  0.00    +0.000 A 
ATOM     14  C   UNL     1       0.454   8.982  22.587  0.00  0.00    +0.000 A 
ATOM     15  C   UNL     1       0.514   8.938  21.199  0.00  0.00    +0.000 A 
ATOM     16  C   UNL     1      -0.208   9.912  20.485  0.00  0.00    +0.000 A 
BRANCH  11  17
ATOM     17  C   UNL     1      -1.352  12.234  20.126  0.00  0.00    +0.000 C 
ATOM     18  C   UNL     1      -2.453  13.206  20.613  0.00  0.00    +0.000 C 
ATOM     19  O   UNL     1      -3.454  12.523  19.810  0.00  0.00    +0.000 OA
ATOM     20  C   UNL     1      -2.403  11.916  19.022  0.00  0.00    +0.000 C 
BRANCH  17  21
ATOM     21  C   UNL     1      -0.096  12.889  19.526  0.00  0.00    +0.000 C 
ATOM     22  F   UNL     1      -0.444  13.583  18.403  0.00  0.00    +0.000 F 
BRANCH  21  28
ATOM     23  C   UNL     1      -0.308  16.014  19.689  0.00  0.00    +0.000 C 
ATOM     24  N   UNL     1       0.472  15.157  20.541  0.00  0.00    +0.000 N 
ATOM     25  C   UNL     1       1.263  15.574  21.567  0.00  0.00    +0.000 A 
ATOM     26  N   UNL     1       1.897  14.546  22.076  0.00  0.00    +0.000 NA
ATOM     27  N   UNL     1       1.490  13.425  21.395  0.00  0.00    +0.000 NA
ATOM     28  C   UNL     1       0.607  13.791  20.485  0.00  0.00    +0.000 A 
ENDBRANCH  21  28
ENDBRANCH  17  21
ENDBRANCH  11  17
ENDBRANCH   1  15
BRANCH   8  29
ATOM     29  C   UNL     1       2.017   3.622  20.810  0.00  0.00    +0.000 C 
ATOM     30  F   UNL     1       2.414   3.907  22.086  0.00  0.00    +0.000 F 
ATOM     31  F   UNL     1       0.658   3.555  20.863  0.00  0.00    +0.000 F 
ATOM     32  F   UNL     1       2.455   2.361  20.564  0.00  0.00    +0.000 F 
ENDBRANCH   8  29
BRANCH   6  33
ATOM     33  C   UNL     1       4.714   4.629  16.686  0.00  0.00    +0.000 C 
BRANCH  33  34
ATOM     34  N   UNL     1       6.109   5.092  16.877  0.00  0.00    +0.000 NA
ATOM     35  C   UNL     1       6.181   6.556  16.743  0.00  0.00    +0.000 C 
ATOM     36  C   UNL     1       7.514   7.161  17.186  0.00  0.00    +0.000 C 
ATOM     37  C   UNL     1       7.876   6.714  18.593  0.00  0.00    +0.000 C 
ATOM     38  C   UNL     1       7.925   5.196  18.628  0.00  0.00    +0.000 C 
ATOM     39  C   UNL     1       6.589   4.603  18.183  0.00  0.00    +0.000 C 
ENDBRANCH  33  34
ENDBRANCH   6  33
TORSDOF 7
ENDMDL
MODEL 5
REMARK VINA RESULT:      -9.7      2.718      9.129
REMARK  Name = 
REMARK  8 active torsions:
REMARK  status: ('A' for Active; 'I' for Inactive)
REMARK    1  A    between atoms: C_1  and  N_2
REMARK    2  A    between atoms: C_6  and  C_7
REMARK    3  A    between atoms: C_7  and  C_9
REMARK    4  A    between atoms: C_9  and  C_10
REMARK    5  A    between atoms: C_14  and  N_15
REMARK    6  A    between atoms: C_20  and  C_21
REMARK    7  A    between atoms: C_21  and  N_22
REMARK    8  A    between atoms: C_29  and  C_30
REMARK                            x       y       z     vdW  Elec       q    Type
REMARK                         _______ _______ _______ _____ _____    ______ ____
ROOT
ATOM      1  N   UNL     1       2.181   7.414  19.480  0.00  0.00    +0.000 N 
ATOM      2  C   UNL     1       1.416   7.805  20.643  0.00  0.00    +0.000 C 
ATOM      3  C   UNL     1       0.831   9.112  20.290  0.00  0.00    +0.000 A 
ATOM      4  C   UNL     1       1.143   9.424  18.970  0.00  0.00    +0.000 A 
ATOM      5  C   UNL     1       0.640  10.571  18.380  0.00  0.00    +0.000 A 
ATOM      6  C   UNL     1      -0.186  11.413  19.158  0.00  0.00    +0.000 A 
ATOM      7  C   UNL     1      -0.440  11.099  20.514  0.00  0.00    +0.000 A 
ATOM      8  C   UNL     1       0.067   9.944  21.108  0.00  0.00    +0.000 A 
ATOM      9  C   UNL     1       2.039   8.350  18.443  0.00  0.00    +0.000 C 
ATOM     10  O   UNL     1       2.534   8.373  17.334  0.00  0.00    +0.000 OA
ENDROOT
BRANCH   1  15
ATOM     11  C   UNL     1       5.246   5.304  19.011  0.00  0.00    +0.000 A 
ATOM     12  C   UNL     1       4.744   4.050  19.377  0.00  0.00    +0.000 A 
ATOM     13  C   UNL     1       3.420   3.893  19.817  0.00  0.00    +0.000 A 
ATOM     14  C   UNL     1       2.540   4.988  19.884  0.00  0.00    +0.000 A 
ATOM     15  C   UNL     1       3.003   6.257  19.556  0.00  0.00    +0.000 A 
ATOM     16  C   UNL     1       4.356   6.382  19.191  0.00  0.00    +0.000 A 
BRANCH  11  17
ATOM     17  C   UNL     1       6.646   5.558  18.239  0.00  0.00    +0.000 C 
ATOM     18  C   UNL     1       7.671   4.408  18.097  0.00  0.00    +0.000 C 
ATOM     19  O   UNL     1       8.458   4.930  19.202  0.00  0.00    +0.000 OA
ATOM     20  C   UNL     1       7.795   6.209  19.066  0.00  0.00    +0.000 C 
BRANCH  17  21
ATOM     21  C   UNL     1       6.358   6.362  16.960  0.00  0.00    +0.000 C 
ATOM     22  F   UNL     1       7.199   7.435  16.903  0.00  0.00    +0.000 F 
BRANCH  21  28
ATOM     23  C   UNL     1       4.380   4.158  15.926  0.00  0.00    +0.000 C 
ATOM     24  N   UNL     1       5.587   4.603  15.283  0.00  0.00    +0.000 N 
ATOM     25  C   UNL     1       6.077   4.125  14.108  0.00  0.00    +0.000 A 
ATOM     26  N   UNL     1       7.235   4.685  13.855  0.00  0.00    +0.000 NA
ATOM     27  N   UNL     1       7.497   5.576  14.867  0.00  0.00    +0.000 NA
ATOM     28  C   UNL     1       6.487   5.547  15.717  0.00  0.00    +0.000 A 
ENDBRANCH  21  28
ENDBRANCH  17  21
ENDBRANCH  11  17
ENDBRANCH   1  15
BRANCH   8  29
ATOM     29  C   UNL     1      -0.200   9.635  22.555  0.00  0.00    +0.000 C 
ATOM     30  F   UNL     1      -0.942   8.503  22.746  0.00  0.00    +0.000 F 
ATOM     31  F   UNL     1       0.944   9.439  23.264  0.00  0.00    +0.000 F 
ATOM     32  F   UNL     1      -0.879  10.626  23.186  0.00  0.00    +0.000 F 
ENDBRANCH   8  29
BRANCH   6  33
ATOM     33  C   UNL     1      -0.897  12.611  18.560  0.00  0.00    +0.000 C 
BRANCH  33  34
ATOM     34  N   UNL     1      -0.118  13.870  18.617  0.00  0.00    +0.000 NA
ATOM     35  C   UNL     1      -0.411  14.592  19.866  0.00  0.00    +0.000 C 
ATOM     36  C   UNL     1       0.535  15.761  20.151  0.00  0.00    +0.000 C 
ATOM     37  C   UNL     1       1.987  15.315  20.095  0.00  0.00    +0.000 C 
ATOM     38  C   UNL     1       2.262  14.708  18.729  0.00  0.00    +0.000 C 
ATOM     39  C   UNL     1       1.311  13.543  18.456  0.00  0.00    +0.000 C 
ENDBRANCH  33  34
ENDBRANCH   6  33
TORSDOF 7
ENDMDL
MODEL 6
REMARK VINA RESULT:      -9.6      1.626      2.580
REMARK  Name = 
REMARK  8 active torsions:
REMARK  status: ('A' for Active; 'I' for Inactive)
REMARK    1  A    between atoms: C_1  and  N_2
REMARK    2  A    between atoms: C_6  and  C_7
REMARK    3  A    between atoms: C_7  and  C_9
REMARK    4  A    between atoms: C_9  and  C_10
REMARK    5  A    between atoms: C_14  and  N_15
REMARK    6  A    between atoms: C_20  and  C_21
REMARK    7  A    between atoms: C_21  and  N_22
REMARK    8  A    between atoms: C_29  and  C_30
REMARK                            x       y       z     vdW  Elec       q    Type
REMARK                         _______ _______ _______ _____ _____    ______ ____
ROOT
ATOM      1  N   UNL     1       1.290   8.331  20.459  0.00  0.00    +0.000 N 
ATOM      2  C   UNL     1       1.429   6.973  20.936  0.00  0.00    +0.000 C 
ATOM      3  C   UNL     1       2.150   6.267  19.859  0.00  0.00    +0.000 A 
ATOM      4  C   UNL     1       2.503   7.170  18.860  0.00  0.00    +0.000 A 
ATOM      5  C   UNL     1       3.257   6.758  17.774  0.00  0.00    +0.000 A 
ATOM      6  C   UNL     1       3.645   5.402  17.708  0.00  0.00    +0.000 A 
ATOM      7  C   UNL     1       3.223   4.495  18.709  0.00  0.00    +0.000 A 
ATOM      8  C   UNL     1       2.463   4.909  19.802  0.00  0.00    +0.000 A 
ATOM      9  C   UNL     1       1.929   8.501  19.220  0.00  0.00    +0.000 C 
ATOM     10  O   UNL     1       2.014   9.483  18.510  0.00  0.00    +0.000 OA
ENDROOT
BRANCH   1  15
ATOM     11  C   UNL     1      -0.228  11.622  21.423  0.00  0.00    +0.000 A 
ATOM     12  C   UNL     1      -0.808  11.280  22.650  0.00  0.00    +0.000 A 
ATOM     13  C   UNL     1      -0.742   9.969  23.149  0.00  0.00    +0.000 A 
ATOM     14  C   UNL     1      -0.071   8.955  22.444  0.00  0.00    +0.000 A 
ATOM     15  C   UNL     1       0.495   9.242  21.207  0.00  0.00    +0.000 A 
ATOM     16  C   UNL     1       0.344  10.550  20.710  0.00  0.00    +0.000 A 
BRANCH  11  17
ATOM     17  C   UNL     1      -0.004  13.134  20.887  0.00  0.00    +0.000 C 
ATOM     18  C   UNL     1       1.212  13.464  19.989  0.00  0.00    +0.000 C 
ATOM     19  O   UNL     1       1.940  14.010  21.123  0.00  0.00    +0.000 OA
ATOM     20  C   UNL     1       0.700  14.126  21.859  0.00  0.00    +0.000 C 
BRANCH  17  21
ATOM     21  C   UNL     1      -1.358  13.687  20.412  0.00  0.00    +0.000 C 
ATOM     22  F   UNL     1      -1.173  14.928  19.874  0.00  0.00    +0.000 F 
BRANCH  21  28
ATOM     23  C   UNL     1      -4.259  12.510  20.608  0.00  0.00    +0.000 C 
ATOM     24  N   UNL     1      -3.321  12.320  19.533  0.00  0.00    +0.000 N 
ATOM     25  C   UNL     1      -3.544  11.578  18.414  0.00  0.00    +0.000 A 
ATOM     26  N   UNL     1      -2.454  11.545  17.687  0.00  0.00    +0.000 NA
ATOM     27  N   UNL     1      -1.505  12.308  18.322  0.00  0.00    +0.000 NA
ATOM     28  C   UNL     1      -2.038  12.799  19.425  0.00  0.00    +0.000 A 
ENDBRANCH  21  28
ENDBRANCH  17  21
ENDBRANCH  11  17
ENDBRANCH   1  15
BRANCH   8  29
ATOM     29  C   UNL     1       2.011   3.928  20.848  0.00  0.00    +0.000 C 
ATOM     30  F   UNL     1       2.468   4.216  22.104  0.00  0.00    +0.000 F 
ATOM     31  F   UNL     1       0.656   3.878  20.961  0.00  0.00    +0.000 F 
ATOM     32  F   UNL     1       2.424   2.661  20.592  0.00  0.00    +0.000 F 
ENDBRANCH   8  29
BRANCH   6  33
ATOM     33  C   UNL     1       4.588   4.889  16.637  0.00  0.00    +0.000 C 
BRANCH  33  34
ATOM     34  N   UNL     1       6.003   5.278  16.838  0.00  0.00    +0.000 NA
ATOM     35  C   UNL     1       6.131   6.745  16.840  0.00  0.00    +0.000 C 
ATOM     36  C   UNL     1       7.496   7.254  17.307  0.00  0.00    +0.000 C 
ATOM     37  C   UNL     1       7.868   6.663  18.657  0.00  0.00    +0.000 C 
ATOM     38  C   UNL     1       7.857   5.147  18.548  0.00  0.00    +0.000 C 
ATOM     39  C   UNL     1       6.489   4.650  18.081  0.00  0.00    +0.000 C 
ENDBRANCH  33  34
ENDBRANCH   6  33
TORSDOF 7
ENDMDL
MODEL 7
REMARK VINA RESULT:      -9.6      1.067      1.390
REMARK  Name = 
REMARK  8 active torsions:
REMARK  status: ('A' for Active; 'I' for Inactive)
REMARK    1  A    between atoms: C_1  and  N_2
REMARK    2  A    between atoms: C_6  and  C_7
REMARK    3  A    between atoms: C_7  and  C_9
REMARK    4  A    between atoms: C_9  and  C_10
REMARK    5  A    between atoms: C_14  and  N_15
REMARK    6  A    between atoms: C_20  and  C_21
REMARK    7  A    between atoms: C_21  and  N_22
REMARK    8  A    between atoms: C_29  and  C_30
REMARK                            x       y       z     vdW  Elec       q    Type
REMARK                         _______ _______ _______ _____ _____    ______ ____
ROOT
ATOM      1  N   UNL     1       1.264   8.244  20.481  0.00  0.00    +0.000 N 
ATOM      2  C   UNL     1       1.427   6.865  20.888  0.00  0.00    +0.000 C 
ATOM      3  C   UNL     1       2.164   6.229  19.780  0.00  0.00    +0.000 A 
ATOM      4  C   UNL     1       2.504   7.189  18.831  0.00  0.00    +0.000 A 
ATOM      5  C   UNL     1       3.270   6.847  17.729  0.00  0.00    +0.000 A 
ATOM      6  C   UNL     1       3.683   5.504  17.594  0.00  0.00    +0.000 A 
ATOM      7  C   UNL     1       3.274   4.539  18.545  0.00  0.00    +0.000 A 
ATOM      8  C   UNL     1       2.502   4.882  19.655  0.00  0.00    +0.000 A 
ATOM      9  C   UNL     1       1.905   8.489  19.257  0.00  0.00    +0.000 C 
ATOM     10  O   UNL     1       1.974   9.508  18.598  0.00  0.00    +0.000 OA
ENDROOT
BRANCH   1  15
ATOM     11  C   UNL     1      -0.934  11.178  21.269  0.00  0.00    +0.000 A 
ATOM     12  C   UNL     1      -1.007  11.069  22.663  0.00  0.00    +0.000 A 
ATOM     13  C   UNL     1      -0.375  10.018  23.347  0.00  0.00    +0.000 A 
ATOM     14  C   UNL     1       0.374   9.047  22.659  0.00  0.00    +0.000 A 
ATOM     15  C   UNL     1       0.450   9.100  21.272  0.00  0.00    +0.000 A 
ATOM     16  C   UNL     1      -0.257  10.127  20.620  0.00  0.00    +0.000 A 
BRANCH  11  17
ATOM     17  C   UNL     1      -1.381  12.477  20.412  0.00  0.00    +0.000 C 
ATOM     18  C   UNL     1      -2.881  12.815  20.244  0.00  0.00    +0.000 C 
ATOM     19  O   UNL     1      -2.898  12.226  18.915  0.00  0.00    +0.000 OA
ATOM     20  C   UNL     1      -1.454  12.306  18.865  0.00  0.00    +0.000 C 
BRANCH  17  21
ATOM     21  C   UNL     1      -0.468  13.653  20.798  0.00  0.00    +0.000 C 
ATOM     22  F   UNL     1      -0.086  13.516  22.102  0.00  0.00    +0.000 F 
BRANCH  21  28
ATOM     23  C   UNL     1       0.093  15.848  18.629  0.00  0.00    +0.000 C 
ATOM     24  N   UNL     1       0.958  14.759  18.998  0.00  0.00    +0.000 N 
ATOM     25  C   UNL     1       2.175  14.498  18.449  0.00  0.00    +0.000 A 
ATOM     26  N   UNL     1       2.653  13.386  18.951  0.00  0.00    +0.000 NA
ATOM     27  N   UNL     1       1.749  12.923  19.876  0.00  0.00    +0.000 NA
ATOM     28  C   UNL     1       0.736  13.768  19.924  0.00  0.00    +0.000 A 
ENDBRANCH  21  28
ENDBRANCH  17  21
ENDBRANCH  11  17
ENDBRANCH   1  15
BRANCH   8  29
ATOM     29  C   UNL     1       2.064   3.840  20.646  0.00  0.00    +0.000 C 
ATOM     30  F   UNL     1       0.708   3.692  20.724  0.00  0.00    +0.000 F 
ATOM     31  F   UNL     1       2.544   2.603  20.345  0.00  0.00    +0.000 F 
ATOM     32  F   UNL     1       2.474   4.114  21.911  0.00  0.00    +0.000 F 
ENDBRANCH   8  29
BRANCH   6  33
ATOM     33  C   UNL     1       4.639   5.064  16.503  0.00  0.00    +0.000 C 
BRANCH  33  34
ATOM     34  N   UNL     1       6.057   5.402  16.766  0.00  0.00    +0.000 NA
ATOM     35  C   UNL     1       6.204   6.852  16.972  0.00  0.00    +0.000 C 
ATOM     36  C   UNL     1       7.571   7.273  17.515  0.00  0.00    +0.000 C 
ATOM     37  C   UNL     1       7.922   6.496  18.773  0.00  0.00    +0.000 C 
ATOM     38  C   UNL     1       7.892   5.010  18.457  0.00  0.00    +0.000 C 
ATOM     39  C   UNL     1       6.522   4.602  17.914  0.00  0.00    +0.000 C 
ENDBRANCH  33  34
ENDBRANCH   6  33
TORSDOF 7
ENDMDL
MODEL 8
REMARK VINA RESULT:      -9.6      2.772      9.456
REMARK  Name = 
REMARK  8 active torsions:
REMARK  status: ('A' for Active; 'I' for Inactive)
REMARK    1  A    between atoms: C_1  and  N_2
REMARK    2  A    between atoms: C_6  and  C_7
REMARK    3  A    between atoms: C_7  and  C_9
REMARK    4  A    between atoms: C_9  and  C_10
REMARK    5  A    between atoms: C_14  and  N_15
REMARK    6  A    between atoms: C_20  and  C_21
REMARK    7  A    between atoms: C_21  and  N_22
REMARK    8  A    between atoms: C_29  and  C_30
REMARK                            x       y       z     vdW  Elec       q    Type
REMARK                         _______ _______ _______ _____ _____    ______ ____
ROOT
ATOM      1  N   UNL     1       2.112   7.469  19.575  0.00  0.00    +0.000 N 
ATOM      2  C   UNL     1       1.360   7.815  20.761  0.00  0.00    +0.000 C 
ATOM      3  C   UNL     1       0.817   9.159  20.485  0.00  0.00    +0.000 A 
ATOM      4  C   UNL     1       1.139   9.538  19.186  0.00  0.00    +0.000 A 
ATOM      5  C   UNL     1       0.672  10.733  18.665  0.00  0.00    +0.000 A 
ATOM      6  C   UNL     1      -0.126  11.553  19.493  0.00  0.00    +0.000 A 
ATOM      7  C   UNL     1      -0.389  11.169  20.829  0.00  0.00    +0.000 A 
ATOM      8  C   UNL     1       0.081   9.966  21.353  0.00  0.00    +0.000 A 
ATOM      9  C   UNL     1       1.999   8.469  18.595  0.00  0.00    +0.000 C 
ATOM     10  O   UNL     1       2.494   8.540  17.488  0.00  0.00    +0.000 OA
ENDROOT
BRANCH   1  15
ATOM     11  C   UNL     1       5.107   5.293  18.978  0.00  0.00    +0.000 A 
ATOM     12  C   UNL     1       4.565   4.036  19.270  0.00  0.00    +0.000 A 
ATOM     13  C   UNL     1       3.236   3.896  19.701  0.00  0.00    +0.000 A 
ATOM     14  C   UNL     1       2.392   5.013  19.833  0.00  0.00    +0.000 A 
ATOM     15  C   UNL     1       2.896   6.283  19.581  0.00  0.00    +0.000 A 
ATOM     16  C   UNL     1       4.252   6.386  19.222  0.00  0.00    +0.000 A 
BRANCH  11  17
ATOM     17  C   UNL     1       6.516   5.547  18.221  0.00  0.00    +0.000 C 
ATOM     18  C   UNL     1       7.545   4.399  18.095  0.00  0.00    +0.000 C 
ATOM     19  O   UNL     1       8.317   4.928  19.207  0.00  0.00    +0.000 OA
ATOM     20  C   UNL     1       7.653   6.204  19.058  0.00  0.00    +0.000 C 
BRANCH  17  21
ATOM     21  C   UNL     1       6.240   6.345  16.935  0.00  0.00    +0.000 C 
ATOM     22  F   UNL     1       7.042   7.450  16.910  0.00  0.00    +0.000 F 
BRANCH  21  28
ATOM     23  C   UNL     1       4.353   4.111  15.801  0.00  0.00    +0.000 C 
ATOM     24  N   UNL     1       5.579   4.583  15.216  0.00  0.00    +0.000 N 
ATOM     25  C   UNL     1       6.131   4.121  14.061  0.00  0.00    +0.000 A 
ATOM     26  N   UNL     1       7.288   4.705  13.864  0.00  0.00    +0.000 NA
ATOM     27  N   UNL     1       7.488   5.594  14.892  0.00  0.00    +0.000 NA
ATOM     28  C   UNL     1       6.441   5.540  15.695  0.00  0.00    +0.000 A 
ENDBRANCH  21  28
ENDBRANCH  17  21
ENDBRANCH  11  17
ENDBRANCH   1  15
BRANCH   8  29
ATOM     29  C   UNL     1      -0.196   9.581  22.780  0.00  0.00    +0.000 C 
ATOM     30  F   UNL     1       0.932   9.340  23.512  0.00  0.00    +0.000 F 
ATOM     31  F   UNL     1      -0.864  10.553  23.459  0.00  0.00    +0.000 F 
ATOM     32  F   UNL     1      -0.946   8.455  22.883  0.00  0.00    +0.000 F 
ENDBRANCH   8  29
BRANCH   6  33
ATOM     33  C   UNL     1      -0.798  12.807  18.968  0.00  0.00    +0.000 C 
BRANCH  33  34
ATOM     34  N   UNL     1      -0.381  14.052  19.654  0.00  0.00    +0.000 NA
ATOM     35  C   UNL     1       0.336  14.932  18.716  0.00  0.00    +0.000 C 
ATOM     36  C   UNL     1       0.572  16.349  19.243  0.00  0.00    +0.000 C 
ATOM     37  C   UNL     1      -0.728  16.981  19.713  0.00  0.00    +0.000 C 
ATOM     38  C   UNL     1      -1.345  16.096  20.783  0.00  0.00    +0.000 C 
ATOM     39  C   UNL     1      -1.575  14.683  20.246  0.00  0.00    +0.000 C 
ENDBRANCH  33  34
ENDBRANCH   6  33
TORSDOF 7
ENDMDL
MODEL 9
REMARK VINA RESULT:      -9.6      2.078      2.829
REMARK  Name = 
REMARK  8 active torsions:
REMARK  status: ('A' for Active; 'I' for Inactive)
REMARK    1  A    between atoms: C_1  and  N_2
REMARK    2  A    between atoms: C_6  and  C_7
REMARK    3  A    between atoms: C_7  and  C_9
REMARK    4  A    between atoms: C_9  and  C_10
REMARK    5  A    between atoms: C_14  and  N_15
REMARK    6  A    between atoms: C_20  and  C_21
REMARK    7  A    between atoms: C_21  and  N_22
REMARK    8  A    between atoms: C_29  and  C_30
REMARK                            x       y       z     vdW  Elec       q    Type
REMARK                         _______ _______ _______ _____ _____    ______ ____
ROOT
ATOM      1  N   UNL     1       1.266   8.237  20.426  0.00  0.00    +0.000 N 
ATOM      2  C   UNL     1       1.414   6.869  20.869  0.00  0.00    +0.000 C 
ATOM      3  C   UNL     1       2.159   6.200  19.786  0.00  0.00    +0.000 A 
ATOM      4  C   UNL     1       2.517   7.132  18.817  0.00  0.00    +0.000 A 
ATOM      5  C   UNL     1       3.293   6.758  17.733  0.00  0.00    +0.000 A 
ATOM      6  C   UNL     1       3.698   5.409  17.637  0.00  0.00    +0.000 A 
ATOM      7  C   UNL     1       3.271   4.471  18.608  0.00  0.00    +0.000 A 
ATOM      8  C   UNL     1       2.490   4.847  19.699  0.00  0.00    +0.000 A 
ATOM      9  C   UNL     1       1.922   8.447  19.203  0.00  0.00    +0.000 C 
ATOM     10  O   UNL     1       2.006   9.448  18.520  0.00  0.00    +0.000 OA
ENDROOT
BRANCH   1  15
ATOM     11  C   UNL     1      -1.043  11.119  21.083  0.00  0.00    +0.000 A 
ATOM     12  C   UNL     1      -1.037  11.129  22.483  0.00  0.00    +0.000 A 
ATOM     13  C   UNL     1      -0.315  10.175  23.218  0.00  0.00    +0.000 A 
ATOM     14  C   UNL     1       0.448   9.185  22.574  0.00  0.00    +0.000 A 
ATOM     15  C   UNL     1       0.449   9.119  21.185  0.00  0.00    +0.000 A 
ATOM     16  C   UNL     1      -0.345  10.049  20.489  0.00  0.00    +0.000 A 
BRANCH  11  17
ATOM     17  C   UNL     1      -1.603  12.314  20.145  0.00  0.00    +0.000 C 
ATOM     18  C   UNL     1      -2.436  11.981  18.884  0.00  0.00    +0.000 C 
ATOM     19  O   UNL     1      -1.277  12.172  18.029  0.00  0.00    +0.000 OA
ATOM     20  C   UNL     1      -0.616  12.899  19.091  0.00  0.00    +0.000 C 
BRANCH  17  21
ATOM     21  C   UNL     1      -2.169  13.419  21.051  0.00  0.00    +0.000 C 
ATOM     22  F   UNL     1      -2.229  14.589  20.350  0.00  0.00    +0.000 F 
BRANCH  21  28
ATOM     23  C   UNL     1      -3.147  13.810  24.005  0.00  0.00    +0.000 C 
ATOM     24  N   UNL     1      -3.915  13.294  22.903  0.00  0.00    +0.000 N 
ATOM     25  C   UNL     1      -5.209  12.878  22.970  0.00  0.00    +0.000 A 
ATOM     26  N   UNL     1      -5.571  12.388  21.810  0.00  0.00    +0.000 NA
ATOM     27  N   UNL     1      -4.507  12.514  20.952  0.00  0.00    +0.000 NA
ATOM     28  C   UNL     1      -3.514  13.088  21.605  0.00  0.00    +0.000 A 
ENDBRANCH  21  28
ENDBRANCH  17  21
ENDBRANCH  11  17
ENDBRANCH   1  15
BRANCH   8  29
ATOM     29  C   UNL     1       2.033   3.834  20.712  0.00  0.00    +0.000 C 
ATOM     30  F   UNL     1       2.416   4.126  21.991  0.00  0.00    +0.000 F 
ATOM     31  F   UNL     1       0.678   3.722  20.759  0.00  0.00    +0.000 F 
ATOM     32  F   UNL     1       2.514   2.590  20.462  0.00  0.00    +0.000 F 
ENDBRANCH   8  29
BRANCH   6  33
ATOM     33  C   UNL     1       4.663   4.935  16.568  0.00  0.00    +0.000 C 
BRANCH  33  34
ATOM     34  N   UNL     1       6.073   5.323  16.808  0.00  0.00    +0.000 NA
ATOM     35  C   UNL     1       6.190   6.789  16.882  0.00  0.00    +0.000 C 
ATOM     36  C   UNL     1       7.545   7.284  17.393  0.00  0.00    +0.000 C 
ATOM     37  C   UNL     1       7.900   6.631  18.719  0.00  0.00    +0.000 C 
ATOM     38  C   UNL     1       7.902   5.122  18.538  0.00  0.00    +0.000 C 
ATOM     39  C   UNL     1       6.544   4.639  18.027  0.00  0.00    +0.000 C 
ENDBRANCH  33  34
ENDBRANCH   6  33
TORSDOF 7
ENDMDL
