MODEL 1
REMARK VINA RESULT:      -9.7      0.000      0.000
REMARK  Name = 
REMARK  8 active torsions:
REMARK  status: ('A' for Active; 'I' for Inactive)
REMARK    1  A    between atoms: C_1  and  N_2
REMARK    2  A    between atoms: C_6  and  C_7
REMARK    3  A    between atoms: C_7  and  C_9
REMARK    4  A    between atoms: C_9  and  C_10
REMARK    5  A    between atoms: C_9  and  C_12
REMARK    6  A    between atoms: C_16  and  N_17
REMARK    7  A    between atoms: C_22  and  C_23
REMARK    8  A    between atoms: C_27  and  C_28
REMARK                            x       y       z     vdW  Elec       q    Type
REMARK                         _______ _______ _______ _____ _____    ______ ____
ROOT
ATOM      1  C   UNL     1       4.267   5.045  18.019  0.00  0.00    +0.000 A 
ATOM      2  C   UNL     1       4.084   4.023  18.953  0.00  0.00    +0.000 A 
ATOM      3  C   UNL     1       3.234   4.214  20.051  0.00  0.00    +0.000 A 
ATOM      4  C   UNL     1       2.540   5.422  20.235  0.00  0.00    +0.000 A 
ATOM      5  C   UNL     1       2.699   6.461  19.324  0.00  0.00    +0.000 A 
ATOM      6  C   UNL     1       3.582   6.249  18.240  0.00  0.00    +0.000 A 
ENDROOT
BRANCH   5   7
ATOM      7  N   UNL     1       2.006   7.701  19.408  0.00  0.00    +0.000 N 
ATOM      8  C   UNL     1       1.318   8.034  20.634  0.00  0.00    +0.000 C 
ATOM      9  C   UNL     1       0.795   9.400  20.408  0.00  0.00    +0.000 A 
ATOM     10  C   UNL     1       1.110   9.821  19.126  0.00  0.00    +0.000 A 
ATOM     11  C   UNL     1       0.708  11.075  18.674  0.00  0.00    +0.000 A 
ATOM     12  C   UNL     1      -0.029  11.916  19.544  0.00  0.00    +0.000 A 
ATOM     13  C   UNL     1      -0.303  11.454  20.857  0.00  0.00    +0.000 A 
ATOM     14  C   UNL     1       0.097  10.191  21.311  0.00  0.00    +0.000 A 
ATOM     15  C   UNL     1       1.899   8.740  18.468  0.00  0.00    +0.000 C 
ATOM     16  O   UNL     1       2.341   8.827  17.338  0.00  0.00    +0.000 OA
BRANCH  14  17
ATOM     17  C   UNL     1      -0.212   9.736  22.715  0.00  0.00    +0.000 C 
ATOM     18  F   UNL     1      -0.970   8.606  22.772  0.00  0.00    +0.000 F 
ATOM     19  F   UNL     1       0.912   9.461  23.429  0.00  0.00    +0.000 F 
ATOM     20  F   UNL     1      -0.897  10.671  23.424  0.00  0.00    +0.000 F 
ENDBRANCH  14  17
BRANCH  12  21
ATOM     21  C   UNL     1      -0.489  13.299  19.132  0.00  0.00    +0.000 C 
ATOM     22  C   UNL     1      -1.034  14.268  20.154  0.00  0.00    +0.000 C 
ATOM     23  C   UNL     1       0.315  14.516  19.552  0.00  0.00    +0.000 C 
ENDBRANCH  12  21
ENDBRANCH   5   7
BRANCH   1  24
ATOM     24  C   UNL     1       5.135   4.917  16.754  0.00  0.00    +0.000 C 
ATOM     25  C   UNL     1       4.658   3.727  15.915  0.00  0.00    +0.000 C 
ATOM     26  F   UNL     1       4.953   6.025  15.953  0.00  0.00    +0.000 F 
BRANCH  24  27
ATOM     27  C   UNL     1       6.643   4.840  17.095  0.00  0.00    +0.000 C 
ATOM     28  F   UNL     1       7.319   4.285  16.042  0.00  0.00    +0.000 F 
BRANCH  27  34
ATOM     29  C   UNL     1       8.080   5.604  19.777  0.00  0.00    +0.000 C 
ATOM     30  N   UNL     1       7.853   6.469  18.651  0.00  0.00    +0.000 N 
ATOM     31  C   UNL     1       8.219   7.778  18.576  0.00  0.00    +0.000 A 
ATOM     32  N   UNL     1       7.886   8.258  17.403  0.00  0.00    +0.000 NA
ATOM     33  N   UNL     1       7.270   7.250  16.701  0.00  0.00    +0.000 NA
ATOM     34  C   UNL     1       7.247   6.166  17.455  0.00  0.00    +0.000 A 
ENDBRANCH  27  34
ENDBRANCH  24  27
ENDBRANCH   1  24
TORSDOF 6
ENDMDL
MODEL 2
REMARK VINA RESULT:      -9.6      1.615      2.578
REMARK  Name = 
REMARK  8 active torsions:
REMARK  status: ('A' for Active; 'I' for Inactive)
REMARK    1  A    between atoms: C_1  and  N_2
REMARK    2  A    between atoms: C_6  and  C_7
REMARK    3  A    between atoms: C_7  and  C_9
REMARK    4  A    between atoms: C_9  and  C_10
REMARK    5  A    between atoms: C_9  and  C_12
REMARK    6  A    between atoms: C_16  and  N_17
REMARK    7  A    between atoms: C_22  and  C_23
REMARK    8  A    between atoms: C_27  and  C_28
REMARK                            x       y       z     vdW  Elec       q    Type
REMARK                         _______ _______ _______ _____ _____    ______ ____
ROOT
ATOM      1  C   UNL     1       4.948   4.969  18.229  0.00  0.00    +0.000 A 
ATOM      2  C   UNL     1       4.550   3.828  18.929  0.00  0.00    +0.000 A 
ATOM      3  C   UNL     1       3.416   3.864  19.753  0.00  0.00    +0.000 A 
ATOM      4  C   UNL     1       2.649   5.034  19.888  0.00  0.00    +0.000 A 
ATOM      5  C   UNL     1       3.016   6.189  19.205  0.00  0.00    +0.000 A 
ATOM      6  C   UNL     1       4.177   6.130  18.401  0.00  0.00    +0.000 A 
ENDROOT
BRANCH   5   7
ATOM      7  N   UNL     1       2.277   7.403  19.249  0.00  0.00    +0.000 N 
ATOM      8  C   UNL     1       1.595   7.761  20.472  0.00  0.00    +0.000 C 
ATOM      9  C   UNL     1       1.015   9.095  20.199  0.00  0.00    +0.000 A 
ATOM     10  C   UNL     1       1.294   9.474  18.894  0.00  0.00    +0.000 A 
ATOM     11  C   UNL     1       0.837  10.691  18.398  0.00  0.00    +0.000 A 
ATOM     12  C   UNL     1       0.082  11.539  19.244  0.00  0.00    +0.000 A 
ATOM     13  C   UNL     1      -0.155  11.123  20.580  0.00  0.00    +0.000 A 
ATOM     14  C   UNL     1       0.301   9.896  21.079  0.00  0.00    +0.000 A 
ATOM     15  C   UNL     1       2.115   8.397  18.270  0.00  0.00    +0.000 C 
ATOM     16  O   UNL     1       2.536   8.453  17.130  0.00  0.00    +0.000 OA
BRANCH  14  17
ATOM     17  C   UNL     1       0.030   9.489  22.505  0.00  0.00    +0.000 C 
ATOM     18  F   UNL     1       1.156   9.198  23.216  0.00  0.00    +0.000 F 
ATOM     19  F   UNL     1      -0.606  10.463  23.210  0.00  0.00    +0.000 F 
ATOM     20  F   UNL     1      -0.752   8.382  22.590  0.00  0.00    +0.000 F 
ENDBRANCH  14  17
BRANCH  12  21
ATOM     21  C   UNL     1      -0.439  12.885  18.784  0.00  0.00    +0.000 C 
ATOM     22  C   UNL     1      -0.869  13.931  19.784  0.00  0.00    +0.000 C 
ATOM     23  C   UNL     1       0.397  14.132  19.009  0.00  0.00    +0.000 C 
ENDBRANCH  12  21
ENDBRANCH   5   7
BRANCH   1  24
ATOM     24  C   UNL     1       6.142   5.019  17.260  0.00  0.00    +0.000 C 
ATOM     25  C   UNL     1       6.551   6.475  17.014  0.00  0.00    +0.000 C 
ATOM     26  F   UNL     1       7.240   4.425  17.846  0.00  0.00    +0.000 F 
BRANCH  24  27
ATOM     27  C   UNL     1       5.851   4.252  15.947  0.00  0.00    +0.000 C 
ATOM     28  F   UNL     1       4.525   4.376  15.633  0.00  0.00    +0.000 F 
BRANCH  27  34
ATOM     29  C   UNL     1       5.574   3.383  12.944  0.00  0.00    +0.000 C 
ATOM     30  N   UNL     1       6.559   4.278  13.489  0.00  0.00    +0.000 N 
ATOM     31  C   UNL     1       7.548   4.888  12.780  0.00  0.00    +0.000 A 
ATOM     32  N   UNL     1       8.248   5.656  13.578  0.00  0.00    +0.000 NA
ATOM     33  N   UNL     1       7.721   5.532  14.842  0.00  0.00    +0.000 NA
ATOM     34  C   UNL     1       6.700   4.697  14.791  0.00  0.00    +0.000 A 
ENDBRANCH  27  34
ENDBRANCH  24  27
ENDBRANCH   1  24
TORSDOF 6
ENDMDL
MODEL 3
REMARK VINA RESULT:      -9.5      3.389      8.896
REMARK  Name = 
REMARK  8 active torsions:
REMARK  status: ('A' for Active; 'I' for Inactive)
REMARK    1  A    between atoms: C_1  and  N_2
REMARK    2  A    between atoms: C_6  and  C_7
REMARK    3  A    between atoms: C_7  and  C_9
REMARK    4  A    between atoms: C_9  and  C_10
REMARK    5  A    between atoms: C_9  and  C_12
REMARK    6  A    between atoms: C_16  and  N_17
REMARK    7  A    between atoms: C_22  and  C_23
REMARK    8  A    between atoms: C_27  and  C_28
REMARK                            x       y       z     vdW  Elec       q    Type
REMARK                         _______ _______ _______ _____ _____    ______ ____
ROOT
ATOM      1  C   UNL     1      -0.741  11.026  20.360  0.00  0.00    +0.000 A 
ATOM      2  C   UNL     1      -0.756  11.171  21.750  0.00  0.00    +0.000 A 
ATOM      3  C   UNL     1      -0.039  10.280  22.560  0.00  0.00    +0.000 A 
ATOM      4  C   UNL     1       0.716   9.233  22.004  0.00  0.00    +0.000 A 
ATOM      5  C   UNL     1       0.753   9.060  20.624  0.00  0.00    +0.000 A 
ATOM      6  C   UNL     1       0.002   9.958  19.834  0.00  0.00    +0.000 A 
ENDROOT
BRANCH   5   7
ATOM      7  N   UNL     1       1.523   8.056  19.973  0.00  0.00    +0.000 N 
ATOM      8  C   UNL     1       1.551   6.725  20.534  0.00  0.00    +0.000 C 
ATOM      9  C   UNL     1       2.355   5.934  19.576  0.00  0.00    +0.000 A 
ATOM     10  C   UNL     1       2.809   6.751  18.552  0.00  0.00    +0.000 A 
ATOM     11  C   UNL     1       3.603   6.232  17.533  0.00  0.00    +0.000 A 
ATOM     12  C   UNL     1       3.943   4.858  17.557  0.00  0.00    +0.000 A 
ATOM     13  C   UNL     1       3.433   4.055  18.609  0.00  0.00    +0.000 A 
ATOM     14  C   UNL     1       2.637   4.576  19.638  0.00  0.00    +0.000 A 
ATOM     15  C   UNL     1       2.274   8.122  18.788  0.00  0.00    +0.000 C 
ATOM     16  O   UNL     1       2.483   9.059  18.041  0.00  0.00    +0.000 OA
BRANCH  14  17
ATOM     17  C   UNL     1       2.112   3.689  20.738  0.00  0.00    +0.000 C 
ATOM     18  F   UNL     1       2.488   4.083  21.987  0.00  0.00    +0.000 F 
ATOM     19  F   UNL     1       0.753   3.643  20.762  0.00  0.00    +0.000 F 
ATOM     20  F   UNL     1       2.536   2.404  20.617  0.00  0.00    +0.000 F 
ENDBRANCH  14  17
BRANCH  12  21
ATOM     21  C   UNL     1       4.791   4.216  16.478  0.00  0.00    +0.000 C 
ATOM     22  C   UNL     1       5.503   5.061  15.450  0.00  0.00    +0.000 C 
ATOM     23  C   UNL     1       6.300   4.372  16.515  0.00  0.00    +0.000 C 
ENDBRANCH  12  21
ENDBRANCH   5   7
BRANCH   1  24
ATOM     24  C   UNL     1      -1.448  11.981  19.382  0.00  0.00    +0.000 C 
ATOM     25  C   UNL     1      -1.480  13.396  19.968  0.00  0.00    +0.000 C 
ATOM     26  F   UNL     1      -0.712  12.083  18.220  0.00  0.00    +0.000 F 
BRANCH  24  27
ATOM     27  C   UNL     1      -2.855  11.466  18.991  0.00  0.00    +0.000 C 
ATOM     28  F   UNL     1      -3.784  12.434  19.261  0.00  0.00    +0.000 F 
BRANCH  27  34
ATOM     29  C   UNL     1      -5.206  12.057  16.998  0.00  0.00    +0.000 C 
ATOM     30  N   UNL     1      -4.017  11.298  16.719  0.00  0.00    +0.000 N 
ATOM     31  C   UNL     1      -3.726  10.696  15.532  0.00  0.00    +0.000 A 
ATOM     32  N   UNL     1      -2.555  10.115  15.613  0.00  0.00    +0.000 NA
ATOM     33  N   UNL     1      -2.075  10.321  16.885  0.00  0.00    +0.000 NA
ATOM     34  C   UNL     1      -2.960  11.035  17.556  0.00  0.00    +0.000 A 
ENDBRANCH  27  34
ENDBRANCH  24  27
ENDBRANCH   1  24
TORSDOF 6
ENDMDL
MODEL 4
REMARK VINA RESULT:      -9.3      3.365      8.445
REMARK  Name = 
REMARK  8 active torsions:
REMARK  status: ('A' for Active; 'I' for Inactive)
REMARK    1  A    between atoms: C_1  and  N_2
REMARK    2  A    between atoms: C_6  and  C_7
REMARK    3  A    between atoms: C_7  and  C_9
REMARK    4  A    between atoms: C_9  and  C_10
REMARK    5  A    between atoms: C_9  and  C_12
REMARK    6  A    between atoms: C_16  and  N_17
REMARK    7  A    between atoms: C_22  and  C_23
REMARK    8  A    between atoms: C_27  and  C_28
REMARK                            x       y       z     vdW  Elec       q    Type
REMARK                         _______ _______ _______ _____ _____    ______ ____
ROOT
ATOM      1  C   UNL     1      -0.659  10.908  20.471  0.00  0.00    +0.000 A 
ATOM      2  C   UNL     1      -0.665  11.044  21.861  0.00  0.00    +0.000 A 
ATOM      3  C   UNL     1       0.045  10.139  22.662  0.00  0.00    +0.000 A 
ATOM      4  C   UNL     1       0.785   9.087  22.095  0.00  0.00    +0.000 A 
ATOM      5  C   UNL     1       0.814   8.923  20.714  0.00  0.00    +0.000 A 
ATOM      6  C   UNL     1       0.069   9.836  19.933  0.00  0.00    +0.000 A 
ENDROOT
BRANCH   5   7
ATOM      7  N   UNL     1       1.569   7.915  20.053  0.00  0.00    +0.000 N 
ATOM      8  C   UNL     1       1.553   6.571  20.582  0.00  0.00    +0.000 C 
ATOM      9  C   UNL     1       2.354   5.782  19.619  0.00  0.00    +0.000 A 
ATOM     10  C   UNL     1       2.846   6.610  18.622  0.00  0.00    +0.000 A 
ATOM     11  C   UNL     1       3.644   6.096  17.605  0.00  0.00    +0.000 A 
ATOM     12  C   UNL     1       3.949   4.713  17.602  0.00  0.00    +0.000 A 
ATOM     13  C   UNL     1       3.400   3.899  18.626  0.00  0.00    +0.000 A 
ATOM     14  C   UNL     1       2.599   4.416  19.653  0.00  0.00    +0.000 A 
ATOM     15  C   UNL     1       2.342   7.989  18.882  0.00  0.00    +0.000 C 
ATOM     16  O   UNL     1       2.588   8.938  18.161  0.00  0.00    +0.000 OA
BRANCH  14  17
ATOM     17  C   UNL     1       2.032   3.518  20.723  0.00  0.00    +0.000 C 
ATOM     18  F   UNL     1       2.375   2.207  20.579  0.00  0.00    +0.000 F 
ATOM     19  F   UNL     1       2.448   3.871  21.969  0.00  0.00    +0.000 F 
ATOM     20  F   UNL     1       0.674   3.540  20.753  0.00  0.00    +0.000 F 
ENDBRANCH  14  17
BRANCH  12  21
ATOM     21  C   UNL     1       4.798   4.074  16.523  0.00  0.00    +0.000 C 
ATOM     22  C   UNL     1       5.380   4.905  15.404  0.00  0.00    +0.000 C 
ATOM     23  C   UNL     1       6.287   4.364  16.467  0.00  0.00    +0.000 C 
ENDBRANCH  12  21
ENDBRANCH   5   7
BRANCH   1  24
ATOM     24  C   UNL     1      -1.360  11.877  19.503  0.00  0.00    +0.000 C 
ATOM     25  C   UNL     1      -2.231  11.090  18.519  0.00  0.00    +0.000 C 
ATOM     26  F   UNL     1      -2.234  12.681  20.203  0.00  0.00    +0.000 F 
BRANCH  24  27
ATOM     27  C   UNL     1      -0.350  12.810  18.790  0.00  0.00    +0.000 C 
ATOM     28  F   UNL     1      -0.844  13.162  17.563  0.00  0.00    +0.000 F 
BRANCH  27  34
ATOM     29  C   UNL     1       2.154  13.241  20.632  0.00  0.00    +0.000 C 
ATOM     30  N   UNL     1       1.094  14.184  20.393  0.00  0.00    +0.000 N 
ATOM     31  C   UNL     1       1.002  15.424  20.947  0.00  0.00    +0.000 A 
ATOM     32  N   UNL     1      -0.070  16.026  20.494  0.00  0.00    +0.000 NA
ATOM     33  N   UNL     1      -0.707  15.156  19.641  0.00  0.00    +0.000 NA
ATOM     34  C   UNL     1      -0.005  14.039  19.580  0.00  0.00    +0.000 A 
ENDBRANCH  27  34
ENDBRANCH  24  27
ENDBRANCH   1  24
TORSDOF 6
ENDMDL
MODEL 5
REMARK VINA RESULT:      -9.2      3.667      9.329
REMARK  Name = 
REMARK  8 active torsions:
REMARK  status: ('A' for Active; 'I' for Inactive)
REMARK    1  A    between atoms: C_1  and  N_2
REMARK    2  A    between atoms: C_6  and  C_7
REMARK    3  A    between atoms: C_7  and  C_9
REMARK    4  A    between atoms: C_9  and  C_10
REMARK    5  A    between atoms: C_9  and  C_12
REMARK    6  A    between atoms: C_16  and  N_17
REMARK    7  A    between atoms: C_22  and  C_23
REMARK    8  A    between atoms: C_27  and  C_28
REMARK                            x       y       z     vdW  Elec       q    Type
REMARK                         _______ _______ _______ _____ _____    ______ ____
ROOT
ATOM      1  C   UNL     1      -0.665  10.834  20.684  0.00  0.00    +0.000 A 
ATOM      2  C   UNL     1      -0.619  10.943  22.076  0.00  0.00    +0.000 A 
ATOM      3  C   UNL     1       0.131  10.031  22.831  0.00  0.00    +0.000 A 
ATOM      4  C   UNL     1       0.860   8.999  22.216  0.00  0.00    +0.000 A 
ATOM      5  C   UNL     1       0.837   8.862  20.832  0.00  0.00    +0.000 A 
ATOM      6  C   UNL     1       0.053   9.780  20.098  0.00  0.00    +0.000 A 
ENDROOT
BRANCH   5   7
ATOM      7  N   UNL     1       1.577   7.875  20.123  0.00  0.00    +0.000 N 
ATOM      8  C   UNL     1       1.585   6.518  20.619  0.00  0.00    +0.000 C 
ATOM      9  C   UNL     1       2.359   5.758  19.613  0.00  0.00    +0.000 A 
ATOM     10  C   UNL     1       2.816   6.613  18.622  0.00  0.00    +0.000 A 
ATOM     11  C   UNL     1       3.586   6.129  17.569  0.00  0.00    +0.000 A 
ATOM     12  C   UNL     1       3.897   4.748  17.521  0.00  0.00    +0.000 A 
ATOM     13  C   UNL     1       3.384   3.906  18.541  0.00  0.00    +0.000 A 
ATOM     14  C   UNL     1       2.613   4.393  19.605  0.00  0.00    +0.000 A 
ATOM     15  C   UNL     1       2.314   7.983  18.931  0.00  0.00    +0.000 C 
ATOM     16  O   UNL     1       2.532   8.950  18.227  0.00  0.00    +0.000 OA
BRANCH  14  17
ATOM     17  C   UNL     1       2.084   3.465  20.669  0.00  0.00    +0.000 C 
ATOM     18  F   UNL     1       2.495   2.174  20.526  0.00  0.00    +0.000 F 
ATOM     19  F   UNL     1       2.471   3.837  21.919  0.00  0.00    +0.000 F 
ATOM     20  F   UNL     1       0.726   3.417  20.688  0.00  0.00    +0.000 F 
ENDBRANCH  14  17
BRANCH  12  21
ATOM     21  C   UNL     1       4.716   4.142  16.401  0.00  0.00    +0.000 C 
ATOM     22  C   UNL     1       5.418   5.020  15.394  0.00  0.00    +0.000 C 
ATOM     23  C   UNL     1       6.228   4.280  16.414  0.00  0.00    +0.000 C 
ENDBRANCH  12  21
ENDBRANCH   5   7
BRANCH   1  24
ATOM     24  C   UNL     1      -1.413  11.813  19.762  0.00  0.00    +0.000 C 
ATOM     25  C   UNL     1      -0.478  12.296  18.649  0.00  0.00    +0.000 C 
ATOM     26  F   UNL     1      -2.438  11.152  19.118  0.00  0.00    +0.000 F 
BRANCH  24  27
ATOM     27  C   UNL     1      -2.048  12.981  20.556  0.00  0.00    +0.000 C 
ATOM     28  F   UNL     1      -1.744  14.165  19.943  0.00  0.00    +0.000 F 
BRANCH  27  34
ATOM     29  C   UNL     1      -3.623  12.589  23.242  0.00  0.00    +0.000 C 
ATOM     30  N   UNL     1      -4.188  12.663  21.921  0.00  0.00    +0.000 N 
ATOM     31  C   UNL     1      -5.512  12.561  21.623  0.00  0.00    +0.000 A 
ATOM     32  N   UNL     1      -5.681  12.700  20.331  0.00  0.00    +0.000 NA
ATOM     33  N   UNL     1      -4.440  12.877  19.766  0.00  0.00    +0.000 NA
ATOM     34  C   UNL     1      -3.535  12.853  20.727  0.00  0.00    +0.000 A 
ENDBRANCH  27  34
ENDBRANCH  24  27
ENDBRANCH   1  24
TORSDOF 6
ENDMDL
MODEL 6
REMARK VINA RESULT:      -9.1      3.349      8.706
REMARK  Name = 
REMARK  8 active torsions:
REMARK  status: ('A' for Active; 'I' for Inactive)
REMARK    1  A    between atoms: C_1  and  N_2
REMARK    2  A    between atoms: C_6  and  C_7
REMARK    3  A    between atoms: C_7  and  C_9
REMARK    4  A    between atoms: C_9  and  C_10
REMARK    5  A    between atoms: C_9  and  C_12
REMARK    6  A    between atoms: C_16  and  N_17
REMARK    7  A    between atoms: C_22  and  C_23
REMARK    8  A    between atoms: C_27  and  C_28
REMARK                            x       y       z     vdW  Elec       q    Type
REMARK                         _______ _______ _______ _____ _____    ______ ____
ROOT
ATOM      1  C   UNL     1       0.345  11.439  20.511  0.00  0.00    +0.000 A 
ATOM      2  C   UNL     1      -0.373  11.252  21.694  0.00  0.00    +0.000 A 
ATOM      3  C   UNL     1      -0.440   9.983  22.287  0.00  0.00    +0.000 A 
ATOM      4  C   UNL     1       0.217   8.878  21.720  0.00  0.00    +0.000 A 
ATOM      5  C   UNL     1       0.941   9.028  20.542  0.00  0.00    +0.000 A 
ATOM      6  C   UNL     1       0.971  10.313  19.954  0.00  0.00    +0.000 A 
ENDROOT
BRANCH   5   7
ATOM      7  N   UNL     1       1.671   7.976  19.921  0.00  0.00    +0.000 N 
ATOM      8  C   UNL     1       1.657   6.665  20.528  0.00  0.00    +0.000 C 
ATOM      9  C   UNL     1       2.426   5.814  19.593  0.00  0.00    +0.000 A 
ATOM     10  C   UNL     1       2.900   6.578  18.538  0.00  0.00    +0.000 A 
ATOM     11  C   UNL     1       3.668   5.997  17.533  0.00  0.00    +0.000 A 
ATOM     12  C   UNL     1       3.960   4.613  17.602  0.00  0.00    +0.000 A 
ATOM     13  C   UNL     1       3.430   3.866  18.686  0.00  0.00    +0.000 A 
ATOM     14  C   UNL     1       2.661   4.449  19.700  0.00  0.00    +0.000 A 
ATOM     15  C   UNL     1       2.415   7.975  18.729  0.00  0.00    +0.000 C 
ATOM     16  O   UNL     1       2.650   8.877  17.948  0.00  0.00    +0.000 OA
BRANCH  14  17
ATOM     17  C   UNL     1       2.114   3.621  20.835  0.00  0.00    +0.000 C 
ATOM     18  F   UNL     1       2.570   2.337  20.847  0.00  0.00    +0.000 F 
ATOM     19  F   UNL     1       2.434   4.135  22.053  0.00  0.00    +0.000 F 
ATOM     20  F   UNL     1       0.759   3.527  20.803  0.00  0.00    +0.000 F 
ENDBRANCH  14  17
BRANCH  12  21
ATOM     21  C   UNL     1       4.776   3.905  16.541  0.00  0.00    +0.000 C 
ATOM     22  C   UNL     1       5.240   4.638  15.305  0.00  0.00    +0.000 C 
ATOM     23  C   UNL     1       6.240   4.261  16.355  0.00  0.00    +0.000 C 
ENDBRANCH  12  21
ENDBRANCH   5   7
BRANCH   1  24
ATOM     24  C   UNL     1       0.523  12.798  19.811  0.00  0.00    +0.000 C 
ATOM     25  C   UNL     1       1.428  13.702  20.655  0.00  0.00    +0.000 C 
ATOM     26  F   UNL     1       1.193  12.622  18.619  0.00  0.00    +0.000 F 
BRANCH  24  27
ATOM     27  C   UNL     1      -0.837  13.459  19.480  0.00  0.00    +0.000 C 
ATOM     28  F   UNL     1      -0.626  14.581  18.727  0.00  0.00    +0.000 F 
BRANCH  27  34
ATOM     29  C   UNL     1      -3.728  12.670  20.412  0.00  0.00    +0.000 C 
ATOM     30  N   UNL     1      -3.052  12.203  19.232  0.00  0.00    +0.000 N 
ATOM     31  C   UNL     1      -3.561  11.323  18.327  0.00  0.00    +0.000 A 
ATOM     32  N   UNL     1      -2.695  11.138  17.362  0.00  0.00    +0.000 NA
ATOM     33  N   UNL     1      -1.585  11.896  17.649  0.00  0.00    +0.000 NA
ATOM     34  C   UNL     1      -1.798  12.540  18.782  0.00  0.00    +0.000 A 
ENDBRANCH  27  34
ENDBRANCH  24  27
ENDBRANCH   1  24
TORSDOF 6
ENDMDL
MODEL 7
REMARK VINA RESULT:      -9.0      3.536      8.865
REMARK  Name = 
REMARK  8 active torsions:
REMARK  status: ('A' for Active; 'I' for Inactive)
REMARK    1  A    between atoms: C_1  and  N_2
REMARK    2  A    between atoms: C_6  and  C_7
REMARK    3  A    between atoms: C_7  and  C_9
REMARK    4  A    between atoms: C_9  and  C_10
REMARK    5  A    between atoms: C_9  and  C_12
REMARK    6  A    between atoms: C_16  and  N_17
REMARK    7  A    between atoms: C_22  and  C_23
REMARK    8  A    between atoms: C_27  and  C_28
REMARK                            x       y       z     vdW  Elec       q    Type
REMARK                         _______ _______ _______ _____ _____    ______ ____
ROOT
ATOM      1  C   UNL     1      -1.139  11.084  19.931  0.00  0.00    +0.000 A 
ATOM      2  C   UNL     1      -0.849  11.611  21.192  0.00  0.00    +0.000 A 
ATOM      3  C   UNL     1       0.212  11.092  21.947  0.00  0.00    +0.000 A 
ATOM      4  C   UNL     1       1.013  10.046  21.457  0.00  0.00    +0.000 A 
ATOM      5  C   UNL     1       0.753   9.498  20.206  0.00  0.00    +0.000 A 
ATOM      6  C   UNL     1      -0.338  10.025  19.477  0.00  0.00    +0.000 A 
ENDROOT
BRANCH   5   7
ATOM      7  N   UNL     1       1.536   8.468  19.614  0.00  0.00    +0.000 N 
ATOM      8  C   UNL     1       1.572   7.169  20.245  0.00  0.00    +0.000 C 
ATOM      9  C   UNL     1       2.390   6.336  19.336  0.00  0.00    +0.000 A 
ATOM     10  C   UNL     1       2.843   7.101  18.272  0.00  0.00    +0.000 A 
ATOM     11  C   UNL     1       3.649   6.537  17.288  0.00  0.00    +0.000 A 
ATOM     12  C   UNL     1       4.001   5.169  17.387  0.00  0.00    +0.000 A 
ATOM     13  C   UNL     1       3.490   4.418  18.477  0.00  0.00    +0.000 A 
ATOM     14  C   UNL     1       2.683   4.985  19.471  0.00  0.00    +0.000 A 
ATOM     15  C   UNL     1       2.295   8.478  18.431  0.00  0.00    +0.000 C 
ATOM     16  O   UNL     1       2.500   9.376  17.637  0.00  0.00    +0.000 OA
BRANCH  14  17
ATOM     17  C   UNL     1       2.157   4.154  20.613  0.00  0.00    +0.000 C 
ATOM     18  F   UNL     1       2.596   2.864  20.602  0.00  0.00    +0.000 F 
ATOM     19  F   UNL     1       2.518   4.653  21.826  0.00  0.00    +0.000 F 
ATOM     20  F   UNL     1       0.801   4.078  20.620  0.00  0.00    +0.000 F 
ENDBRANCH  14  17
BRANCH  12  21
ATOM     21  C   UNL     1       4.862   4.478  16.349  0.00  0.00    +0.000 C 
ATOM     22  C   UNL     1       5.762   5.276  15.437  0.00  0.00    +0.000 C 
ATOM     23  C   UNL     1       6.369   4.443  16.524  0.00  0.00    +0.000 C 
ENDBRANCH  12  21
ENDBRANCH   5   7
BRANCH   1  24
ATOM     24  C   UNL     1      -2.244  11.617  19.002  0.00  0.00    +0.000 C 
ATOM     25  C   UNL     1      -3.074  12.676  19.737  0.00  0.00    +0.000 C 
ATOM     26  F   UNL     1      -1.675  12.276  17.933  0.00  0.00    +0.000 F 
BRANCH  24  27
ATOM     27  C   UNL     1      -3.114  10.473  18.426  0.00  0.00    +0.000 C 
ATOM     28  F   UNL     1      -4.383  10.568  18.930  0.00  0.00    +0.000 F 
BRANCH  27  34
ATOM     29  C   UNL     1      -5.114  12.003  16.553  0.00  0.00    +0.000 C 
ATOM     30  N   UNL     1      -4.059  11.117  16.138  0.00  0.00    +0.000 N 
ATOM     31  C   UNL     1      -3.767  10.788  14.850  0.00  0.00    +0.000 A 
ATOM     32  N   UNL     1      -2.733   9.984  14.829  0.00  0.00    +0.000 NA
ATOM     33  N   UNL     1      -2.351   9.763  16.130  0.00  0.00    +0.000 NA
ATOM     34  C   UNL     1      -3.154  10.446  16.925  0.00  0.00    +0.000 A 
ENDBRANCH  27  34
ENDBRANCH  24  27
ENDBRANCH   1  24
TORSDOF 6
ENDMDL
MODEL 8
REMARK VINA RESULT:      -9.0      3.246      8.304
REMARK  Name = 
REMARK  8 active torsions:
REMARK  status: ('A' for Active; 'I' for Inactive)
REMARK    1  A    between atoms: C_1  and  N_2
REMARK    2  A    between atoms: C_6  and  C_7
REMARK    3  A    between atoms: C_7  and  C_9
REMARK    4  A    between atoms: C_9  and  C_10
REMARK    5  A    between atoms: C_9  and  C_12
REMARK    6  A    between atoms: C_16  and  N_17
REMARK    7  A    between atoms: C_22  and  C_23
REMARK    8  A    between atoms: C_27  and  C_28
REMARK                            x       y       z     vdW  Elec       q    Type
REMARK                         _______ _______ _______ _____ _____    ______ ____
ROOT
ATOM      1  C   UNL     1      -0.534  11.295  20.853  0.00  0.00    +0.000 A 
ATOM      2  C   UNL     1      -0.808  11.175  22.218  0.00  0.00    +0.000 A 
ATOM      3  C   UNL     1      -0.371  10.049  22.929  0.00  0.00    +0.000 A 
ATOM      4  C   UNL     1       0.359   9.026  22.299  0.00  0.00    +0.000 A 
ATOM      5  C   UNL     1       0.650   9.114  20.942  0.00  0.00    +0.000 A 
ATOM      6  C   UNL     1       0.175  10.248  20.245  0.00  0.00    +0.000 A 
ENDROOT
BRANCH   5   7
ATOM      7  N   UNL     1       1.417   8.148  20.233  0.00  0.00    +0.000 N 
ATOM      8  C   UNL     1       1.482   6.798  20.742  0.00  0.00    +0.000 C 
ATOM      9  C   UNL     1       2.272   6.056  19.734  0.00  0.00    +0.000 A 
ATOM     10  C   UNL     1       2.684   6.918  18.729  0.00  0.00    +0.000 A 
ATOM     11  C   UNL     1       3.458   6.452  17.670  0.00  0.00    +0.000 A 
ATOM     12  C   UNL     1       3.820   5.083  17.633  0.00  0.00    +0.000 A 
ATOM     13  C   UNL     1       3.352   4.233  18.668  0.00  0.00    +0.000 A 
ATOM     14  C   UNL     1       2.576   4.702  19.736  0.00  0.00    +0.000 A 
ATOM     15  C   UNL     1       2.134   8.271  19.031  0.00  0.00    +0.000 C 
ATOM     16  O   UNL     1       2.307   9.239  18.314  0.00  0.00    +0.000 OA
BRANCH  14  17
ATOM     17  C   UNL     1       2.096   3.766  20.816  0.00  0.00    +0.000 C 
ATOM     18  F   UNL     1       2.577   2.497  20.698  0.00  0.00    +0.000 F 
ATOM     19  F   UNL     1       2.458   4.181  22.060  0.00  0.00    +0.000 F 
ATOM     20  F   UNL     1       0.742   3.644  20.833  0.00  0.00    +0.000 F 
ENDBRANCH  14  17
BRANCH  12  21
ATOM     21  C   UNL     1       4.647   4.496  16.508  0.00  0.00    +0.000 C 
ATOM     22  C   UNL     1       5.423   5.391  15.572  0.00  0.00    +0.000 C 
ATOM     23  C   UNL     1       6.162   4.560  16.576  0.00  0.00    +0.000 C 
ENDBRANCH  12  21
ENDBRANCH   5   7
BRANCH   1  24
ATOM     24  C   UNL     1      -0.923  12.512  19.996  0.00  0.00    +0.000 C 
ATOM     25  C   UNL     1      -0.440  12.309  18.556  0.00  0.00    +0.000 C 
ATOM     26  F   UNL     1      -2.296  12.602  19.912  0.00  0.00    +0.000 F 
BRANCH  24  27
ATOM     27  C   UNL     1      -0.413  13.838  20.613  0.00  0.00    +0.000 C 
ATOM     28  F   UNL     1      -0.941  13.988  21.867  0.00  0.00    +0.000 F 
BRANCH  27  34
ATOM     29  C   UNL     1       1.436  15.590  18.781  0.00  0.00    +0.000 C 
ATOM     30  N   UNL     1       1.862  14.707  19.832  0.00  0.00    +0.000 N 
ATOM     31  C   UNL     1       3.154  14.478  20.194  0.00  0.00    +0.000 A 
ATOM     32  N   UNL     1       3.184  13.642  21.203  0.00  0.00    +0.000 NA
ATOM     33  N   UNL     1       1.886  13.299  21.496  0.00  0.00    +0.000 NA
ATOM     34  C   UNL     1       1.084  13.940  20.666  0.00  0.00    +0.000 A 
ENDBRANCH  27  34
ENDBRANCH  24  27
ENDBRANCH   1  24
TORSDOF 6
ENDMDL
MODEL 9
REMARK VINA RESULT:      -9.0      3.587      9.187
REMARK  Name = 
REMARK  8 active torsions:
REMARK  status: ('A' for Active; 'I' for Inactive)
REMARK    1  A    between atoms: C_1  and  N_2
REMARK    2  A    between atoms: C_6  and  C_7
REMARK    3  A    between atoms: C_7  and  C_9
REMARK    4  A    between atoms: C_9  and  C_10
REMARK    5  A    between atoms: C_9  and  C_12
REMARK    6  A    between atoms: C_16  and  N_17
REMARK    7  A    between atoms: C_22  and  C_23
REMARK    8  A    between atoms: C_27  and  C_28
REMARK                            x       y       z     vdW  Elec       q    Type
REMARK                         _______ _______ _______ _____ _____    ______ ____
ROOT
ATOM      1  C   UNL     1      -0.538  10.899  20.351  0.00  0.00    +0.000 A 
ATOM      2  C   UNL     1      -0.562  11.044  21.740  0.00  0.00    +0.000 A 
ATOM      3  C   UNL     1       0.121  10.131  22.557  0.00  0.00    +0.000 A 
ATOM      4  C   UNL     1       0.851   9.064  22.007  0.00  0.00    +0.000 A 
ATOM      5  C   UNL     1       0.897   8.890  20.628  0.00  0.00    +0.000 A 
ATOM      6  C   UNL     1       0.179   9.810  19.831  0.00  0.00    +0.000 A 
ENDROOT
BRANCH   5   7
ATOM      7  N   UNL     1       1.644   7.865  19.984  0.00  0.00    +0.000 N 
ATOM      8  C   UNL     1       1.639   6.536  20.552  0.00  0.00    +0.000 C 
ATOM      9  C   UNL     1       2.426   5.721  19.600  0.00  0.00    +0.000 A 
ATOM     10  C   UNL     1       2.901   6.521  18.571  0.00  0.00    +0.000 A 
ATOM     11  C   UNL     1       3.684   5.979  17.557  0.00  0.00    +0.000 A 
ATOM     12  C   UNL     1       3.991   4.597  17.589  0.00  0.00    +0.000 A 
ATOM     13  C   UNL     1       3.460   3.812  18.644  0.00  0.00    +0.000 A 
ATOM     14  C   UNL     1       2.675   4.357  19.668  0.00  0.00    +0.000 A 
ATOM     15  C   UNL     1       2.398   7.906  18.799  0.00  0.00    +0.000 C 
ATOM     16  O   UNL     1       2.630   8.835  18.048  0.00  0.00    +0.000 OA
BRANCH  14  17
ATOM     17  C   UNL     1       2.127   3.489  20.773  0.00  0.00    +0.000 C 
ATOM     18  F   UNL     1       2.548   2.195  20.715  0.00  0.00    +0.000 F 
ATOM     19  F   UNL     1       2.483   3.936  22.007  0.00  0.00    +0.000 F 
ATOM     20  F   UNL     1       0.769   3.432  20.763  0.00  0.00    +0.000 F 
ENDBRANCH  14  17
BRANCH  12  21
ATOM     21  C   UNL     1       4.825   3.929  16.515  0.00  0.00    +0.000 C 
ATOM     22  C   UNL     1       5.364   4.723  15.350  0.00  0.00    +0.000 C 
ATOM     23  C   UNL     1       6.307   4.242  16.410  0.00  0.00    +0.000 C 
ENDBRANCH  12  21
ENDBRANCH   5   7
BRANCH   1  24
ATOM     24  C   UNL     1      -1.207  11.873  19.367  0.00  0.00    +0.000 C 
ATOM     25  C   UNL     1      -0.377  13.157  19.260  0.00  0.00    +0.000 C 
ATOM     26  F   UNL     1      -1.203  11.329  18.100  0.00  0.00    +0.000 F 
BRANCH  24  27
ATOM     27  C   UNL     1      -2.684  12.149  19.743  0.00  0.00    +0.000 C 
ATOM     28  F   UNL     1      -2.815  13.449  20.148  0.00  0.00    +0.000 F 
BRANCH  27  34
ATOM     29  C   UNL     1      -5.812  11.995  19.945  0.00  0.00    +0.000 C 
ATOM     30  N   UNL     1      -5.018  11.774  18.766  0.00  0.00    +0.000 N 
ATOM     31  C   UNL     1      -5.505  11.447  17.538  0.00  0.00    +0.000 A 
ATOM     32  N   UNL     1      -4.513  11.348  16.687  0.00  0.00    +0.000 NA
ATOM     33  N   UNL     1      -3.349  11.596  17.375  0.00  0.00    +0.000 NA
ATOM     34  C   UNL     1      -3.652  11.852  18.635  0.00  0.00    +0.000 A 
ENDBRANCH  27  34
ENDBRANCH  24  27
ENDBRANCH   1  24
TORSDOF 6
ENDMDL
