MODEL 1
REMARK VINA RESULT:      -8.6      0.000      0.000
REMARK  Name = 
REMARK  8 active torsions:
REMARK  status: ('A' for Active; 'I' for Inactive)
REMARK    1  A    between atoms: C_1  and  C_2
REMARK    2  A    between atoms: C_2  and  S_3
REMARK    3  A    between atoms: C_2  and  C_10
REMARK    4  A    between atoms: S_3  and  C_4
REMARK    5  A    between atoms: N_8  and  C_9
REMARK    6  A    between atoms: C_14  and  N_15
REMARK    7  A    between atoms: C_16  and  C_18
REMARK    8  A    between atoms: C_20  and  C_21
REMARK                            x       y       z     vdW  Elec       q    Type
REMARK                         _______ _______ _______ _____ _____    ______ ____
ROOT
ATOM      1  C   UNL     1       4.303   4.988  16.854  0.00  0.00    +0.000 A 
ATOM      2  C   UNL     1       3.697   3.733  17.038  0.00  0.00    +0.000 A 
ATOM      3  C   UNL     1       2.561   3.608  17.832  0.00  0.00    +0.000 A 
ATOM      4  C   UNL     1       2.017   4.728  18.465  0.00  0.00    +0.000 A 
ATOM      5  C   UNL     1       2.597   5.990  18.313  0.00  0.00    +0.000 A 
ATOM      6  C   UNL     1       3.721   6.113  17.486  0.00  0.00    +0.000 A 
ENDROOT
BRANCH   5   7
ATOM      7  N   UNL     1       2.095   7.152  18.947  0.00  0.00    +0.000 N 
ATOM      8  C   UNL     1       1.992   8.412  18.380  0.00  0.00    +0.000 C 
ATOM      9  O   UNL     1       2.303   8.731  17.237  0.00  0.00    +0.000 OA
ATOM     10  H   UNL     1       1.707   7.059  19.882  0.00  0.00    +0.000 HD
BRANCH   8  11
ATOM     11  C   UNL     1       1.406   9.464  19.270  0.00  0.00    +0.000 A 
ATOM     12  C   UNL     1       0.819   9.074  20.474  0.00  0.00    +0.000 A 
ATOM     13  C   UNL     1       0.291  10.046  21.336  0.00  0.00    +0.000 A 
ATOM     14  C   UNL     1       0.369  11.381  20.940  0.00  0.00    +0.000 A 
ATOM     15 CL   UNL     1      -0.229  12.673  21.907  0.00  0.00    +0.000 Cl
ATOM     16  C   UNL     1       0.964  11.679  19.714  0.00  0.00    +0.000 A 
ATOM     17  N   UNL     1       1.492  10.757  18.866  0.00  0.00    +0.000 NA
BRANCH  13  18
ATOM     18  C   UNL     1      -0.315   9.634  22.648  0.00  0.00    +0.000 C 
ATOM     19  F   UNL     1       0.609   9.517  23.646  0.00  0.00    +0.000 F 
ATOM     20  F   UNL     1      -1.234  10.525  23.108  0.00  0.00    +0.000 F 
ATOM     21  F   UNL     1      -0.937   8.426  22.592  0.00  0.00    +0.000 F 
ENDBRANCH  13  18
ENDBRANCH   8  11
ENDBRANCH   5   7
BRANCH   1  23
ATOM     22  C   UNL     1       5.442   4.145  14.763  0.00  0.00    +0.000 C 
ATOM     23  C   UNL     1       5.535   5.099  15.958  0.00  0.00    +0.000 C 
BRANCH  23  24
ATOM     24  S   UNL     1       7.026   4.820  16.993  0.00  0.00    +0.000 S 
BRANCH  24  25
ATOM     25  C   UNL     1       7.475   6.402  17.514  0.00  0.00    +0.000 A 
ATOM     26  N   UNL     1       7.404   7.526  16.841  0.00  0.00    +0.000 NA
ATOM     27  N   UNL     1       7.988   8.513  17.604  0.00  0.00    +0.000 NA
ATOM     28  C   UNL     1       8.372   7.965  18.735  0.00  0.00    +0.000 A 
ATOM     29  N   UNL     1       8.039   6.644  18.735  0.00  0.00    +0.000 N 
ATOM     30  C   UNL     1       8.240   5.724  19.822  0.00  0.00    +0.000 C 
ENDBRANCH  24  25
ENDBRANCH  23  24
ENDBRANCH   1  23
TORSDOF 6
ENDMDL
MODEL 2
REMARK VINA RESULT:      -8.4      5.803      7.912
REMARK  Name = 
REMARK  8 active torsions:
REMARK  status: ('A' for Active; 'I' for Inactive)
REMARK    1  A    between atoms: C_1  and  C_2
REMARK    2  A    between atoms: C_2  and  S_3
REMARK    3  A    between atoms: C_2  and  C_10
REMARK    4  A    between atoms: S_3  and  C_4
REMARK    5  A    between atoms: N_8  and  C_9
REMARK    6  A    between atoms: C_14  and  N_15
REMARK    7  A    between atoms: C_16  and  C_18
REMARK    8  A    between atoms: C_20  and  C_21
REMARK                            x       y       z     vdW  Elec       q    Type
REMARK                         _______ _______ _______ _____ _____    ______ ____
ROOT
ATOM      1  C   UNL     1       6.333   6.389  17.317  0.00  0.00    +0.000 A 
ATOM      2  C   UNL     1       6.842   5.529  18.305  0.00  0.00    +0.000 A 
ATOM      3  C   UNL     1       7.883   5.942  19.133  0.00  0.00    +0.000 A 
ATOM      4  C   UNL     1       8.440   7.213  18.981  0.00  0.00    +0.000 A 
ATOM      5  C   UNL     1       7.968   8.093  18.004  0.00  0.00    +0.000 A 
ATOM      6  C   UNL     1       6.898   7.681  17.197  0.00  0.00    +0.000 A 
ENDROOT
BRANCH   5   7
ATOM      7  N   UNL     1       8.510   9.384  17.798  0.00  0.00    +0.000 N 
ATOM      8  C   UNL     1       9.032  10.216  18.774  0.00  0.00    +0.000 C 
ATOM      9  O   UNL     1       9.127   9.973  19.973  0.00  0.00    +0.000 OA
ATOM     10  H   UNL     1       8.594   9.722  16.843  0.00  0.00    +0.000 HD
BRANCH   8  11
ATOM     11  C   UNL     1       9.560  11.526  18.278  0.00  0.00    +0.000 A 
ATOM     12  C   UNL     1       8.839  12.688  18.553  0.00  0.00    +0.000 A 
ATOM     13  C   UNL     1       9.331  13.929  18.123  0.00  0.00    +0.000 A 
ATOM     14  C   UNL     1      10.535  13.946  17.419  0.00  0.00    +0.000 A 
ATOM     15 CL   UNL     1      11.255  15.400  16.846  0.00  0.00    +0.000 Cl
ATOM     16  C   UNL     1      11.184  12.734  17.180  0.00  0.00    +0.000 A 
ATOM     17  N   UNL     1      10.733  11.521  17.595  0.00  0.00    +0.000 NA
BRANCH  13  18
ATOM     18  C   UNL     1       8.574  15.187  18.444  0.00  0.00    +0.000 C 
ATOM     19  F   UNL     1       7.446  14.956  19.177  0.00  0.00    +0.000 F 
ATOM     20  F   UNL     1       9.305  16.071  19.174  0.00  0.00    +0.000 F 
ATOM     21  F   UNL     1       8.152  15.852  17.336  0.00  0.00    +0.000 F 
ENDBRANCH  13  18
ENDBRANCH   8  11
ENDBRANCH   5   7
BRANCH   1  23
ATOM     22  C   UNL     1       3.866   5.854  17.233  0.00  0.00    +0.000 C 
ATOM     23  C   UNL     1       5.175   5.917  16.440  0.00  0.00    +0.000 C 
BRANCH  23  24
ATOM     24  S   UNL     1       5.643   4.310  15.685  0.00  0.00    +0.000 S 
BRANCH  24  25
ATOM     25  C   UNL     1       6.779   4.740  14.460  0.00  0.00    +0.000 A 
ATOM     26  N   UNL     1       7.816   5.537  14.561  0.00  0.00    +0.000 NA
ATOM     27  N   UNL     1       8.359   5.685  13.303  0.00  0.00    +0.000 NA
ATOM     28  C   UNL     1       7.652   4.948  12.477  0.00  0.00    +0.000 A 
ATOM     29  N   UNL     1       6.666   4.309  13.167  0.00  0.00    +0.000 N 
ATOM     30  C   UNL     1       5.728   3.367  12.619  0.00  0.00    +0.000 C 
ENDBRANCH  24  25
ENDBRANCH  23  24
ENDBRANCH   1  23
TORSDOF 6
ENDMDL
MODEL 3
REMARK VINA RESULT:      -8.3      4.813      8.929
REMARK  Name = 
REMARK  8 active torsions:
REMARK  status: ('A' for Active; 'I' for Inactive)
REMARK    1  A    between atoms: C_1  and  C_2
REMARK    2  A    between atoms: C_2  and  S_3
REMARK    3  A    between atoms: C_2  and  C_10
REMARK    4  A    between atoms: S_3  and  C_4
REMARK    5  A    between atoms: N_8  and  C_9
REMARK    6  A    between atoms: C_14  and  N_15
REMARK    7  A    between atoms: C_16  and  C_18
REMARK    8  A    between atoms: C_20  and  C_21
REMARK                            x       y       z     vdW  Elec       q    Type
REMARK                         _______ _______ _______ _____ _____    ______ ____
ROOT
ATOM      1  C   UNL     1      -0.838  11.175  20.738  0.00  0.00    +0.000 A 
ATOM      2  C   UNL     1      -1.158  11.388  22.090  0.00  0.00    +0.000 A 
ATOM      3  C   UNL     1      -0.784  10.460  23.058  0.00  0.00    +0.000 A 
ATOM      4  C   UNL     1      -0.097   9.300  22.693  0.00  0.00    +0.000 A 
ATOM      5  C   UNL     1       0.230   9.049  21.359  0.00  0.00    +0.000 A 
ATOM      6  C   UNL     1      -0.121  10.004  20.395  0.00  0.00    +0.000 A 
ENDROOT
BRANCH   5   7
ATOM      7  N   UNL     1       0.910   7.882  20.935  0.00  0.00    +0.000 N 
ATOM      8  C   UNL     1       1.808   7.794  19.885  0.00  0.00    +0.000 C 
ATOM      9  O   UNL     1       2.177   8.709  19.156  0.00  0.00    +0.000 OA
ATOM     10  H   UNL     1       0.792   7.033  21.483  0.00  0.00    +0.000 HD
BRANCH   8  11
ATOM     11  C   UNL     1       2.399   6.436  19.664  0.00  0.00    +0.000 A 
ATOM     12  C   UNL     1       1.980   5.382  20.474  0.00  0.00    +0.000 A 
ATOM     13  C   UNL     1       2.498   4.095  20.264  0.00  0.00    +0.000 A 
ATOM     14  C   UNL     1       3.432   3.927  19.243  0.00  0.00    +0.000 A 
ATOM     15 CL   UNL     1       4.137   2.402  18.871  0.00  0.00    +0.000 Cl
ATOM     16  C   UNL     1       3.802   5.041  18.487  0.00  0.00    +0.000 A 
ATOM     17  N   UNL     1       3.307   6.294  18.665  0.00  0.00    +0.000 NA
BRANCH  13  18
ATOM     18  C   UNL     1       2.026   2.950  21.114  0.00  0.00    +0.000 C 
ATOM     19  F   UNL     1       3.038   2.346  21.802  0.00  0.00    +0.000 F 
ATOM     20  F   UNL     1       1.123   3.330  22.058  0.00  0.00    +0.000 F 
ATOM     21  F   UNL     1       1.440   1.957  20.392  0.00  0.00    +0.000 F 
ENDBRANCH  13  18
ENDBRANCH   8  11
ENDBRANCH   5   7
BRANCH   1  23
ATOM     22  C   UNL     1      -0.883  13.636  20.171  0.00  0.00    +0.000 C 
ATOM     23  C   UNL     1      -1.239  12.222  19.701  0.00  0.00    +0.000 C 
BRANCH  23  24
ATOM     24  S   UNL     1      -3.025  12.010  19.332  0.00  0.00    +0.000 S 
BRANCH  24  25
ATOM     25  C   UNL     1      -3.046  11.340  17.742  0.00  0.00    +0.000 A 
ATOM     26  N   UNL     1      -2.071  10.735  17.106  0.00  0.00    +0.000 NA
ATOM     27  N   UNL     1      -2.499  10.481  15.821  0.00  0.00    +0.000 NA
ATOM     28  C   UNL     1      -3.735  10.914  15.722  0.00  0.00    +0.000 A 
ATOM     29  N   UNL     1      -4.132  11.433  16.917  0.00  0.00    +0.000 N 
ATOM     30  C   UNL     1      -5.440  11.948  17.219  0.00  0.00    +0.000 C 
ENDBRANCH  24  25
ENDBRANCH  23  24
ENDBRANCH   1  23
TORSDOF 6
ENDMDL
MODEL 4
REMARK VINA RESULT:      -8.2      4.681      8.766
REMARK  Name = 
REMARK  8 active torsions:
REMARK  status: ('A' for Active; 'I' for Inactive)
REMARK    1  A    between atoms: C_1  and  C_2
REMARK    2  A    between atoms: C_2  and  S_3
REMARK    3  A    between atoms: C_2  and  C_10
REMARK    4  A    between atoms: S_3  and  C_4
REMARK    5  A    between atoms: N_8  and  C_9
REMARK    6  A    between atoms: C_14  and  N_15
REMARK    7  A    between atoms: C_16  and  C_18
REMARK    8  A    between atoms: C_20  and  C_21
REMARK                            x       y       z     vdW  Elec       q    Type
REMARK                         _______ _______ _______ _____ _____    ______ ____
ROOT
ATOM      1  C   UNL     1      -0.110  11.295  21.027  0.00  0.00    +0.000 A 
ATOM      2  C   UNL     1      -0.726  11.406  22.285  0.00  0.00    +0.000 A 
ATOM      3  C   UNL     1      -0.661  10.357  23.198  0.00  0.00    +0.000 A 
ATOM      4  C   UNL     1       0.009   9.177  22.867  0.00  0.00    +0.000 A 
ATOM      5  C   UNL     1       0.626   9.026  21.623  0.00  0.00    +0.000 A 
ATOM      6  C   UNL     1       0.583  10.100  20.723  0.00  0.00    +0.000 A 
ENDROOT
BRANCH   5   7
ATOM      7  N   UNL     1       1.301   7.845  21.233  0.00  0.00    +0.000 N 
ATOM      8  C   UNL     1       1.906   7.616  20.007  0.00  0.00    +0.000 C 
ATOM      9  O   UNL     1       1.970   8.396  19.063  0.00  0.00    +0.000 OA
ATOM     10  H   UNL     1       1.424   7.111  21.926  0.00  0.00    +0.000 HD
BRANCH   8  11
ATOM     11  C   UNL     1       2.569   6.281  19.865  0.00  0.00    +0.000 A 
ATOM     12  C   UNL     1       2.018   5.183  20.525  0.00  0.00    +0.000 A 
ATOM     13  C   UNL     1       2.607   3.918  20.381  0.00  0.00    +0.000 A 
ATOM     14  C   UNL     1       3.741   3.814  19.577  0.00  0.00    +0.000 A 
ATOM     15 CL   UNL     1       4.554   2.322  19.305  0.00  0.00    +0.000 Cl
ATOM     16  C   UNL     1       4.230   4.967  18.962  0.00  0.00    +0.000 A 
ATOM     17  N   UNL     1       3.673   6.201  19.078  0.00  0.00    +0.000 NA
BRANCH  13  18
ATOM     18  C   UNL     1       1.998   2.727  21.065  0.00  0.00    +0.000 C 
ATOM     19  F   UNL     1       0.888   3.042  21.793  0.00  0.00    +0.000 F 
ATOM     20  F   UNL     1       1.598   1.764  20.192  0.00  0.00    +0.000 F 
ATOM     21  F   UNL     1       2.846   2.127  21.944  0.00  0.00    +0.000 F 
ENDBRANCH  13  18
ENDBRANCH   8  11
ENDBRANCH   5   7
BRANCH   1  23
ATOM     22  C   UNL     1       0.514  13.711  20.633  0.00  0.00    +0.000 C 
ATOM     23  C   UNL     1      -0.178  12.472  20.056  0.00  0.00    +0.000 C 
BRANCH  23  24
ATOM     24  S   UNL     1      -1.938  12.760  19.624  0.00  0.00    +0.000 S 
BRANCH  24  25
ATOM     25  C   UNL     1      -2.292  11.528  18.469  0.00  0.00    +0.000 A 
ATOM     26  N   UNL     1      -1.447  10.787  17.792  0.00  0.00    +0.000 NA
ATOM     27  N   UNL     1      -2.173  10.030  16.898  0.00  0.00    +0.000 NA
ATOM     28  C   UNL     1      -3.443  10.311  17.079  0.00  0.00    +0.000 A 
ATOM     29  N   UNL     1      -3.567  11.226  18.081  0.00  0.00    +0.000 N 
ATOM     30  C   UNL     1      -4.805  11.733  18.610  0.00  0.00    +0.000 C 
ENDBRANCH  24  25
ENDBRANCH  23  24
ENDBRANCH   1  23
TORSDOF 6
ENDMDL
MODEL 5
REMARK VINA RESULT:      -8.1      4.898      9.024
REMARK  Name = 
REMARK  8 active torsions:
REMARK  status: ('A' for Active; 'I' for Inactive)
REMARK    1  A    between atoms: C_1  and  C_2
REMARK    2  A    between atoms: C_2  and  S_3
REMARK    3  A    between atoms: C_2  and  C_10
REMARK    4  A    between atoms: S_3  and  C_4
REMARK    5  A    between atoms: N_8  and  C_9
REMARK    6  A    between atoms: C_14  and  N_15
REMARK    7  A    between atoms: C_16  and  C_18
REMARK    8  A    between atoms: C_20  and  C_21
REMARK                            x       y       z     vdW  Elec       q    Type
REMARK                         _______ _______ _______ _____ _____    ______ ____
ROOT
ATOM      1  C   UNL     1      -0.541  11.293  20.495  0.00  0.00    +0.000 A 
ATOM      2  C   UNL     1      -0.751  11.192  21.881  0.00  0.00    +0.000 A 
ATOM      3  C   UNL     1      -0.191  10.143  22.605  0.00  0.00    +0.000 A 
ATOM      4  C   UNL     1       0.577   9.172  21.958  0.00  0.00    +0.000 A 
ATOM      5  C   UNL     1       0.800   9.234  20.580  0.00  0.00    +0.000 A 
ATOM      6  C   UNL     1       0.260  10.312  19.865  0.00  0.00    +0.000 A 
ENDROOT
BRANCH   5   7
ATOM      7  N   UNL     1       1.556   8.267  19.875  0.00  0.00    +0.000 N 
ATOM      8  C   UNL     1       2.053   8.396  18.589  0.00  0.00    +0.000 C 
ATOM      9  O   UNL     1       1.937   9.370  17.851  0.00  0.00    +0.000 OA
ATOM     10  H   UNL     1       1.826   7.419  20.366  0.00  0.00    +0.000 HD
BRANCH   8  11
ATOM     11  C   UNL     1       2.838   7.224  18.089  0.00  0.00    +0.000 A 
ATOM     12  C   UNL     1       2.336   5.940  18.300  0.00  0.00    +0.000 A 
ATOM     13  C   UNL     1       3.040   4.829  17.813  0.00  0.00    +0.000 A 
ATOM     14  C   UNL     1       4.238   5.062  17.136  0.00  0.00    +0.000 A 
ATOM     15 CL   UNL     1       5.194   3.791  16.478  0.00  0.00    +0.000 Cl
ATOM     16  C   UNL     1       4.670   6.379  16.980  0.00  0.00    +0.000 A 
ATOM     17  N   UNL     1       4.001   7.471  17.433  0.00  0.00    +0.000 NA
BRANCH  13  18
ATOM     18  C   UNL     1       2.488   3.446  18.010  0.00  0.00    +0.000 C 
ATOM     19  F   UNL     1       2.337   2.762  16.839  0.00  0.00    +0.000 F 
ATOM     20  F   UNL     1       3.286   2.665  18.786  0.00  0.00    +0.000 F 
ATOM     21  F   UNL     1       1.257   3.442  18.589  0.00  0.00    +0.000 F 
ENDBRANCH  13  18
ENDBRANCH   8  11
ENDBRANCH   5   7
BRANCH   1  23
ATOM     22  C   UNL     1      -0.880  13.796  20.448  0.00  0.00    +0.000 C 
ATOM     23  C   UNL     1      -1.147  12.469  19.731  0.00  0.00    +0.000 C 
BRANCH  23  24
ATOM     24  S   UNL     1      -2.933  12.129  19.478  0.00  0.00    +0.000 S 
BRANCH  24  25
ATOM     25  C   UNL     1      -3.012  11.473  17.884  0.00  0.00    +0.000 A 
ATOM     26  N   UNL     1      -2.040  10.950  17.176  0.00  0.00    +0.000 NA
ATOM     27  N   UNL     1      -2.534  10.675  15.919  0.00  0.00    +0.000 NA
ATOM     28  C   UNL     1      -3.803  11.013  15.909  0.00  0.00    +0.000 A 
ATOM     29  N   UNL     1      -4.155  11.490  17.136  0.00  0.00    +0.000 N 
ATOM     30  C   UNL     1      -5.475  11.902  17.532  0.00  0.00    +0.000 C 
ENDBRANCH  24  25
ENDBRANCH  23  24
ENDBRANCH   1  23
TORSDOF 6
ENDMDL
MODEL 6
REMARK VINA RESULT:      -8.1      6.149     10.182
REMARK  Name = 
REMARK  8 active torsions:
REMARK  status: ('A' for Active; 'I' for Inactive)
REMARK    1  A    between atoms: C_1  and  C_2
REMARK    2  A    between atoms: C_2  and  S_3
REMARK    3  A    between atoms: C_2  and  C_10
REMARK    4  A    between atoms: S_3  and  C_4
REMARK    5  A    between atoms: N_8  and  C_9
REMARK    6  A    between atoms: C_14  and  N_15
REMARK    7  A    between atoms: C_16  and  C_18
REMARK    8  A    between atoms: C_20  and  C_21
REMARK                            x       y       z     vdW  Elec       q    Type
REMARK                         _______ _______ _______ _____ _____    ______ ____
ROOT
ATOM      1  C   UNL     1      -2.750  11.033  18.194  0.00  0.00    +0.000 A 
ATOM      2  C   UNL     1      -2.556  12.184  18.976  0.00  0.00    +0.000 A 
ATOM      3  C   UNL     1      -1.389  12.344  19.718  0.00  0.00    +0.000 A 
ATOM      4  C   UNL     1      -0.403  11.356  19.701  0.00  0.00    +0.000 A 
ATOM      5  C   UNL     1      -0.564  10.194  18.943  0.00  0.00    +0.000 A 
ATOM      6  C   UNL     1      -1.727  10.055  18.173  0.00  0.00    +0.000 A 
ENDROOT
BRANCH   5   7
ATOM      7  N   UNL     1       0.397   9.156  18.906  0.00  0.00    +0.000 N 
ATOM      8  C   UNL     1       1.617   9.193  18.249  0.00  0.00    +0.000 C 
ATOM      9  O   UNL     1       2.075  10.130  17.604  0.00  0.00    +0.000 OA
ATOM     10  H   UNL     1       0.225   8.322  19.463  0.00  0.00    +0.000 HD
BRANCH   8  11
ATOM     11  C   UNL     1       2.453   7.959  18.390  0.00  0.00    +0.000 A 
ATOM     12  C   UNL     1       3.314   7.609  17.350  0.00  0.00    +0.000 A 
ATOM     13  C   UNL     1       4.129   6.474  17.475  0.00  0.00    +0.000 A 
ATOM     14  C   UNL     1       4.033   5.728  18.649  0.00  0.00    +0.000 A 
ATOM     15 CL   UNL     1       4.983   4.322  18.935  0.00  0.00    +0.000 Cl
ATOM     16  C   UNL     1       3.136   6.146  19.633  0.00  0.00    +0.000 A 
ATOM     17  N   UNL     1       2.345   7.246  19.540  0.00  0.00    +0.000 NA
BRANCH  13  18
ATOM     18  C   UNL     1       5.081   6.111  16.370  0.00  0.00    +0.000 C 
ATOM     19  F   UNL     1       4.898   4.840  15.907  0.00  0.00    +0.000 F 
ATOM     20  F   UNL     1       4.957   6.915  15.281  0.00  0.00    +0.000 F 
ATOM     21  F   UNL     1       6.385   6.170  16.751  0.00  0.00    +0.000 F 
ENDBRANCH  13  18
ENDBRANCH   8  11
ENDBRANCH   5   7
BRANCH   1  23
ATOM     22  C   UNL     1      -3.750  11.061  15.874  0.00  0.00    +0.000 C 
ATOM     23  C   UNL     1      -4.029  10.895  17.371  0.00  0.00    +0.000 C 
BRANCH  23  24
ATOM     24  S   UNL     1      -5.259  12.096  18.015  0.00  0.00    +0.000 S 
BRANCH  24  25
ATOM     25  C   UNL     1      -6.214  11.169  19.114  0.00  0.00    +0.000 A 
ATOM     26  N   UNL     1      -6.549   9.904  19.025  0.00  0.00    +0.000 NA
ATOM     27  N   UNL     1      -7.419   9.624  20.056  0.00  0.00    +0.000 NA
ATOM     28  C   UNL     1      -7.565  10.723  20.760  0.00  0.00    +0.000 A 
ATOM     29  N   UNL     1      -6.799  11.713  20.222  0.00  0.00    +0.000 N 
ATOM     30  C   UNL     1      -6.646  13.042  20.751  0.00  0.00    +0.000 C 
ENDBRANCH  24  25
ENDBRANCH  23  24
ENDBRANCH   1  23
TORSDOF 6
ENDMDL
MODEL 7
REMARK VINA RESULT:      -8.1      4.464      7.912
REMARK  Name = 
REMARK  8 active torsions:
REMARK  status: ('A' for Active; 'I' for Inactive)
REMARK    1  A    between atoms: C_1  and  C_2
REMARK    2  A    between atoms: C_2  and  S_3
REMARK    3  A    between atoms: C_2  and  C_10
REMARK    4  A    between atoms: S_3  and  C_4
REMARK    5  A    between atoms: N_8  and  C_9
REMARK    6  A    between atoms: C_14  and  N_15
REMARK    7  A    between atoms: C_16  and  C_18
REMARK    8  A    between atoms: C_20  and  C_21
REMARK                            x       y       z     vdW  Elec       q    Type
REMARK                         _______ _______ _______ _____ _____    ______ ____
ROOT
ATOM      1  C   UNL     1       0.023  11.351  20.722  0.00  0.00    +0.000 A 
ATOM      2  C   UNL     1      -0.633  11.507  21.955  0.00  0.00    +0.000 A 
ATOM      3  C   UNL     1      -0.615  10.484  22.898  0.00  0.00    +0.000 A 
ATOM      4  C   UNL     1       0.045   9.284  22.623  0.00  0.00    +0.000 A 
ATOM      5  C   UNL     1       0.699   9.088  21.405  0.00  0.00    +0.000 A 
ATOM      6  C   UNL     1       0.705  10.136  20.474  0.00  0.00    +0.000 A 
ENDROOT
BRANCH   5   7
ATOM      7  N   UNL     1       1.367   7.885  21.071  0.00  0.00    +0.000 N 
ATOM      8  C   UNL     1       1.965   7.592  19.856  0.00  0.00    +0.000 C 
ATOM      9  O   UNL     1       2.030   8.324  18.874  0.00  0.00    +0.000 OA
ATOM     10  H   UNL     1       1.489   7.186  21.799  0.00  0.00    +0.000 HD
BRANCH   8  11
ATOM     11  C   UNL     1       2.621   6.248  19.777  0.00  0.00    +0.000 A 
ATOM     12  C   UNL     1       2.033   5.174  20.445  0.00  0.00    +0.000 A 
ATOM     13  C   UNL     1       2.614   3.900  20.359  0.00  0.00    +0.000 A 
ATOM     14  C   UNL     1       3.780   3.765  19.604  0.00  0.00    +0.000 A 
ATOM     15 CL   UNL     1       4.588   2.258  19.406  0.00  0.00    +0.000 Cl
ATOM     16  C   UNL     1       4.304   4.896  18.978  0.00  0.00    +0.000 A 
ATOM     17  N   UNL     1       3.754   6.138  19.038  0.00  0.00    +0.000 NA
BRANCH  13  18
ATOM     18  C   UNL     1       1.968   2.734  21.050  0.00  0.00    +0.000 C 
ATOM     19  F   UNL     1       2.780   2.150  21.979  0.00  0.00    +0.000 F 
ATOM     20  F   UNL     1       0.838   3.079  21.722  0.00  0.00    +0.000 F 
ATOM     21  F   UNL     1       1.623   1.733  20.196  0.00  0.00    +0.000 F 
ENDBRANCH  13  18
ENDBRANCH   8  11
ENDBRANCH   5   7
BRANCH   1  23
ATOM     22  C   UNL     1      -1.045  12.274  18.628  0.00  0.00    +0.000 C 
ATOM     23  C   UNL     1       0.008  12.500  19.716  0.00  0.00    +0.000 C 
BRANCH  23  24
ATOM     24  S   UNL     1       1.707  12.703  19.050  0.00  0.00    +0.000 S 
BRANCH  24  25
ATOM     25  C   UNL     1       2.518  13.638  20.252  0.00  0.00    +0.000 A 
ATOM     26  N   UNL     1       2.417  13.543  21.557  0.00  0.00    +0.000 NA
ATOM     27  N   UNL     1       3.146  14.571  22.113  0.00  0.00    +0.000 NA
ATOM     28  C   UNL     1       3.695  15.246  21.129  0.00  0.00    +0.000 A 
ATOM     29  N   UNL     1       3.353  14.674  19.940  0.00  0.00    +0.000 N 
ATOM     30  C   UNL     1       3.811  15.092  18.642  0.00  0.00    +0.000 C 
ENDBRANCH  24  25
ENDBRANCH  23  24
ENDBRANCH   1  23
TORSDOF 6
ENDMDL
MODEL 8
REMARK VINA RESULT:      -8.0      5.074      9.439
REMARK  Name = 
REMARK  8 active torsions:
REMARK  status: ('A' for Active; 'I' for Inactive)
REMARK    1  A    between atoms: C_1  and  C_2
REMARK    2  A    between atoms: C_2  and  S_3
REMARK    3  A    between atoms: C_2  and  C_10
REMARK    4  A    between atoms: S_3  and  C_4
REMARK    5  A    between atoms: N_8  and  C_9
REMARK    6  A    between atoms: C_14  and  N_15
REMARK    7  A    between atoms: C_16  and  C_18
REMARK    8  A    between atoms: C_20  and  C_21
REMARK                            x       y       z     vdW  Elec       q    Type
REMARK                         _______ _______ _______ _____ _____    ______ ____
ROOT
ATOM      1  C   UNL     1       0.153  10.934  20.905  0.00  0.00    +0.000 A 
ATOM      2  C   UNL     1       0.246  11.737  19.755  0.00  0.00    +0.000 A 
ATOM      3  C   UNL     1       0.860  11.252  18.603  0.00  0.00    +0.000 A 
ATOM      4  C   UNL     1       1.402   9.965  18.584  0.00  0.00    +0.000 A 
ATOM      5  C   UNL     1       1.338   9.142  19.710  0.00  0.00    +0.000 A 
ATOM      6  C   UNL     1       0.689   9.625  20.854  0.00  0.00    +0.000 A 
ENDROOT
BRANCH   5   7
ATOM      7  N   UNL     1       1.888   7.838  19.747  0.00  0.00    +0.000 N 
ATOM      8  C   UNL     1       2.773   7.297  18.829  0.00  0.00    +0.000 C 
ATOM      9  O   UNL     1       3.240   7.857  17.842  0.00  0.00    +0.000 OA
ATOM     10  H   UNL     1       1.678   7.251  20.550  0.00  0.00    +0.000 HD
BRANCH   8  11
ATOM     11  C   UNL     1       3.213   5.896  19.118  0.00  0.00    +0.000 A 
ATOM     12  C   UNL     1       2.276   4.983  19.599  0.00  0.00    +0.000 A 
ATOM     13  C   UNL     1       2.660   3.657  19.847  0.00  0.00    +0.000 A 
ATOM     14  C   UNL     1       3.988   3.307  19.607  0.00  0.00    +0.000 A 
ATOM     15 CL   UNL     1       4.589   1.714  19.858  0.00  0.00    +0.000 Cl
ATOM     16  C   UNL     1       4.861   4.288  19.135  0.00  0.00    +0.000 A 
ATOM     17  N   UNL     1       4.511   5.576  18.877  0.00  0.00    +0.000 NA
BRANCH  13  18
ATOM     18  C   UNL     1       1.645   2.662  20.335  0.00  0.00    +0.000 C 
ATOM     19  F   UNL     1       0.378   3.167  20.365  0.00  0.00    +0.000 F 
ATOM     20  F   UNL     1       1.575   1.553  19.552  0.00  0.00    +0.000 F 
ATOM     21  F   UNL     1       1.890   2.230  21.602  0.00  0.00    +0.000 F 
ENDBRANCH  13  18
ENDBRANCH   8  11
ENDBRANCH   5   7
BRANCH   1  23
ATOM     22  C   UNL     1      -0.897  10.364  23.130  0.00  0.00    +0.000 C 
ATOM     23  C   UNL     1      -0.548  11.484  22.145  0.00  0.00    +0.000 C 
BRANCH  23  24
ATOM     24  S   UNL     1      -2.009  12.451  21.598  0.00  0.00    +0.000 S 
BRANCH  24  25
ATOM     25  C   UNL     1      -2.872  12.766  23.059  0.00  0.00    +0.000 A 
ATOM     26  N   UNL     1      -3.898  12.113  23.549  0.00  0.00    +0.000 NA
ATOM     27  N   UNL     1      -4.338  12.793  24.664  0.00  0.00    +0.000 NA
ATOM     28  C   UNL     1      -3.546  13.826  24.836  0.00  0.00    +0.000 A 
ATOM     29  N   UNL     1      -2.588  13.831  23.867  0.00  0.00    +0.000 N 
ATOM     30  C   UNL     1      -1.504  14.769  23.759  0.00  0.00    +0.000 C 
ENDBRANCH  24  25
ENDBRANCH  23  24
ENDBRANCH   1  23
TORSDOF 6
ENDMDL
MODEL 9
REMARK VINA RESULT:      -7.9      5.572      9.879
REMARK  Name = 
REMARK  8 active torsions:
REMARK  status: ('A' for Active; 'I' for Inactive)
REMARK    1  A    between atoms: C_1  and  C_2
REMARK    2  A    between atoms: C_2  and  S_3
REMARK    3  A    between atoms: C_2  and  C_10
REMARK    4  A    between atoms: S_3  and  C_4
REMARK    5  A    between atoms: N_8  and  C_9
REMARK    6  A    between atoms: C_14  and  N_15
REMARK    7  A    between atoms: C_16  and  C_18
REMARK    8  A    between atoms: C_20  and  C_21
REMARK                            x       y       z     vdW  Elec       q    Type
REMARK                         _______ _______ _______ _____ _____    ______ ____
ROOT
ATOM      1  C   UNL     1      -1.546  11.874  19.816  0.00  0.00    +0.000 A 
ATOM      2  C   UNL     1      -0.833  13.080  19.921  0.00  0.00    +0.000 A 
ATOM      3  C   UNL     1       0.559  13.081  19.885  0.00  0.00    +0.000 A 
ATOM      4  C   UNL     1       1.261  11.881  19.756  0.00  0.00    +0.000 A 
ATOM      5  C   UNL     1       0.587  10.662  19.659  0.00  0.00    +0.000 A 
ATOM      6  C   UNL     1      -0.814  10.672  19.663  0.00  0.00    +0.000 A 
ENDROOT
BRANCH   5   7
ATOM      7  N   UNL     1       1.252   9.418  19.544  0.00  0.00    +0.000 N 
ATOM      8  C   UNL     1       1.887   8.931  18.413  0.00  0.00    +0.000 C 
ATOM      9  O   UNL     1       1.992   9.496  17.329  0.00  0.00    +0.000 OA
ATOM     10  H   UNL     1       1.342   8.843  20.378  0.00  0.00    +0.000 HD
BRANCH   8  11
ATOM     11  C   UNL     1       2.530   7.588  18.573  0.00  0.00    +0.000 A 
ATOM     12  C   UNL     1       3.367   7.120  17.561  0.00  0.00    +0.000 A 
ATOM     13  C   UNL     1       4.004   5.878  17.704  0.00  0.00    +0.000 A 
ATOM     14  C   UNL     1       3.760   5.151  18.868  0.00  0.00    +0.000 A 
ATOM     15 CL   UNL     1       4.485   3.621  19.176  0.00  0.00    +0.000 Cl
ATOM     16  C   UNL     1       2.900   5.692  19.825  0.00  0.00    +0.000 A 
ATOM     17  N   UNL     1       2.280   6.896  19.714  0.00  0.00    +0.000 NA
BRANCH  13  18
ATOM     18  C   UNL     1       4.931   5.384  16.630  0.00  0.00    +0.000 C 
ATOM     19  F   UNL     1       6.203   5.178  17.080  0.00  0.00    +0.000 F 
ATOM     20  F   UNL     1       4.538   4.195  16.100  0.00  0.00    +0.000 F 
ATOM     21  F   UNL     1       5.054   6.253  15.591  0.00  0.00    +0.000 F 
ENDBRANCH  13  18
ENDBRANCH   8  11
ENDBRANCH   5   7
BRANCH   1  23
ATOM     22  C   UNL     1      -3.650  11.760  18.422  0.00  0.00    +0.000 C 
ATOM     23  C   UNL     1      -3.073  11.905  19.834  0.00  0.00    +0.000 C 
BRANCH  23  24
ATOM     24  S   UNL     1      -3.607  13.444  20.680  0.00  0.00    +0.000 S 
BRANCH  24  25
ATOM     25  C   UNL     1      -4.130  12.906  22.234  0.00  0.00    +0.000 A 
ATOM     26  N   UNL     1      -5.311  12.450  22.577  0.00  0.00    +0.000 NA
ATOM     27  N   UNL     1      -5.312  12.262  23.942  0.00  0.00    +0.000 NA
ATOM     28  C   UNL     1      -4.118  12.584  24.387  0.00  0.00    +0.000 A 
ATOM     29  N   UNL     1      -3.331  12.964  23.342  0.00  0.00    +0.000 N 
ATOM     30  C   UNL     1      -1.942  13.328  23.422  0.00  0.00    +0.000 C 
ENDBRANCH  24  25
ENDBRANCH  23  24
ENDBRANCH   1  23
TORSDOF 6
ENDMDL
