MODEL 1
REMARK VINA RESULT:      -9.7      0.000      0.000
REMARK  Name = 
REMARK  10 active torsions:
REMARK  status: ('A' for Active; 'I' for Inactive)
REMARK    1  A    between atoms: C_1  and  O_2
REMARK    2  A    between atoms: O_2  and  C_3
REMARK    3  A    between atoms: N_10  and  C_11
REMARK    4  A    between atoms: C_11  and  C_12
REMARK    5  A    between atoms: C_16  and  C_17
REMARK    6  A    between atoms: N_23  and  C_24
REMARK    7  A    between atoms: C_28  and  C_29
REMARK    8  A    between atoms: C_29  and  C_30
REMARK    9  A    between atoms: C_30  and  C_31
REMARK   10  A    between atoms: N_35  and  C_36
REMARK                            x       y       z     vdW  Elec       q    Type
REMARK                         _______ _______ _______ _____ _____    ______ ____
ROOT
ATOM      1  C   UNL     1      -0.367  11.495  19.424  0.00  0.00    +0.000 A 
ATOM      2  C   UNL     1       0.489  10.786  18.607  0.00  0.00    +0.000 A 
ATOM      3  C   UNL     1       1.052   9.635  19.123  0.00  0.00    +0.000 A 
ATOM      4  C   UNL     1       0.810   9.164  20.415  0.00  0.00    +0.000 A 
ATOM      5  C   UNL     1      -0.008   9.897  21.268  0.00  0.00    +0.000 A 
ATOM      6  C   UNL     1      -0.599  11.068  20.751  0.00  0.00    +0.000 A 
ATOM      7  C   UNL     1       1.523   7.870  20.605  0.00  0.00    +0.000 C 
ATOM      8  N   UNL     1       2.228   7.689  19.328  0.00  0.00    +0.000 N 
ATOM      9  C   UNL     1       1.948   8.724  18.440  0.00  0.00    +0.000 C 
ATOM     10  O   UNL     1       2.282   8.901  17.281  0.00  0.00    +0.000 OA
ENDROOT
BRANCH   8  11
ATOM     11  C   UNL     1       2.936   6.519  18.994  0.00  0.00    +0.000 A 
ATOM     12  C   UNL     1       2.341   5.261  19.107  0.00  0.00    +0.000 A 
ATOM     13  C   UNL     1       3.062   4.086  18.863  0.00  0.00    +0.000 A 
ATOM     14  C   UNL     1       4.427   4.188  18.515  0.00  0.00    +0.000 A 
ATOM     15  C   UNL     1       5.072   5.444  18.396  0.00  0.00    +0.000 A 
ATOM     16  C   UNL     1       4.269   6.592  18.579  0.00  0.00    +0.000 A 
BRANCH  15  17
ATOM     17  C   UNL     1       6.643   5.568  18.177  0.00  0.00    +0.000 C 
ATOM     18  C   UNL     1       7.238   6.958  17.779  0.00  0.00    +0.000 C 
ATOM     19  O   UNL     1       8.291   6.812  18.775  0.00  0.00    +0.000 OA
ATOM     20  C   UNL     1       7.472   5.840  19.471  0.00  0.00    +0.000 C 
BRANCH  17  21
ATOM     21  C   UNL     1       7.184   4.405  17.340  0.00  0.00    +0.000 C 
BRANCH  21  22
ATOM     22  C   UNL     1       7.102   4.668  15.871  0.00  0.00    +0.000 A 
ATOM     23  N   UNL     1       7.915   5.445  15.179  0.00  0.00    +0.000 NA
ATOM     24  N   UNL     1       7.523   5.415  13.862  0.00  0.00    +0.000 NA
ATOM     25  C   UNL     1       6.481   4.623  13.775  0.00  0.00    +0.000 A 
ATOM     26  N   UNL     1       6.170   4.146  15.012  0.00  0.00    +0.000 N 
ATOM     27  C   UNL     1       5.073   3.268  15.313  0.00  0.00    +0.000 C 
ENDBRANCH  21  22
ENDBRANCH  17  21
ENDBRANCH  15  17
ENDBRANCH   8  11
BRANCH   5  28
ATOM     28  C   UNL     1      -0.238   9.524  22.706  0.00  0.00    +0.000 C 
ATOM     29  F   UNL     1      -0.961  10.442  23.400  0.00  0.00    +0.000 F 
ATOM     30  F   UNL     1      -0.912   8.347  22.830  0.00  0.00    +0.000 F 
ATOM     31  F   UNL     1       0.924   9.364  23.390  0.00  0.00    +0.000 F 
ENDBRANCH   5  28
BRANCH   1  32
ATOM     32  C   UNL     1      -0.922  12.805  18.909  0.00  0.00    +0.000 C 
BRANCH  32  40
ATOM     33  C   UNL     1      -1.246  17.526  19.103  0.00  0.00    +0.000 A 
ATOM     34  C   UNL     1      -0.618  18.390  18.193  0.00  0.00    +0.000 A 
ATOM     35  C   UNL     1       0.694  18.152  17.780  0.00  0.00    +0.000 A 
ATOM     36  C   UNL     1       1.351  17.028  18.248  0.00  0.00    +0.000 A 
ATOM     37  C   UNL     1       0.577  16.015  18.762  0.00  0.00    +0.000 A 
ATOM     38  C   UNL     1      -0.680  16.278  19.281  0.00  0.00    +0.000 A 
ATOM     39  C   UNL     1      -1.175  15.036  19.948  0.00  0.00    +0.000 C 
ATOM     40  N   UNL     1      -0.244  13.947  19.526  0.00  0.00    +0.000 NA
ATOM     41  C   UNL     1       0.726  14.542  18.589  0.00  0.00    +0.000 C 
BRANCH  33  43
ATOM     42  C   UNL     1      -3.436  18.361  18.945  0.00  0.00    +0.000 C 
ATOM     43  O   UNL     1      -2.393  17.833  19.772  0.00  0.00    +0.000 OA
ENDBRANCH  33  43
ENDBRANCH  32  40
ENDBRANCH   1  32
TORSDOF 8
ENDMDL
MODEL 2
REMARK VINA RESULT:      -9.4      1.611      2.529
REMARK  Name = 
REMARK  10 active torsions:
REMARK  status: ('A' for Active; 'I' for Inactive)
REMARK    1  A    between atoms: C_1  and  O_2
REMARK    2  A    between atoms: O_2  and  C_3
REMARK    3  A    between atoms: N_10  and  C_11
REMARK    4  A    between atoms: C_11  and  C_12
REMARK    5  A    between atoms: C_16  and  C_17
REMARK    6  A    between atoms: N_23  and  C_24
REMARK    7  A    between atoms: C_28  and  C_29
REMARK    8  A    between atoms: C_29  and  C_30
REMARK    9  A    between atoms: C_30  and  C_31
REMARK   10  A    between atoms: N_35  and  C_36
REMARK                            x       y       z     vdW  Elec       q    Type
REMARK                         _______ _______ _______ _____ _____    ______ ____
ROOT
ATOM      1  C   UNL     1      -0.048  11.402  19.222  0.00  0.00    +0.000 A 
ATOM      2  C   UNL     1       0.756  10.579  18.462  0.00  0.00    +0.000 A 
ATOM      3  C   UNL     1       1.227   9.424  19.055  0.00  0.00    +0.000 A 
ATOM      4  C   UNL     1       0.941   9.057  20.372  0.00  0.00    +0.000 A 
ATOM      5  C   UNL     1       0.177   9.904  21.167  0.00  0.00    +0.000 A 
ATOM      6  C   UNL     1      -0.320  11.080  20.570  0.00  0.00    +0.000 A 
ATOM      7  C   UNL     1       1.551   7.728  20.652  0.00  0.00    +0.000 C 
ATOM      8  N   UNL     1       2.249   7.412  19.397  0.00  0.00    +0.000 N 
ATOM      9  C   UNL     1       2.054   8.406  18.442  0.00  0.00    +0.000 C 
ATOM     10  O   UNL     1       2.407   8.482  17.278  0.00  0.00    +0.000 OA
ENDROOT
BRANCH   8  11
ATOM     11  C   UNL     1       2.867   6.172  19.145  0.00  0.00    +0.000 A 
ATOM     12  C   UNL     1       2.764   5.119  20.056  0.00  0.00    +0.000 A 
ATOM     13  C   UNL     1       3.447   3.913  19.860  0.00  0.00    +0.000 A 
ATOM     14  C   UNL     1       4.271   3.778  18.721  0.00  0.00    +0.000 A 
ATOM     15  C   UNL     1       4.409   4.824  17.775  0.00  0.00    +0.000 A 
ATOM     16  C   UNL     1       3.634   5.984  17.991  0.00  0.00    +0.000 A 
BRANCH  15  17
ATOM     17  C   UNL     1       5.464   4.752  16.586  0.00  0.00    +0.000 C 
ATOM     18  C   UNL     1       5.201   3.759  15.408  0.00  0.00    +0.000 C 
ATOM     19  O   UNL     1       5.522   4.797  14.438  0.00  0.00    +0.000 OA
ATOM     20  C   UNL     1       5.252   5.799  15.449  0.00  0.00    +0.000 C 
BRANCH  17  21
ATOM     21  C   UNL     1       6.901   4.711  17.116  0.00  0.00    +0.000 C 
BRANCH  21  22
ATOM     22  C   UNL     1       7.416   6.065  17.482  0.00  0.00    +0.000 A 
ATOM     23  N   UNL     1       7.529   7.097  16.666  0.00  0.00    +0.000 NA
ATOM     24  N   UNL     1       8.025   8.161  17.380  0.00  0.00    +0.000 NA
ATOM     25  C   UNL     1       8.204   7.761  18.616  0.00  0.00    +0.000 A 
ATOM     26  N   UNL     1       7.854   6.450  18.724  0.00  0.00    +0.000 N 
ATOM     27  C   UNL     1       7.939   5.662  19.923  0.00  0.00    +0.000 C 
ENDBRANCH  21  22
ENDBRANCH  17  21
ENDBRANCH  15  17
ENDBRANCH   8  11
BRANCH   5  28
ATOM     28  C   UNL     1      -0.090   9.642  22.623  0.00  0.00    +0.000 C 
ATOM     29  F   UNL     1      -0.898   8.572  22.847  0.00  0.00    +0.000 F 
ATOM     30  F   UNL     1       1.055   9.398  23.320  0.00  0.00    +0.000 F 
ATOM     31  F   UNL     1      -0.684  10.698  23.238  0.00  0.00    +0.000 F 
ENDBRANCH   5  28
BRANCH   1  32
ATOM     32  C   UNL     1      -0.498  12.715  18.619  0.00  0.00    +0.000 C 
BRANCH  32  40
ATOM     33  C   UNL     1      -2.668  16.480  20.501  0.00  0.00    +0.000 A 
ATOM     34  C   UNL     1      -2.715  17.741  19.888  0.00  0.00    +0.000 A 
ATOM     35  C   UNL     1      -1.582  18.272  19.270  0.00  0.00    +0.000 A 
ATOM     36  C   UNL     1      -0.423  17.517  19.232  0.00  0.00    +0.000 A 
ATOM     37  C   UNL     1      -0.546  16.164  19.441  0.00  0.00    +0.000 A 
ATOM     38  C   UNL     1      -1.614  15.654  20.161  0.00  0.00    +0.000 A 
ATOM     39  C   UNL     1      -1.360  14.201  20.400  0.00  0.00    +0.000 C 
ATOM     40  N   UNL     1      -0.212  13.836  19.516  0.00  0.00    +0.000 NA
ATOM     41  C   UNL     1       0.142  15.041  18.744  0.00  0.00    +0.000 C 
BRANCH  33  43
ATOM     42  C   UNL     1      -3.380  16.352  22.736  0.00  0.00    +0.000 C 
ATOM     43  O   UNL     1      -3.617  16.021  21.363  0.00  0.00    +0.000 OA
ENDBRANCH  33  43
ENDBRANCH  32  40
ENDBRANCH   1  32
TORSDOF 8
ENDMDL
MODEL 3
REMARK VINA RESULT:      -9.3      3.038     10.834
REMARK  Name = 
REMARK  10 active torsions:
REMARK  status: ('A' for Active; 'I' for Inactive)
REMARK    1  A    between atoms: C_1  and  O_2
REMARK    2  A    between atoms: O_2  and  C_3
REMARK    3  A    between atoms: N_10  and  C_11
REMARK    4  A    between atoms: C_11  and  C_12
REMARK    5  A    between atoms: C_16  and  C_17
REMARK    6  A    between atoms: N_23  and  C_24
REMARK    7  A    between atoms: C_28  and  C_29
REMARK    8  A    between atoms: C_29  and  C_30
REMARK    9  A    between atoms: C_30  and  C_31
REMARK   10  A    between atoms: N_35  and  C_36
REMARK                            x       y       z     vdW  Elec       q    Type
REMARK                         _______ _______ _______ _____ _____    ______ ____
ROOT
ATOM      1  C   UNL     1       4.424   4.509  18.160  0.00  0.00    +0.000 A 
ATOM      2  C   UNL     1       3.962   5.798  17.996  0.00  0.00    +0.000 A 
ATOM      3  C   UNL     1       3.041   6.266  18.913  0.00  0.00    +0.000 A 
ATOM      4  C   UNL     1       2.553   5.505  19.978  0.00  0.00    +0.000 A 
ATOM      5  C   UNL     1       2.968   4.186  20.124  0.00  0.00    +0.000 A 
ATOM      6  C   UNL     1       3.917   3.701  19.202  0.00  0.00    +0.000 A 
ATOM      7  C   UNL     1       1.636   6.345  20.798  0.00  0.00    +0.000 C 
ATOM      8  N   UNL     1       1.611   7.620  20.066  0.00  0.00    +0.000 N 
ATOM      9  C   UNL     1       2.447   7.587  18.954  0.00  0.00    +0.000 C 
ATOM     10  O   UNL     1       2.744   8.449  18.146  0.00  0.00    +0.000 OA
ENDROOT
BRANCH   8  11
ATOM     11  C   UNL     1       0.969   8.778  20.549  0.00  0.00    +0.000 A 
ATOM     12  C   UNL     1       0.551   8.867  21.878  0.00  0.00    +0.000 A 
ATOM     13  C   UNL     1      -0.166   9.974  22.346  0.00  0.00    +0.000 A 
ATOM     14  C   UNL     1      -0.484  11.009  21.439  0.00  0.00    +0.000 A 
ATOM     15  C   UNL     1      -0.084  10.956  20.081  0.00  0.00    +0.000 A 
ATOM     16  C   UNL     1       0.702   9.849  19.692  0.00  0.00    +0.000 A 
BRANCH  15  17
ATOM     17  C   UNL     1      -0.581  12.025  19.012  0.00  0.00    +0.000 C 
ATOM     18  C   UNL     1      -1.288  13.323  19.522  0.00  0.00    +0.000 C 
ATOM     19  O   UNL     1      -0.474  14.136  18.631  0.00  0.00    +0.000 OA
ATOM     20  C   UNL     1       0.494  13.061  18.563  0.00  0.00    +0.000 C 
BRANCH  17  21
ATOM     21  C   UNL     1      -1.304  11.350  17.842  0.00  0.00    +0.000 C 
BRANCH  21  22
ATOM     22  C   UNL     1      -2.789  11.504  17.919  0.00  0.00    +0.000 A 
ATOM     23  N   UNL     1      -3.480  11.804  19.003  0.00  0.00    +0.000 NA
ATOM     24  N   UNL     1      -4.810  11.871  18.663  0.00  0.00    +0.000 NA
ATOM     25  C   UNL     1      -4.905  11.612  17.381  0.00  0.00    +0.000 A 
ATOM     26  N   UNL     1      -3.667  11.358  16.876  0.00  0.00    +0.000 N 
ATOM     27  C   UNL     1      -3.381  11.012  15.511  0.00  0.00    +0.000 C 
ENDBRANCH  21  22
ENDBRANCH  17  21
ENDBRANCH  15  17
ENDBRANCH   8  11
BRANCH   5  28
ATOM     28  C   UNL     1       2.416   3.264  21.174  0.00  0.00    +0.000 C 
ATOM     29  F   UNL     1       1.184   2.773  20.876  0.00  0.00    +0.000 F 
ATOM     30  F   UNL     1       3.212   2.177  21.374  0.00  0.00    +0.000 F 
ATOM     31  F   UNL     1       2.298   3.870  22.383  0.00  0.00    +0.000 F 
ENDBRANCH   5  28
BRANCH   1  32
ATOM     32  C   UNL     1       5.363   3.950  17.113  0.00  0.00    +0.000 C 
BRANCH  32  40
ATOM     33  C   UNL     1       5.591   3.505  12.404  0.00  0.00    +0.000 A 
ATOM     34  C   UNL     1       6.793   3.465  11.681  0.00  0.00    +0.000 A 
ATOM     35  C   UNL     1       7.839   4.334  11.994  0.00  0.00    +0.000 A 
ATOM     36  C   UNL     1       7.689   5.208  13.057  0.00  0.00    +0.000 A 
ATOM     37  C   UNL     1       6.712   4.915  13.979  0.00  0.00    +0.000 A 
ATOM     38  C   UNL     1       5.613   4.149  13.626  0.00  0.00    +0.000 A 
ATOM     39  C   UNL     1       4.639   4.186  14.759  0.00  0.00    +0.000 C 
ATOM     40  N   UNL     1       5.376   4.787  15.911  0.00  0.00    +0.000 NA
ATOM     41  C   UNL     1       6.759   5.031  15.464  0.00  0.00    +0.000 C 
BRANCH  33  43
ATOM     42  C   UNL     1       3.803   3.560  10.882  0.00  0.00    +0.000 C 
ATOM     43  O   UNL     1       4.437   2.911  11.989  0.00  0.00    +0.000 OA
ENDBRANCH  33  43
ENDBRANCH  32  40
ENDBRANCH   1  32
TORSDOF 8
ENDMDL
MODEL 4
REMARK VINA RESULT:      -9.2      2.877     10.884
REMARK  Name = 
REMARK  10 active torsions:
REMARK  status: ('A' for Active; 'I' for Inactive)
REMARK    1  A    between atoms: C_1  and  O_2
REMARK    2  A    between atoms: O_2  and  C_3
REMARK    3  A    between atoms: N_10  and  C_11
REMARK    4  A    between atoms: C_11  and  C_12
REMARK    5  A    between atoms: C_16  and  C_17
REMARK    6  A    between atoms: N_23  and  C_24
REMARK    7  A    between atoms: C_28  and  C_29
REMARK    8  A    between atoms: C_29  and  C_30
REMARK    9  A    between atoms: C_30  and  C_31
REMARK   10  A    between atoms: N_35  and  C_36
REMARK                            x       y       z     vdW  Elec       q    Type
REMARK                         _______ _______ _______ _____ _____    ______ ____
ROOT
ATOM      1  C   UNL     1       4.702   4.538  18.214  0.00  0.00    +0.000 A 
ATOM      2  C   UNL     1       4.217   5.822  18.086  0.00  0.00    +0.000 A 
ATOM      3  C   UNL     1       3.240   6.226  18.976  0.00  0.00    +0.000 A 
ATOM      4  C   UNL     1       2.720   5.405  19.979  0.00  0.00    +0.000 A 
ATOM      5  C   UNL     1       3.160   4.090  20.085  0.00  0.00    +0.000 A 
ATOM      6  C   UNL     1       4.165   3.670  19.191  0.00  0.00    +0.000 A 
ATOM      7  C   UNL     1       1.743   6.185  20.789  0.00  0.00    +0.000 C 
ATOM      8  N   UNL     1       1.722   7.492  20.116  0.00  0.00    +0.000 N 
ATOM      9  C   UNL     1       2.613   7.529  19.047  0.00  0.00    +0.000 C 
ATOM     10  O   UNL     1       2.928   8.434  18.295  0.00  0.00    +0.000 OA
ENDROOT
BRANCH   8  11
ATOM     11  C   UNL     1       1.029   8.610  20.619  0.00  0.00    +0.000 A 
ATOM     12  C   UNL     1       0.800   8.759  21.988  0.00  0.00    +0.000 A 
ATOM     13  C   UNL     1       0.036   9.819  22.490  0.00  0.00    +0.000 A 
ATOM     14  C   UNL     1      -0.526  10.742  21.580  0.00  0.00    +0.000 A 
ATOM     15  C   UNL     1      -0.323  10.624  20.182  0.00  0.00    +0.000 A 
ATOM     16  C   UNL     1       0.520   9.578  19.747  0.00  0.00    +0.000 A 
BRANCH  15  17
ATOM     17  C   UNL     1      -1.089  11.548  19.138  0.00  0.00    +0.000 C 
ATOM     18  C   UNL     1      -2.121  10.888  18.166  0.00  0.00    +0.000 C 
ATOM     19  O   UNL     1      -3.086  11.941  18.450  0.00  0.00    +0.000 OA
ATOM     20  C   UNL     1      -2.382  12.230  19.682  0.00  0.00    +0.000 C 
BRANCH  17  21
ATOM     21  C   UNL     1      -0.130  12.523  18.446  0.00  0.00    +0.000 C 
BRANCH  21  22
ATOM     22  C   UNL     1       0.066  13.784  19.225  0.00  0.00    +0.000 A 
ATOM     23  N   UNL     1      -0.685  14.866  19.146  0.00  0.00    +0.000 NA
ATOM     24  N   UNL     1      -0.193  15.799  20.026  0.00  0.00    +0.000 NA
ATOM     25  C   UNL     1       0.846  15.270  20.626  0.00  0.00    +0.000 A 
ATOM     26  N   UNL     1       1.058  14.014  20.144  0.00  0.00    +0.000 N 
ATOM     27  C   UNL     1       2.122  13.137  20.547  0.00  0.00    +0.000 C 
ENDBRANCH  21  22
ENDBRANCH  17  21
ENDBRANCH  15  17
ENDBRANCH   8  11
BRANCH   5  28
ATOM     28  C   UNL     1       2.579   3.107  21.063  0.00  0.00    +0.000 C 
ATOM     29  F   UNL     1       2.157   3.675  22.223  0.00  0.00    +0.000 F 
ATOM     30  F   UNL     1       1.500   2.452  20.553  0.00  0.00    +0.000 F 
ATOM     31  F   UNL     1       3.469   2.144  21.416  0.00  0.00    +0.000 F 
ENDBRANCH   5  28
BRANCH   1  32
ATOM     32  C   UNL     1       5.706   4.050  17.192  0.00  0.00    +0.000 C 
BRANCH  32  40
ATOM     33  C   UNL     1       5.481   3.556  12.487  0.00  0.00    +0.000 A 
ATOM     34  C   UNL     1       6.606   3.420  11.661  0.00  0.00    +0.000 A 
ATOM     35  C   UNL     1       7.738   4.210  11.869  0.00  0.00    +0.000 A 
ATOM     36  C   UNL     1       7.749   5.100  12.929  0.00  0.00    +0.000 A 
ATOM     37  C   UNL     1       6.839   4.889  13.938  0.00  0.00    +0.000 A 
ATOM     38  C   UNL     1       5.659   4.205  13.694  0.00  0.00    +0.000 A 
ATOM     39  C   UNL     1       4.795   4.323  14.907  0.00  0.00    +0.000 C 
ATOM     40  N   UNL     1       5.674   4.875  15.982  0.00  0.00    +0.000 NA
ATOM     41  C   UNL     1       7.026   5.010  15.411  0.00  0.00    +0.000 C 
BRANCH  33  43
ATOM     42  C   UNL     1       3.790   3.368  10.868  0.00  0.00    +0.000 C 
ATOM     43  O   UNL     1       4.253   3.048  12.184  0.00  0.00    +0.000 OA
ENDBRANCH  33  43
ENDBRANCH  32  40
ENDBRANCH   1  32
TORSDOF 8
ENDMDL
MODEL 5
REMARK VINA RESULT:      -9.1      2.031      3.135
REMARK  Name = 
REMARK  10 active torsions:
REMARK  status: ('A' for Active; 'I' for Inactive)
REMARK    1  A    between atoms: C_1  and  O_2
REMARK    2  A    between atoms: O_2  and  C_3
REMARK    3  A    between atoms: N_10  and  C_11
REMARK    4  A    between atoms: C_11  and  C_12
REMARK    5  A    between atoms: C_16  and  C_17
REMARK    6  A    between atoms: N_23  and  C_24
REMARK    7  A    between atoms: C_28  and  C_29
REMARK    8  A    between atoms: C_29  and  C_30
REMARK    9  A    between atoms: C_30  and  C_31
REMARK   10  A    between atoms: N_35  and  C_36
REMARK                            x       y       z     vdW  Elec       q    Type
REMARK                         _______ _______ _______ _____ _____    ______ ____
ROOT
ATOM      1  C   UNL     1      -0.084  11.396  19.317  0.00  0.00    +0.000 A 
ATOM      2  C   UNL     1       0.725  10.586  18.548  0.00  0.00    +0.000 A 
ATOM      3  C   UNL     1       1.198   9.424  19.127  0.00  0.00    +0.000 A 
ATOM      4  C   UNL     1       0.909   9.038  20.438  0.00  0.00    +0.000 A 
ATOM      5  C   UNL     1       0.139   9.872  21.243  0.00  0.00    +0.000 A 
ATOM      6  C   UNL     1      -0.359  11.054  20.660  0.00  0.00    +0.000 A 
ATOM      7  C   UNL     1       1.522   7.707  20.702  0.00  0.00    +0.000 C 
ATOM      8  N   UNL     1       2.225   7.411  19.445  0.00  0.00    +0.000 N 
ATOM      9  C   UNL     1       2.031   8.416  18.503  0.00  0.00    +0.000 C 
ATOM     10  O   UNL     1       2.387   8.510  17.341  0.00  0.00    +0.000 OA
ENDROOT
BRANCH   8  11
ATOM     11  C   UNL     1       2.848   6.176  19.179  0.00  0.00    +0.000 A 
ATOM     12  C   UNL     1       2.762   5.117  20.084  0.00  0.00    +0.000 A 
ATOM     13  C   UNL     1       3.451   3.916  19.873  0.00  0.00    +0.000 A 
ATOM     14  C   UNL     1       4.262   3.793  18.723  0.00  0.00    +0.000 A 
ATOM     15  C   UNL     1       4.382   4.846  17.782  0.00  0.00    +0.000 A 
ATOM     16  C   UNL     1       3.602   6.000  18.015  0.00  0.00    +0.000 A 
BRANCH  15  17
ATOM     17  C   UNL     1       5.423   4.788  16.580  0.00  0.00    +0.000 C 
ATOM     18  C   UNL     1       5.132   3.829  15.380  0.00  0.00    +0.000 C 
ATOM     19  O   UNL     1       5.460   4.886  14.434  0.00  0.00    +0.000 OA
ATOM     20  C   UNL     1       5.216   5.866  15.472  0.00  0.00    +0.000 C 
BRANCH  17  21
ATOM     21  C   UNL     1       6.865   4.711  17.093  0.00  0.00    +0.000 C 
BRANCH  21  22
ATOM     22  C   UNL     1       7.413   6.050  17.467  0.00  0.00    +0.000 A 
ATOM     23  N   UNL     1       7.548   7.084  16.657  0.00  0.00    +0.000 NA
ATOM     24  N   UNL     1       8.071   8.131  17.377  0.00  0.00    +0.000 NA
ATOM     25  C   UNL     1       8.243   7.719  18.610  0.00  0.00    +0.000 A 
ATOM     26  N   UNL     1       7.862   6.416  18.710  0.00  0.00    +0.000 N 
ATOM     27  C   UNL     1       7.932   5.619  19.904  0.00  0.00    +0.000 C 
ENDBRANCH  21  22
ENDBRANCH  17  21
ENDBRANCH  15  17
ENDBRANCH   8  11
BRANCH   5  28
ATOM     28  C   UNL     1      -0.131   9.589  22.694  0.00  0.00    +0.000 C 
ATOM     29  F   UNL     1      -0.915   8.499  22.902  0.00  0.00    +0.000 F 
ATOM     30  F   UNL     1       1.014   9.365  23.397  0.00  0.00    +0.000 F 
ATOM     31  F   UNL     1      -0.754  10.625  23.314  0.00  0.00    +0.000 F 
ENDBRANCH   5  28
BRANCH   1  32
ATOM     32  C   UNL     1      -0.536  12.715  18.730  0.00  0.00    +0.000 C 
BRANCH  32  40
ATOM     33  C   UNL     1       3.137  15.656  18.195  0.00  0.00    +0.000 A 
ATOM     34  C   UNL     1       4.427  15.391  18.679  0.00  0.00    +0.000 A 
ATOM     35  C   UNL     1       4.609  14.843  19.950  0.00  0.00    +0.000 A 
ATOM     36  C   UNL     1       3.495  14.525  20.708  0.00  0.00    +0.000 A 
ATOM     37  C   UNL     1       2.299  14.391  20.045  0.00  0.00    +0.000 A 
ATOM     38  C   UNL     1       2.083  15.037  18.838  0.00  0.00    +0.000 A 
ATOM     39  C   UNL     1       0.641  14.877  18.478  0.00  0.00    +0.000 C 
ATOM     40  N   UNL     1       0.100  13.844  19.413  0.00  0.00    +0.000 NA
ATOM     41  C   UNL     1       1.223  13.380  20.247  0.00  0.00    +0.000 C 
BRANCH  33  43
ATOM     42  C   UNL     1       2.224  17.677  17.420  0.00  0.00    +0.000 C 
ATOM     43  O   UNL     1       2.881  16.443  17.112  0.00  0.00    +0.000 OA
ENDBRANCH  33  43
ENDBRANCH  32  40
ENDBRANCH   1  32
TORSDOF 8
ENDMDL
MODEL 6
REMARK VINA RESULT:      -9.1      2.392      3.394
REMARK  Name = 
REMARK  10 active torsions:
REMARK  status: ('A' for Active; 'I' for Inactive)
REMARK    1  A    between atoms: C_1  and  O_2
REMARK    2  A    between atoms: O_2  and  C_3
REMARK    3  A    between atoms: N_10  and  C_11
REMARK    4  A    between atoms: C_11  and  C_12
REMARK    5  A    between atoms: C_16  and  C_17
REMARK    6  A    between atoms: N_23  and  C_24
REMARK    7  A    between atoms: C_28  and  C_29
REMARK    8  A    between atoms: C_29  and  C_30
REMARK    9  A    between atoms: C_30  and  C_31
REMARK   10  A    between atoms: N_35  and  C_36
REMARK                            x       y       z     vdW  Elec       q    Type
REMARK                         _______ _______ _______ _____ _____    ______ ____
ROOT
ATOM      1  C   UNL     1       0.186  11.665  19.502  0.00  0.00    +0.000 A 
ATOM      2  C   UNL     1       0.918  10.875  18.640  0.00  0.00    +0.000 A 
ATOM      3  C   UNL     1       1.277   9.616  19.081  0.00  0.00    +0.000 A 
ATOM      4  C   UNL     1       0.949   9.113  20.342  0.00  0.00    +0.000 A 
ATOM      5  C   UNL     1       0.258   9.918  21.241  0.00  0.00    +0.000 A 
ATOM      6  C   UNL     1      -0.125  11.201  20.799  0.00  0.00    +0.000 A 
ATOM      7  C   UNL     1       1.434   7.709  20.449  0.00  0.00    +0.000 C 
ATOM      8  N   UNL     1       2.110   7.493  19.161  0.00  0.00    +0.000 N 
ATOM      9  C   UNL     1       2.014   8.612  18.341  0.00  0.00    +0.000 C 
ATOM     10  O   UNL     1       2.382   8.803  17.195  0.00  0.00    +0.000 OA
ENDROOT
BRANCH   8  11
ATOM     11  C   UNL     1       2.615   6.243  18.753  0.00  0.00    +0.000 A 
ATOM     12  C   UNL     1       2.286   5.074  19.441  0.00  0.00    +0.000 A 
ATOM     13  C   UNL     1       2.852   3.840  19.099  0.00  0.00    +0.000 A 
ATOM     14  C   UNL     1       3.791   3.793  18.045  0.00  0.00    +0.000 A 
ATOM     15  C   UNL     1       4.158   4.957  17.324  0.00  0.00    +0.000 A 
ATOM     16  C   UNL     1       3.493   6.155  17.668  0.00  0.00    +0.000 A 
BRANCH  15  17
ATOM     17  C   UNL     1       5.337   4.951  16.255  0.00  0.00    +0.000 C 
ATOM     18  C   UNL     1       6.074   3.605  15.958  0.00  0.00    +0.000 C 
ATOM     19  O   UNL     1       5.979   3.849  14.526  0.00  0.00    +0.000 OA
ATOM     20  C   UNL     1       4.886   4.767  14.774  0.00  0.00    +0.000 C 
BRANCH  17  21
ATOM     21  C   UNL     1       6.283   6.138  16.461  0.00  0.00    +0.000 C 
BRANCH  21  22
ATOM     22  C   UNL     1       7.072   6.030  17.726  0.00  0.00    +0.000 A 
ATOM     23  N   UNL     1       7.155   4.962  18.497  0.00  0.00    +0.000 NA
ATOM     24  N   UNL     1       7.985   5.253  19.552  0.00  0.00    +0.000 NA
ATOM     25  C   UNL     1       8.394   6.491  19.405  0.00  0.00    +0.000 A 
ATOM     26  N   UNL     1       7.834   7.024  18.285  0.00  0.00    +0.000 N 
ATOM     27  C   UNL     1       8.031   8.368  17.816  0.00  0.00    +0.000 C 
ENDBRANCH  21  22
ENDBRANCH  17  21
ENDBRANCH  15  17
ENDBRANCH   8  11
BRANCH   5  28
ATOM     28  C   UNL     1      -0.043   9.500  22.653  0.00  0.00    +0.000 C 
ATOM     29  F   UNL     1      -0.680  10.454  23.382  0.00  0.00    +0.000 F 
ATOM     30  F   UNL     1      -0.842   8.397  22.703  0.00  0.00    +0.000 F 
ATOM     31  F   UNL     1       1.079   9.181  23.348  0.00  0.00    +0.000 F 
ENDBRANCH   5  28
BRANCH   1  32
ATOM     32  C   UNL     1      -0.138  13.079  19.071  0.00  0.00    +0.000 C 
BRANCH  32  40
ATOM     33  C   UNL     1       2.752  15.565  21.881  0.00  0.00    +0.000 A 
ATOM     34  C   UNL     1       2.563  16.919  22.194  0.00  0.00    +0.000 A 
ATOM     35  C   UNL     1       2.179  17.828  21.207  0.00  0.00    +0.000 A 
ATOM     36  C   UNL     1       1.946  17.365  19.924  0.00  0.00    +0.000 A 
ATOM     37  C   UNL     1       1.718  16.018  19.772  0.00  0.00    +0.000 A 
ATOM     38  C   UNL     1       2.207  15.109  20.696  0.00  0.00    +0.000 A 
ATOM     39  C   UNL     1       1.988  13.734  20.155  0.00  0.00    +0.000 C 
ATOM     40  N   UNL     1       1.074  13.897  18.984  0.00  0.00    +0.000 NA
ATOM     41  C   UNL     1       0.729  15.327  18.898  0.00  0.00    +0.000 C 
BRANCH  33  43
ATOM     42  C   UNL     1       4.774  14.990  22.931  0.00  0.00    +0.000 C 
ATOM     43  O   UNL     1       3.395  14.682  22.696  0.00  0.00    +0.000 OA
ENDBRANCH  33  43
ENDBRANCH  32  40
ENDBRANCH   1  32
TORSDOF 8
ENDMDL
MODEL 7
REMARK VINA RESULT:      -9.0      2.867     10.943
REMARK  Name = 
REMARK  10 active torsions:
REMARK  status: ('A' for Active; 'I' for Inactive)
REMARK    1  A    between atoms: C_1  and  O_2
REMARK    2  A    between atoms: O_2  and  C_3
REMARK    3  A    between atoms: N_10  and  C_11
REMARK    4  A    between atoms: C_11  and  C_12
REMARK    5  A    between atoms: C_16  and  C_17
REMARK    6  A    between atoms: N_23  and  C_24
REMARK    7  A    between atoms: C_28  and  C_29
REMARK    8  A    between atoms: C_29  and  C_30
REMARK    9  A    between atoms: C_30  and  C_31
REMARK   10  A    between atoms: N_35  and  C_36
REMARK                            x       y       z     vdW  Elec       q    Type
REMARK                         _______ _______ _______ _____ _____    ______ ____
ROOT
ATOM      1  C   UNL     1       4.620   4.335  18.124  0.00  0.00    +0.000 A 
ATOM      2  C   UNL     1       4.135   5.622  18.022  0.00  0.00    +0.000 A 
ATOM      3  C   UNL     1       3.199   6.025  18.956  0.00  0.00    +0.000 A 
ATOM      4  C   UNL     1       2.720   5.202  19.977  0.00  0.00    +0.000 A 
ATOM      5  C   UNL     1       3.159   3.885  20.058  0.00  0.00    +0.000 A 
ATOM      6  C   UNL     1       4.123   3.465  19.119  0.00  0.00    +0.000 A 
ATOM      7  C   UNL     1       1.782   5.981  20.832  0.00  0.00    +0.000 C 
ATOM      8  N   UNL     1       1.737   7.291  20.167  0.00  0.00    +0.000 N 
ATOM      9  C   UNL     1       2.580   7.330  19.060  0.00  0.00    +0.000 C 
ATOM     10  O   UNL     1       2.866   8.238  18.299  0.00  0.00    +0.000 OA
ENDROOT
BRANCH   8  11
ATOM     11  C   UNL     1       1.071   8.410  20.704  0.00  0.00    +0.000 A 
ATOM     12  C   UNL     1       0.709   8.454  22.051  0.00  0.00    +0.000 A 
ATOM     13  C   UNL     1      -0.032   9.520  22.576  0.00  0.00    +0.000 A 
ATOM     14  C   UNL     1      -0.432  10.560  21.707  0.00  0.00    +0.000 A 
ATOM     15  C   UNL     1      -0.091  10.551  20.331  0.00  0.00    +0.000 A 
ATOM     16  C   UNL     1       0.721   9.487  19.883  0.00  0.00    +0.000 A 
BRANCH  15  17
ATOM     17  C   UNL     1      -0.680  11.620  19.310  0.00  0.00    +0.000 C 
ATOM     18  C   UNL     1      -1.517  11.113  18.091  0.00  0.00    +0.000 C 
ATOM     19  O   UNL     1      -2.534  12.122  18.347  0.00  0.00    +0.000 OA
ATOM     20  C   UNL     1      -2.059  12.228  19.711  0.00  0.00    +0.000 C 
BRANCH  17  21
ATOM     21  C   UNL     1       0.367  12.676  18.941  0.00  0.00    +0.000 C 
BRANCH  21  22
ATOM     22  C   UNL     1       0.757  13.528  20.105  0.00  0.00    +0.000 A 
ATOM     23  N   UNL     1       1.605  13.192  21.060  0.00  0.00    +0.000 NA
ATOM     24  N   UNL     1       1.710  14.246  21.935  0.00  0.00    +0.000 NA
ATOM     25  C   UNL     1       0.928  15.204  21.499  0.00  0.00    +0.000 A 
ATOM     26  N   UNL     1       0.296  14.794  20.365  0.00  0.00    +0.000 N 
ATOM     27  C   UNL     1      -0.657  15.567  19.617  0.00  0.00    +0.000 C 
ENDBRANCH  21  22
ENDBRANCH  17  21
ENDBRANCH  15  17
ENDBRANCH   8  11
BRANCH   5  28
ATOM     28  C   UNL     1       2.618   2.900  21.056  0.00  0.00    +0.000 C 
ATOM     29  F   UNL     1       1.670   2.070  20.546  0.00  0.00    +0.000 F 
ATOM     30  F   UNL     1       3.591   2.090  21.559  0.00  0.00    +0.000 F 
ATOM     31  F   UNL     1       2.048   3.510  22.127  0.00  0.00    +0.000 F 
ENDBRANCH   5  28
BRANCH   1  32
ATOM     32  C   UNL     1       5.576   3.848  17.056  0.00  0.00    +0.000 C 
BRANCH  32  40
ATOM     33  C   UNL     1       5.818   3.398  12.348  0.00  0.00    +0.000 A 
ATOM     34  C   UNL     1       7.011   3.485  11.616  0.00  0.00    +0.000 A 
ATOM     35  C   UNL     1       7.957   4.467  11.916  0.00  0.00    +0.000 A 
ATOM     36  C   UNL     1       7.719   5.326  12.974  0.00  0.00    +0.000 A 
ATOM     37  C   UNL     1       6.787   4.934  13.906  0.00  0.00    +0.000 A 
ATOM     38  C   UNL     1       5.777   4.049  13.566  0.00  0.00    +0.000 A 
ATOM     39  C   UNL     1       4.813   3.986  14.707  0.00  0.00    +0.000 C 
ATOM     40  N   UNL     1       5.488   4.673  15.849  0.00  0.00    +0.000 NA
ATOM     41  C   UNL     1       6.833   5.064  15.389  0.00  0.00    +0.000 C 
BRANCH  33  43
ATOM     42  C   UNL     1       3.820   3.399  11.113  0.00  0.00    +0.000 C 
ATOM     43  O   UNL     1       4.734   2.677  11.947  0.00  0.00    +0.000 OA
ENDBRANCH  33  43
ENDBRANCH  32  40
ENDBRANCH   1  32
TORSDOF 8
ENDMDL
MODEL 8
REMARK VINA RESULT:      -8.9      1.681      2.500
REMARK  Name = 
REMARK  10 active torsions:
REMARK  status: ('A' for Active; 'I' for Inactive)
REMARK    1  A    between atoms: C_1  and  O_2
REMARK    2  A    between atoms: O_2  and  C_3
REMARK    3  A    between atoms: N_10  and  C_11
REMARK    4  A    between atoms: C_11  and  C_12
REMARK    5  A    between atoms: C_16  and  C_17
REMARK    6  A    between atoms: N_23  and  C_24
REMARK    7  A    between atoms: C_28  and  C_29
REMARK    8  A    between atoms: C_29  and  C_30
REMARK    9  A    between atoms: C_30  and  C_31
REMARK   10  A    between atoms: N_35  and  C_36
REMARK                            x       y       z     vdW  Elec       q    Type
REMARK                         _______ _______ _______ _____ _____    ______ ____
ROOT
ATOM      1  C   UNL     1       0.450  11.675  19.471  0.00  0.00    +0.000 A 
ATOM      2  C   UNL     1       1.138  10.845  18.611  0.00  0.00    +0.000 A 
ATOM      3  C   UNL     1       1.446   9.576  19.062  0.00  0.00    +0.000 A 
ATOM      4  C   UNL     1       1.110   9.102  20.332  0.00  0.00    +0.000 A 
ATOM      5  C   UNL     1       0.466   9.947  21.229  0.00  0.00    +0.000 A 
ATOM      6  C   UNL     1       0.134  11.240  20.777  0.00  0.00    +0.000 A 
ATOM      7  C   UNL     1       1.534   7.679  20.450  0.00  0.00    +0.000 C 
ATOM      8  N   UNL     1       2.186   7.419  19.158  0.00  0.00    +0.000 N 
ATOM      9  C   UNL     1       2.130   8.533  18.326  0.00  0.00    +0.000 C 
ATOM     10  O   UNL     1       2.493   8.694  17.174  0.00  0.00    +0.000 OA
ENDROOT
BRANCH   8  11
ATOM     11  C   UNL     1       2.631   6.144  18.758  0.00  0.00    +0.000 A 
ATOM     12  C   UNL     1       2.171   4.989  19.394  0.00  0.00    +0.000 A 
ATOM     13  C   UNL     1       2.673   3.725  19.066  0.00  0.00    +0.000 A 
ATOM     14  C   UNL     1       3.681   3.629  18.081  0.00  0.00    +0.000 A 
ATOM     15  C   UNL     1       4.181   4.777  17.416  0.00  0.00    +0.000 A 
ATOM     16  C   UNL     1       3.578   6.013  17.738  0.00  0.00    +0.000 A 
BRANCH  15  17
ATOM     17  C   UNL     1       5.433   4.706  16.436  0.00  0.00    +0.000 C 
ATOM     18  C   UNL     1       5.390   3.704  15.237  0.00  0.00    +0.000 C 
ATOM     19  O   UNL     1       5.875   4.738  14.334  0.00  0.00    +0.000 OA
ATOM     20  C   UNL     1       5.422   5.744  15.272  0.00  0.00    +0.000 C 
BRANCH  17  21
ATOM     21  C   UNL     1       6.751   4.677  17.215  0.00  0.00    +0.000 C 
BRANCH  21  22
ATOM     22  C   UNL     1       7.278   6.046  17.502  0.00  0.00    +0.000 A 
ATOM     23  N   UNL     1       7.266   7.069  16.668  0.00  0.00    +0.000 NA
ATOM     24  N   UNL     1       7.822   8.152  17.305  0.00  0.00    +0.000 NA
ATOM     25  C   UNL     1       8.162   7.771  18.513  0.00  0.00    +0.000 A 
ATOM     26  N   UNL     1       7.857   6.455  18.676  0.00  0.00    +0.000 N 
ATOM     27  C   UNL     1       8.108   5.683  19.863  0.00  0.00    +0.000 C 
ENDBRANCH  21  22
ENDBRANCH  17  21
ENDBRANCH  15  17
ENDBRANCH   8  11
BRANCH   5  28
ATOM     28  C   UNL     1       0.162   9.558  22.649  0.00  0.00    +0.000 C 
ATOM     29  F   UNL     1       1.260   9.191  23.362  0.00  0.00    +0.000 F 
ATOM     30  F   UNL     1      -0.415  10.574  23.349  0.00  0.00    +0.000 F 
ATOM     31  F   UNL     1      -0.702   8.512  22.725  0.00  0.00    +0.000 F 
ENDBRANCH   5  28
BRANCH   1  32
ATOM     32  C   UNL     1       0.184  13.098  19.028  0.00  0.00    +0.000 C 
BRANCH  32  40
ATOM     33  C   UNL     1      -0.095  17.740  19.922  0.00  0.00    +0.000 A 
ATOM     34  C   UNL     1       1.016  18.594  19.969  0.00  0.00    +0.000 A 
ATOM     35  C   UNL     1       2.193  18.193  20.605  0.00  0.00    +0.000 A 
ATOM     36  C   UNL     1       2.260  16.923  21.149  0.00  0.00    +0.000 A 
ATOM     37  C   UNL     1       1.345  15.998  20.706  0.00  0.00    +0.000 A 
ATOM     38  C   UNL     1       0.126  16.402  20.186  0.00  0.00    +0.000 A 
ATOM     39  C   UNL     1      -0.723  15.187  19.995  0.00  0.00    +0.000 C 
ATOM     40  N   UNL     1       0.193  14.018  20.167  0.00  0.00    +0.000 NA
ATOM     41  C   UNL     1       1.548  14.556  20.388  0.00  0.00    +0.000 C 
BRANCH  33  43
ATOM     42  C   UNL     1      -2.198  18.430  20.710  0.00  0.00    +0.000 C 
ATOM     43  O   UNL     1      -1.352  18.149  19.589  0.00  0.00    +0.000 OA
ENDBRANCH  33  43
ENDBRANCH  32  40
ENDBRANCH   1  32
TORSDOF 8
ENDMDL
MODEL 9
REMARK VINA RESULT:      -8.8      1.636      2.213
REMARK  Name = 
REMARK  10 active torsions:
REMARK  status: ('A' for Active; 'I' for Inactive)
REMARK    1  A    between atoms: C_1  and  O_2
REMARK    2  A    between atoms: O_2  and  C_3
REMARK    3  A    between atoms: N_10  and  C_11
REMARK    4  A    between atoms: C_11  and  C_12
REMARK    5  A    between atoms: C_16  and  C_17
REMARK    6  A    between atoms: N_23  and  C_24
REMARK    7  A    between atoms: C_28  and  C_29
REMARK    8  A    between atoms: C_29  and  C_30
REMARK    9  A    between atoms: C_30  and  C_31
REMARK   10  A    between atoms: N_35  and  C_36
REMARK                            x       y       z     vdW  Elec       q    Type
REMARK                         _______ _______ _______ _____ _____    ______ ____
ROOT
ATOM      1  C   UNL     1      -0.324  12.011  19.815  0.00  0.00    +0.000 A 
ATOM      2  C   UNL     1       0.475  11.411  18.864  0.00  0.00    +0.000 A 
ATOM      3  C   UNL     1       0.948  10.142  19.138  0.00  0.00    +0.000 A 
ATOM      4  C   UNL     1       0.668   9.449  20.318  0.00  0.00    +0.000 A 
ATOM      5  C   UNL     1      -0.091  10.063  21.309  0.00  0.00    +0.000 A 
ATOM      6  C   UNL     1      -0.589  11.352  21.037  0.00  0.00    +0.000 A 
ATOM      7  C   UNL     1       1.279   8.093  20.244  0.00  0.00    +0.000 C 
ATOM      8  N   UNL     1       1.970   8.111  18.946  0.00  0.00    +0.000 N 
ATOM      9  C   UNL     1       1.771   9.316  18.280  0.00  0.00    +0.000 C 
ATOM     10  O   UNL     1       2.119   9.689  17.173  0.00  0.00    +0.000 OA
ENDROOT
BRANCH   8  11
ATOM     11  C   UNL     1       2.585   6.977  18.381  0.00  0.00    +0.000 A 
ATOM     12  C   UNL     1       1.892   5.772  18.249  0.00  0.00    +0.000 A 
ATOM     13  C   UNL     1       2.519   4.616  17.772  0.00  0.00    +0.000 A 
ATOM     14  C   UNL     1       3.891   4.676  17.438  0.00  0.00    +0.000 A 
ATOM     15  C   UNL     1       4.633   5.877  17.564  0.00  0.00    +0.000 A 
ATOM     16  C   UNL     1       3.923   7.025  17.977  0.00  0.00    +0.000 A 
BRANCH  15  17
ATOM     17  C   UNL     1       6.211   5.918  17.360  0.00  0.00    +0.000 C 
ATOM     18  C   UNL     1       6.869   7.242  16.853  0.00  0.00    +0.000 C 
ATOM     19  O   UNL     1       7.902   7.140  17.874  0.00  0.00    +0.000 OA
ATOM     20  C   UNL     1       7.035   6.267  18.638  0.00  0.00    +0.000 C 
BRANCH  17  21
ATOM     21  C   UNL     1       6.713   4.665  16.635  0.00  0.00    +0.000 C 
BRANCH  21  22
ATOM     22  C   UNL     1       7.080   4.935  15.211  0.00  0.00    +0.000 A 
ATOM     23  N   UNL     1       8.151   5.588  14.799  0.00  0.00    +0.000 NA
ATOM     24  N   UNL     1       8.141   5.611  13.426  0.00  0.00    +0.000 NA
ATOM     25  C   UNL     1       7.068   4.973  13.025  0.00  0.00    +0.000 A 
ATOM     26  N   UNL     1       6.363   4.546  14.109  0.00  0.00    +0.000 N 
ATOM     27  C   UNL     1       5.117   3.831  14.062  0.00  0.00    +0.000 C 
ENDBRANCH  21  22
ENDBRANCH  17  21
ENDBRANCH  15  17
ENDBRANCH   8  11
BRANCH   5  28
ATOM     28  C   UNL     1      -0.350   9.435  22.650  0.00  0.00    +0.000 C 
ATOM     29  F   UNL     1      -1.018   8.253  22.580  0.00  0.00    +0.000 F 
ATOM     30  F   UNL     1       0.803   9.174  23.327  0.00  0.00    +0.000 F 
ATOM     31  F   UNL     1      -1.087  10.237  23.461  0.00  0.00    +0.000 F 
ENDBRANCH   5  28
BRANCH   1  32
ATOM     32  C   UNL     1      -0.776  13.434  19.572  0.00  0.00    +0.000 C 
BRANCH  32  40
ATOM     33  C   UNL     1       2.437  16.616  20.980  0.00  0.00    +0.000 A 
ATOM     34  C   UNL     1       2.204  17.998  21.016  0.00  0.00    +0.000 A 
ATOM     35  C   UNL     1       1.531  18.631  19.968  0.00  0.00    +0.000 A 
ATOM     36  C   UNL     1       1.060  17.866  18.916  0.00  0.00    +0.000 A 
ATOM     37  C   UNL     1       0.924  16.515  19.130  0.00  0.00    +0.000 A 
ATOM     38  C   UNL     1       1.684  15.871  20.093  0.00  0.00    +0.000 A 
ATOM     39  C   UNL     1       1.472  14.400  19.944  0.00  0.00    +0.000 C 
ATOM     40  N   UNL     1       0.310  14.247  19.018  0.00  0.00    +0.000 NA
ATOM     41  C   UNL     1      -0.171  15.603  18.695  0.00  0.00    +0.000 C 
BRANCH  33  43
ATOM     42  C   UNL     1       4.656  15.908  21.285  0.00  0.00    +0.000 C 
ATOM     43  O   UNL     1       3.321  15.976  21.797  0.00  0.00    +0.000 OA
ENDBRANCH  33  43
ENDBRANCH  32  40
ENDBRANCH   1  32
TORSDOF 8
ENDMDL
