MODEL 1
REMARK VINA RESULT:      -9.5      0.000      0.000
REMARK  Name = 
REMARK  11 active torsions:
REMARK  status: ('A' for Active; 'I' for Inactive)
REMARK    1  A    between atoms: C_1  and  C_2
REMARK    2  A    between atoms: C_2  and  C_3
REMARK    3  A    between atoms: C_2  and  C_4
REMARK    4  A    between atoms: N_6  and  C_7
REMARK    5  A    between atoms: C_7  and  C_8
REMARK    6  A    between atoms: C_12  and  C_13
REMARK    7  A    between atoms: N_19  and  C_20
REMARK    8  A    between atoms: C_24  and  C_25
REMARK    9  A    between atoms: C_25  and  C_26
REMARK   10  A    between atoms: C_26  and  C_27
REMARK   11  A    between atoms: N_31  and  C_32
REMARK                            x       y       z     vdW  Elec       q    Type
REMARK                         _______ _______ _______ _____ _____    ______ ____
ROOT
ATOM      1  C   UNL     1       3.638   4.820  17.890  0.00  0.00    +0.000 A 
ATOM      2  C   UNL     1       3.109   6.112  17.849  0.00  0.00    +0.000 A 
ATOM      3  C   UNL     1       2.353   6.543  18.913  0.00  0.00    +0.000 A 
ATOM      4  C   UNL     1       2.023   5.733  19.989  0.00  0.00    +0.000 A 
ATOM      5  C   UNL     1       2.428   4.403  20.007  0.00  0.00    +0.000 A 
ATOM      6  C   UNL     1       3.276   3.968  18.959  0.00  0.00    +0.000 A 
ATOM      7  C   UNL     1       1.268   6.547  20.994  0.00  0.00    +0.000 C 
ATOM      8  N   UNL     1       1.231   7.877  20.391  0.00  0.00    +0.000 N 
ATOM      9  C   UNL     1       1.838   7.891  19.139  0.00  0.00    +0.000 C 
ATOM     10  O   UNL     1       2.006   8.785  18.332  0.00  0.00    +0.000 OA
ENDROOT
BRANCH   8  11
ATOM     11  C   UNL     1       0.679   9.003  21.051  0.00  0.00    +0.000 A 
ATOM     12  C   UNL     1       0.217   8.931  22.369  0.00  0.00    +0.000 A 
ATOM     13  C   UNL     1      -0.325  10.044  23.000  0.00  0.00    +0.000 A 
ATOM     14  C   UNL     1      -0.454  11.241  22.304  0.00  0.00    +0.000 A 
ATOM     15  C   UNL     1      -0.055  11.357  20.960  0.00  0.00    +0.000 A 
ATOM     16  C   UNL     1       0.557  10.226  20.379  0.00  0.00    +0.000 A 
BRANCH  15  17
ATOM     17  C   UNL     1      -0.319  12.688  20.116  0.00  0.00    +0.000 C 
ATOM     18  C   UNL     1       0.624  13.029  18.923  0.00  0.00    +0.000 C 
ATOM     19  O   UNL     1      -0.522  13.299  18.068  0.00  0.00    +0.000 OA
ATOM     20  C   UNL     1      -1.357  12.529  18.966  0.00  0.00    +0.000 C 
BRANCH  17  21
ATOM     21  C   UNL     1      -0.601  13.895  21.027  0.00  0.00    +0.000 C 
BRANCH  21  22
ATOM     22  C   UNL     1       0.631  14.675  21.354  0.00  0.00    +0.000 A 
ATOM     23  N   UNL     1       1.562  14.328  22.223  0.00  0.00    +0.000 NA
ATOM     24  N   UNL     1       2.533  15.299  22.229  0.00  0.00    +0.000 NA
ATOM     25  C   UNL     1       2.184  16.216  21.360  0.00  0.00    +0.000 A 
ATOM     26  N   UNL     1       0.989  15.878  20.802  0.00  0.00    +0.000 N 
ATOM     27  C   UNL     1       0.279  16.659  19.826  0.00  0.00    +0.000 C 
ENDBRANCH  21  22
ENDBRANCH  17  21
ENDBRANCH  15  17
ENDBRANCH   8  11
BRANCH   5  28
ATOM     28  C   UNL     1       1.983   3.436  21.074  0.00  0.00    +0.000 C 
ATOM     29  F   UNL     1       2.382   3.789  22.326  0.00  0.00    +0.000 F 
ATOM     30  F   UNL     1       0.626   3.335  21.135  0.00  0.00    +0.000 F 
ATOM     31  F   UNL     1       2.448   2.176  20.873  0.00  0.00    +0.000 F 
ENDBRANCH   5  28
BRANCH   1  32
ATOM     32  C   UNL     1       4.594   4.380  16.798  0.00  0.00    +0.000 C 
BRANCH  32  35
ATOM     33  C   UNL     1       6.418   4.063  14.289  0.00  0.00    +0.000 C 
ATOM     34  C   UNL     1       5.332   5.142  14.535  0.00  0.00    +0.000 C 
ATOM     35  N   UNL     1       5.145   5.475  15.973  0.00  0.00    +0.000 NA
ATOM     36  C   UNL     1       6.478   5.881  16.488  0.00  0.00    +0.000 C 
ATOM     37  C   UNL     1       7.603   4.872  16.180  0.00  0.00    +0.000 C 
ATOM     38  O   UNL     1       7.679   4.560  14.782  0.00  0.00    +0.000 OA
BRANCH  33  40
ATOM     39  C   UNL     1       5.221   3.358  12.179  0.00  0.00    +0.000 C 
ATOM     40  C   UNL     1       6.592   3.667  12.802  0.00  0.00    +0.000 C 
ATOM     41  C   UNL     1       7.268   4.754  11.964  0.00  0.00    +0.000 C 
ENDBRANCH  33  40
ENDBRANCH  32  35
ENDBRANCH   1  32
TORSDOF 8
ENDMDL
MODEL 2
REMARK VINA RESULT:      -9.5      1.040      1.397
REMARK  Name = 
REMARK  11 active torsions:
REMARK  status: ('A' for Active; 'I' for Inactive)
REMARK    1  A    between atoms: C_1  and  C_2
REMARK    2  A    between atoms: C_2  and  C_3
REMARK    3  A    between atoms: C_2  and  C_4
REMARK    4  A    between atoms: N_6  and  C_7
REMARK    5  A    between atoms: C_7  and  C_8
REMARK    6  A    between atoms: C_12  and  C_13
REMARK    7  A    between atoms: N_19  and  C_20
REMARK    8  A    between atoms: C_24  and  C_25
REMARK    9  A    between atoms: C_25  and  C_26
REMARK   10  A    between atoms: C_26  and  C_27
REMARK   11  A    between atoms: N_31  and  C_32
REMARK                            x       y       z     vdW  Elec       q    Type
REMARK                         _______ _______ _______ _____ _____    ______ ____
ROOT
ATOM      1  C   UNL     1       3.611   4.794  17.895  0.00  0.00    +0.000 A 
ATOM      2  C   UNL     1       3.083   6.087  17.865  0.00  0.00    +0.000 A 
ATOM      3  C   UNL     1       2.349   6.519  18.944  0.00  0.00    +0.000 A 
ATOM      4  C   UNL     1       2.038   5.708  20.026  0.00  0.00    +0.000 A 
ATOM      5  C   UNL     1       2.440   4.378  20.035  0.00  0.00    +0.000 A 
ATOM      6  C   UNL     1       3.267   3.941  18.970  0.00  0.00    +0.000 A 
ATOM      7  C   UNL     1       1.304   6.523  21.045  0.00  0.00    +0.000 C 
ATOM      8  N   UNL     1       1.258   7.854  20.445  0.00  0.00    +0.000 N 
ATOM      9  C   UNL     1       1.841   7.867  19.181  0.00  0.00    +0.000 C 
ATOM     10  O   UNL     1       1.996   8.762  18.371  0.00  0.00    +0.000 OA
ENDROOT
BRANCH   8  11
ATOM     11  C   UNL     1       0.722   8.981  21.116  0.00  0.00    +0.000 A 
ATOM     12  C   UNL     1       0.146   8.876  22.386  0.00  0.00    +0.000 A 
ATOM     13  C   UNL     1      -0.379   9.990  23.029  0.00  0.00    +0.000 A 
ATOM     14  C   UNL     1      -0.376  11.225  22.389  0.00  0.00    +0.000 A 
ATOM     15  C   UNL     1       0.141  11.379  21.090  0.00  0.00    +0.000 A 
ATOM     16  C   UNL     1       0.731  10.239  20.501  0.00  0.00    +0.000 A 
BRANCH  15  17
ATOM     17  C   UNL     1       0.031  12.762  20.298  0.00  0.00    +0.000 C 
ATOM     18  C   UNL     1      -1.307  13.127  19.589  0.00  0.00    +0.000 C 
ATOM     19  O   UNL     1      -1.275  14.461  20.168  0.00  0.00    +0.000 OA
ATOM     20  C   UNL     1      -0.357  13.984  21.182  0.00  0.00    +0.000 C 
BRANCH  17  21
ATOM     21  C   UNL     1       1.270  13.017  19.421  0.00  0.00    +0.000 C 
BRANCH  21  22
ATOM     22  C   UNL     1       2.409  13.612  20.183  0.00  0.00    +0.000 A 
ATOM     23  N   UNL     1       2.763  13.302  21.416  0.00  0.00    +0.000 NA
ATOM     24  N   UNL     1       3.859  14.057  21.755  0.00  0.00    +0.000 NA
ATOM     25  C   UNL     1       4.160  14.807  20.722  0.00  0.00    +0.000 A 
ATOM     26  N   UNL     1       3.267  14.576  19.721  0.00  0.00    +0.000 N 
ATOM     27  C   UNL     1       3.263  15.237  18.444  0.00  0.00    +0.000 C 
ENDBRANCH  21  22
ENDBRANCH  17  21
ENDBRANCH  15  17
ENDBRANCH   8  11
BRANCH   5  28
ATOM     28  C   UNL     1       2.014   3.411  21.109  0.00  0.00    +0.000 C 
ATOM     29  F   UNL     1       0.670   3.198  21.144  0.00  0.00    +0.000 F 
ATOM     30  F   UNL     1       2.577   2.182  20.940  0.00  0.00    +0.000 F 
ATOM     31  F   UNL     1       2.362   3.818  22.357  0.00  0.00    +0.000 F 
ENDBRANCH   5  28
BRANCH   1  32
ATOM     32  C   UNL     1       4.544   4.353  16.784  0.00  0.00    +0.000 C 
BRANCH  32  35
ATOM     33  C   UNL     1       6.430   4.046  14.320  0.00  0.00    +0.000 C 
ATOM     34  C   UNL     1       5.352   5.136  14.553  0.00  0.00    +0.000 C 
ATOM     35  N   UNL     1       5.131   5.452  15.989  0.00  0.00    +0.000 NA
ATOM     36  C   UNL     1       6.455   5.833  16.545  0.00  0.00    +0.000 C 
ATOM     37  C   UNL     1       7.575   4.813  16.253  0.00  0.00    +0.000 C 
ATOM     38  O   UNL     1       7.684   4.520  14.853  0.00  0.00    +0.000 OA
BRANCH  33  40
ATOM     39  C   UNL     1       5.281   3.382  12.171  0.00  0.00    +0.000 C 
ATOM     40  C   UNL     1       6.638   3.669  12.833  0.00  0.00    +0.000 C 
ATOM     41  C   UNL     1       7.346   4.760  12.027  0.00  0.00    +0.000 C 
ENDBRANCH  33  40
ENDBRANCH  32  35
ENDBRANCH   1  32
TORSDOF 8
ENDMDL
MODEL 3
REMARK VINA RESULT:      -9.3      1.477      2.422
REMARK  Name = 
REMARK  11 active torsions:
REMARK  status: ('A' for Active; 'I' for Inactive)
REMARK    1  A    between atoms: C_1  and  C_2
REMARK    2  A    between atoms: C_2  and  C_3
REMARK    3  A    between atoms: C_2  and  C_4
REMARK    4  A    between atoms: N_6  and  C_7
REMARK    5  A    between atoms: C_7  and  C_8
REMARK    6  A    between atoms: C_12  and  C_13
REMARK    7  A    between atoms: N_19  and  C_20
REMARK    8  A    between atoms: C_24  and  C_25
REMARK    9  A    between atoms: C_25  and  C_26
REMARK   10  A    between atoms: C_26  and  C_27
REMARK   11  A    between atoms: N_31  and  C_32
REMARK                            x       y       z     vdW  Elec       q    Type
REMARK                         _______ _______ _______ _____ _____    ______ ____
ROOT
ATOM      1  C   UNL     1       3.609   4.494  17.383  0.00  0.00    +0.000 A 
ATOM      2  C   UNL     1       3.142   5.809  17.430  0.00  0.00    +0.000 A 
ATOM      3  C   UNL     1       2.455   6.219  18.549  0.00  0.00    +0.000 A 
ATOM      4  C   UNL     1       2.134   5.370  19.597  0.00  0.00    +0.000 A 
ATOM      5  C   UNL     1       2.475   4.024  19.530  0.00  0.00    +0.000 A 
ATOM      6  C   UNL     1       3.253   3.605  18.424  0.00  0.00    +0.000 A 
ATOM      7  C   UNL     1       1.464   6.165  20.675  0.00  0.00    +0.000 C 
ATOM      8  N   UNL     1       1.465   7.525  20.142  0.00  0.00    +0.000 N 
ATOM      9  C   UNL     1       2.016   7.576  18.865  0.00  0.00    +0.000 C 
ATOM     10  O   UNL     1       2.192   8.502  18.096  0.00  0.00    +0.000 OA
ENDROOT
BRANCH   8  11
ATOM     11  C   UNL     1       0.998   8.640  20.881  0.00  0.00    +0.000 A 
ATOM     12  C   UNL     1       0.903   8.610  22.276  0.00  0.00    +0.000 A 
ATOM     13  C   UNL     1       0.439   9.710  22.987  0.00  0.00    +0.000 A 
ATOM     14  C   UNL     1       0.019  10.848  22.305  0.00  0.00    +0.000 A 
ATOM     15  C   UNL     1       0.043  10.915  20.901  0.00  0.00    +0.000 A 
ATOM     16  C   UNL     1       0.588   9.805  20.221  0.00  0.00    +0.000 A 
BRANCH  15  17
ATOM     17  C   UNL     1      -0.558  12.165  20.107  0.00  0.00    +0.000 C 
ATOM     18  C   UNL     1      -0.622  12.117  18.551  0.00  0.00    +0.000 C 
ATOM     19  O   UNL     1      -2.003  12.574  18.573  0.00  0.00    +0.000 OA
ATOM     20  C   UNL     1      -2.107  12.150  19.954  0.00  0.00    +0.000 C 
BRANCH  17  21
ATOM     21  C   UNL     1      -0.014  13.499  20.649  0.00  0.00    +0.000 C 
BRANCH  21  22
ATOM     22  C   UNL     1       1.167  13.998  19.880  0.00  0.00    +0.000 A 
ATOM     23  N   UNL     1       2.378  13.474  19.891  0.00  0.00    +0.000 NA
ATOM     24  N   UNL     1       3.176  14.210  19.050  0.00  0.00    +0.000 NA
ATOM     25  C   UNL     1       2.438  15.163  18.534  0.00  0.00    +0.000 A 
ATOM     26  N   UNL     1       1.178  15.082  19.040  0.00  0.00    +0.000 N 
ATOM     27  C   UNL     1       0.098  15.978  18.726  0.00  0.00    +0.000 C 
ENDBRANCH  21  22
ENDBRANCH  17  21
ENDBRANCH  15  17
ENDBRANCH   8  11
BRANCH   5  28
ATOM     28  C   UNL     1       2.030   3.025  20.567  0.00  0.00    +0.000 C 
ATOM     29  F   UNL     1       2.609   3.213  21.784  0.00  0.00    +0.000 F 
ATOM     30  F   UNL     1       0.687   3.082  20.786  0.00  0.00    +0.000 F 
ATOM     31  F   UNL     1       2.303   1.742  20.216  0.00  0.00    +0.000 F 
ENDBRANCH   5  28
BRANCH   1  32
ATOM     32  C   UNL     1       4.494   4.068  16.227  0.00  0.00    +0.000 C 
BRANCH  32  35
ATOM     33  C   UNL     1       6.674   6.121  17.094  0.00  0.00    +0.000 C 
ATOM     34  C   UNL     1       6.491   4.669  17.604  0.00  0.00    +0.000 C 
ATOM     35  N   UNL     1       5.892   3.758  16.592  0.00  0.00    +0.000 NA
ATOM     36  C   UNL     1       6.762   3.833  15.390  0.00  0.00    +0.000 C 
ATOM     37  C   UNL     1       7.041   5.271  14.908  0.00  0.00    +0.000 C 
ATOM     38  O   UNL     1       7.562   6.099  15.956  0.00  0.00    +0.000 OA
BRANCH  33  40
ATOM     39  C   UNL     1       8.196   6.340  19.098  0.00  0.00    +0.000 C 
ATOM     40  C   UNL     1       7.251   7.095  18.149  0.00  0.00    +0.000 C 
ATOM     41  C   UNL     1       8.022   8.266  17.533  0.00  0.00    +0.000 C 
ENDBRANCH  33  40
ENDBRANCH  32  35
ENDBRANCH   1  32
TORSDOF 8
ENDMDL
MODEL 4
REMARK VINA RESULT:      -9.3      1.008      1.611
REMARK  Name = 
REMARK  11 active torsions:
REMARK  status: ('A' for Active; 'I' for Inactive)
REMARK    1  A    between atoms: C_1  and  C_2
REMARK    2  A    between atoms: C_2  and  C_3
REMARK    3  A    between atoms: C_2  and  C_4
REMARK    4  A    between atoms: N_6  and  C_7
REMARK    5  A    between atoms: C_7  and  C_8
REMARK    6  A    between atoms: C_12  and  C_13
REMARK    7  A    between atoms: N_19  and  C_20
REMARK    8  A    between atoms: C_24  and  C_25
REMARK    9  A    between atoms: C_25  and  C_26
REMARK   10  A    between atoms: C_26  and  C_27
REMARK   11  A    between atoms: N_31  and  C_32
REMARK                            x       y       z     vdW  Elec       q    Type
REMARK                         _______ _______ _______ _____ _____    ______ ____
ROOT
ATOM      1  C   UNL     1       3.786   4.813  18.008  0.00  0.00    +0.000 A 
ATOM      2  C   UNL     1       3.250   6.102  17.968  0.00  0.00    +0.000 A 
ATOM      3  C   UNL     1       2.442   6.507  19.005  0.00  0.00    +0.000 A 
ATOM      4  C   UNL     1       2.069   5.673  20.048  0.00  0.00    +0.000 A 
ATOM      5  C   UNL     1       2.482   4.346  20.058  0.00  0.00    +0.000 A 
ATOM      6  C   UNL     1       3.381   3.937  19.042  0.00  0.00    +0.000 A 
ATOM      7  C   UNL     1       1.262   6.462  21.032  0.00  0.00    +0.000 C 
ATOM      8  N   UNL     1       1.243   7.804  20.455  0.00  0.00    +0.000 N 
ATOM      9  C   UNL     1       1.907   7.847  19.234  0.00  0.00    +0.000 C 
ATOM     10  O   UNL     1       2.106   8.758  18.452  0.00  0.00    +0.000 OA
ENDROOT
BRANCH   8  11
ATOM     11  C   UNL     1       0.653   8.913  21.111  0.00  0.00    +0.000 A 
ATOM     12  C   UNL     1       0.497   8.949  22.500  0.00  0.00    +0.000 A 
ATOM     13  C   UNL     1      -0.087  10.042  23.128  0.00  0.00    +0.000 A 
ATOM     14  C   UNL     1      -0.566  11.104  22.367  0.00  0.00    +0.000 A 
ATOM     15  C   UNL     1      -0.484  11.098  20.963  0.00  0.00    +0.000 A 
ATOM     16  C   UNL     1       0.181  10.003  20.369  0.00  0.00    +0.000 A 
BRANCH  15  17
ATOM     17  C   UNL     1      -1.147  12.249  20.075  0.00  0.00    +0.000 C 
ATOM     18  C   UNL     1      -2.635  12.108  19.636  0.00  0.00    +0.000 C 
ATOM     19  O   UNL     1      -2.911  13.474  20.055  0.00  0.00    +0.000 OA
ATOM     20  C   UNL     1      -1.729  13.441  20.892  0.00  0.00    +0.000 C 
BRANCH  17  21
ATOM     21  C   UNL     1      -0.218  12.693  18.931  0.00  0.00    +0.000 C 
BRANCH  21  22
ATOM     22  C   UNL     1       0.370  14.049  19.155  0.00  0.00    +0.000 A 
ATOM     23  N   UNL     1      -0.100  15.187  18.679  0.00  0.00    +0.000 NA
ATOM     24  N   UNL     1       0.711  16.206  19.114  0.00  0.00    +0.000 NA
ATOM     25  C   UNL     1       1.655  15.676  19.854  0.00  0.00    +0.000 A 
ATOM     26  N   UNL     1       1.493  14.325  19.892  0.00  0.00    +0.000 N 
ATOM     27  C   UNL     1       2.354  13.405  20.584  0.00  0.00    +0.000 C 
ENDBRANCH  21  22
ENDBRANCH  17  21
ENDBRANCH  15  17
ENDBRANCH   8  11
BRANCH   5  28
ATOM     28  C   UNL     1       1.995   3.355  21.084  0.00  0.00    +0.000 C 
ATOM     29  F   UNL     1       0.646   3.178  21.069  0.00  0.00    +0.000 F 
ATOM     30  F   UNL     1       2.530   2.117  20.889  0.00  0.00    +0.000 F 
ATOM     31  F   UNL     1       2.314   3.709  22.355  0.00  0.00    +0.000 F 
ENDBRANCH   5  28
BRANCH   1  32
ATOM     32  C   UNL     1       4.794   4.401  16.953  0.00  0.00    +0.000 C 
BRANCH  32  35
ATOM     33  C   UNL     1       6.332   4.017  14.267  0.00  0.00    +0.000 C 
ATOM     34  C   UNL     1       5.210   5.043  14.574  0.00  0.00    +0.000 C 
ATOM     35  N   UNL     1       5.169   5.466  15.999  0.00  0.00    +0.000 NA
ATOM     36  C   UNL     1       6.522   5.988  16.323  0.00  0.00    +0.000 C 
ATOM     37  C   UNL     1       7.670   5.029  15.947  0.00  0.00    +0.000 C 
ATOM     38  O   UNL     1       7.605   4.624  14.573  0.00  0.00    +0.000 OA
BRANCH  33  40
ATOM     39  C   UNL     1       4.933   3.518  12.224  0.00  0.00    +0.000 C 
ATOM     40  C   UNL     1       6.358   3.528  12.799  0.00  0.00    +0.000 C 
ATOM     41  C   UNL     1       7.238   4.391  11.891  0.00  0.00    +0.000 C 
ENDBRANCH  33  40
ENDBRANCH  32  35
ENDBRANCH   1  32
TORSDOF 8
ENDMDL
MODEL 5
REMARK VINA RESULT:      -9.3      1.217      2.255
REMARK  Name = 
REMARK  11 active torsions:
REMARK  status: ('A' for Active; 'I' for Inactive)
REMARK    1  A    between atoms: C_1  and  C_2
REMARK    2  A    between atoms: C_2  and  C_3
REMARK    3  A    between atoms: C_2  and  C_4
REMARK    4  A    between atoms: N_6  and  C_7
REMARK    5  A    between atoms: C_7  and  C_8
REMARK    6  A    between atoms: C_12  and  C_13
REMARK    7  A    between atoms: N_19  and  C_20
REMARK    8  A    between atoms: C_24  and  C_25
REMARK    9  A    between atoms: C_25  and  C_26
REMARK   10  A    between atoms: C_26  and  C_27
REMARK   11  A    between atoms: N_31  and  C_32
REMARK                            x       y       z     vdW  Elec       q    Type
REMARK                         _______ _______ _______ _____ _____    ______ ____
ROOT
ATOM      1  C   UNL     1       3.488   4.634  17.583  0.00  0.00    +0.000 A 
ATOM      2  C   UNL     1       2.986   5.937  17.571  0.00  0.00    +0.000 A 
ATOM      3  C   UNL     1       2.334   6.397  18.691  0.00  0.00    +0.000 A 
ATOM      4  C   UNL     1       2.079   5.605  19.801  0.00  0.00    +0.000 A 
ATOM      5  C   UNL     1       2.455   4.267  19.800  0.00  0.00    +0.000 A 
ATOM      6  C   UNL     1       3.200   3.801  18.689  0.00  0.00    +0.000 A 
ATOM      7  C   UNL     1       1.431   6.447  20.856  0.00  0.00    +0.000 C 
ATOM      8  N   UNL     1       1.371   7.772  20.243  0.00  0.00    +0.000 N 
ATOM      9  C   UNL     1       1.869   7.758  18.943  0.00  0.00    +0.000 C 
ATOM     10  O   UNL     1       1.987   8.640  18.113  0.00  0.00    +0.000 OA
ENDROOT
BRANCH   8  11
ATOM     11  C   UNL     1       0.904   8.917  20.933  0.00  0.00    +0.000 A 
ATOM     12  C   UNL     1       0.280   8.820  22.181  0.00  0.00    +0.000 A 
ATOM     13  C   UNL     1      -0.177   9.953  22.843  0.00  0.00    +0.000 A 
ATOM     14  C   UNL     1      -0.056  11.202  22.243  0.00  0.00    +0.000 A 
ATOM     15  C   UNL     1       0.513  11.353  20.967  0.00  0.00    +0.000 A 
ATOM     16  C   UNL     1       1.031  10.188  20.360  0.00  0.00    +0.000 A 
BRANCH  15  17
ATOM     17  C   UNL     1       0.538  12.764  20.216  0.00  0.00    +0.000 C 
ATOM     18  C   UNL     1       1.524  12.976  19.030  0.00  0.00    +0.000 C 
ATOM     19  O   UNL     1       0.459  13.543  18.217  0.00  0.00    +0.000 OA
ATOM     20  C   UNL     1      -0.517  12.910  19.080  0.00  0.00    +0.000 C 
BRANCH  17  21
ATOM     21  C   UNL     1       0.527  13.938  21.211  0.00  0.00    +0.000 C 
BRANCH  21  22
ATOM     22  C   UNL     1       1.860  14.600  21.341  0.00  0.00    +0.000 A 
ATOM     23  N   UNL     1       2.891  14.141  22.025  0.00  0.00    +0.000 NA
ATOM     24  N   UNL     1       3.931  15.028  21.890  0.00  0.00    +0.000 NA
ATOM     25  C   UNL     1       3.521  16.007  21.120  0.00  0.00    +0.000 A 
ATOM     26  N   UNL     1       2.224  15.792  20.768  0.00  0.00    +0.000 N 
ATOM     27  C   UNL     1       1.429  16.669  19.952  0.00  0.00    +0.000 C 
ENDBRANCH  21  22
ENDBRANCH  17  21
ENDBRANCH  15  17
ENDBRANCH   8  11
BRANCH   5  28
ATOM     28  C   UNL     1       2.082   3.321  20.913  0.00  0.00    +0.000 C 
ATOM     29  F   UNL     1       2.476   3.750  22.143  0.00  0.00    +0.000 F 
ATOM     30  F   UNL     1       0.734   3.144  20.999  0.00  0.00    +0.000 F 
ATOM     31  F   UNL     1       2.617   2.083  20.757  0.00  0.00    +0.000 F 
ENDBRANCH   5  28
BRANCH   1  32
ATOM     32  C   UNL     1       4.337   4.161  16.418  0.00  0.00    +0.000 C 
BRANCH  32  35
ATOM     33  C   UNL     1       6.624   6.131  17.199  0.00  0.00    +0.000 C 
ATOM     34  C   UNL     1       6.384   4.700  17.746  0.00  0.00    +0.000 C 
ATOM     35  N   UNL     1       5.726   3.795  16.766  0.00  0.00    +0.000 NA
ATOM     36  C   UNL     1       6.576   3.804  15.548  0.00  0.00    +0.000 C 
ATOM     37  C   UNL     1       6.912   5.216  15.028  0.00  0.00    +0.000 C 
ATOM     38  O   UNL     1       7.489   6.043  16.047  0.00  0.00    +0.000 OA
BRANCH  33  40
ATOM     39  C   UNL     1       8.209   6.329  19.155  0.00  0.00    +0.000 C 
ATOM     40  C   UNL     1       7.264   7.101  18.222  0.00  0.00    +0.000 C 
ATOM     41  C   UNL     1       8.055   8.235  17.565  0.00  0.00    +0.000 C 
ENDBRANCH  33  40
ENDBRANCH  32  35
ENDBRANCH   1  32
TORSDOF 8
ENDMDL
MODEL 6
REMARK VINA RESULT:      -9.2      1.156      2.379
REMARK  Name = 
REMARK  11 active torsions:
REMARK  status: ('A' for Active; 'I' for Inactive)
REMARK    1  A    between atoms: C_1  and  C_2
REMARK    2  A    between atoms: C_2  and  C_3
REMARK    3  A    between atoms: C_2  and  C_4
REMARK    4  A    between atoms: N_6  and  C_7
REMARK    5  A    between atoms: C_7  and  C_8
REMARK    6  A    between atoms: C_12  and  C_13
REMARK    7  A    between atoms: N_19  and  C_20
REMARK    8  A    between atoms: C_24  and  C_25
REMARK    9  A    between atoms: C_25  and  C_26
REMARK   10  A    between atoms: C_26  and  C_27
REMARK   11  A    between atoms: N_31  and  C_32
REMARK                            x       y       z     vdW  Elec       q    Type
REMARK                         _______ _______ _______ _____ _____    ______ ____
ROOT
ATOM      1  C   UNL     1       3.441   4.886  17.449  0.00  0.00    +0.000 A 
ATOM      2  C   UNL     1       2.937   6.188  17.498  0.00  0.00    +0.000 A 
ATOM      3  C   UNL     1       2.283   6.593  18.638  0.00  0.00    +0.000 A 
ATOM      4  C   UNL     1       2.029   5.750  19.709  0.00  0.00    +0.000 A 
ATOM      5  C   UNL     1       2.407   4.414  19.646  0.00  0.00    +0.000 A 
ATOM      6  C   UNL     1       3.153   4.002  18.515  0.00  0.00    +0.000 A 
ATOM      7  C   UNL     1       1.380   6.540  20.802  0.00  0.00    +0.000 C 
ATOM      8  N   UNL     1       1.319   7.893  20.252  0.00  0.00    +0.000 N 
ATOM      9  C   UNL     1       1.817   7.941  18.954  0.00  0.00    +0.000 C 
ATOM     10  O   UNL     1       1.934   8.861  18.166  0.00  0.00    +0.000 OA
ENDROOT
BRANCH   8  11
ATOM     11  C   UNL     1       0.849   9.004  20.995  0.00  0.00    +0.000 A 
ATOM     12  C   UNL     1       0.470   8.885  22.336  0.00  0.00    +0.000 A 
ATOM     13  C   UNL     1       0.007   9.984  23.050  0.00  0.00    +0.000 A 
ATOM     14  C   UNL     1      -0.126  11.215  22.416  0.00  0.00    +0.000 A 
ATOM     15  C   UNL     1       0.189  11.380  21.056  0.00  0.00    +0.000 A 
ATOM     16  C   UNL     1       0.724  10.259  20.386  0.00  0.00    +0.000 A 
BRANCH  15  17
ATOM     17  C   UNL     1      -0.083  12.756  20.289  0.00  0.00    +0.000 C 
ATOM     18  C   UNL     1      -1.318  12.867  19.345  0.00  0.00    +0.000 C 
ATOM     19  O   UNL     1      -1.692  14.136  19.950  0.00  0.00    +0.000 OA
ATOM     20  C   UNL     1      -0.891  13.804  21.110  0.00  0.00    +0.000 C 
BRANCH  17  21
ATOM     21  C   UNL     1       1.204  13.329  19.671  0.00  0.00    +0.000 C 
BRANCH  21  22
ATOM     22  C   UNL     1       2.023  14.104  20.652  0.00  0.00    +0.000 A 
ATOM     23  N   UNL     1       2.759  13.595  21.623  0.00  0.00    +0.000 NA
ATOM     24  N   UNL     1       3.363  14.629  22.296  0.00  0.00    +0.000 NA
ATOM     25  C   UNL     1       2.994  15.748  21.720  0.00  0.00    +0.000 A 
ATOM     26  N   UNL     1       2.140  15.469  20.698  0.00  0.00    +0.000 N 
ATOM     27  C   UNL     1       1.507  16.448  19.856  0.00  0.00    +0.000 C 
ENDBRANCH  21  22
ENDBRANCH  17  21
ENDBRANCH  15  17
ENDBRANCH   8  11
BRANCH   5  28
ATOM     28  C   UNL     1       2.034   3.417  20.713  0.00  0.00    +0.000 C 
ATOM     29  F   UNL     1       2.363   2.135  20.395  0.00  0.00    +0.000 F 
ATOM     30  F   UNL     1       2.663   3.676  21.893  0.00  0.00    +0.000 F 
ATOM     31  F   UNL     1       0.704   3.407  20.987  0.00  0.00    +0.000 F 
ENDBRANCH   5  28
BRANCH   1  32
ATOM     32  C   UNL     1       4.291   4.469  16.264  0.00  0.00    +0.000 C 
BRANCH  32  35
ATOM     33  C   UNL     1       6.972   5.987  16.747  0.00  0.00    +0.000 C 
ATOM     34  C   UNL     1       6.471   4.706  17.463  0.00  0.00    +0.000 C 
ATOM     35  N   UNL     1       5.592   3.859  16.613  0.00  0.00    +0.000 NA
ATOM     36  C   UNL     1       6.361   3.558  15.378  0.00  0.00    +0.000 C 
ATOM     37  C   UNL     1       6.953   4.804  14.689  0.00  0.00    +0.000 C 
ATOM     38  O   UNL     1       7.739   5.596  15.589  0.00  0.00    +0.000 OA
BRANCH  33  40
ATOM     39  C   UNL     1       7.315   8.345  17.584  0.00  0.00    +0.000 C 
ATOM     40  C   UNL     1       7.849   6.905  17.633  0.00  0.00    +0.000 C 
ATOM     41  C   UNL     1       7.902   6.460  19.096  0.00  0.00    +0.000 C 
ENDBRANCH  33  40
ENDBRANCH  32  35
ENDBRANCH   1  32
TORSDOF 8
ENDMDL
MODEL 7
REMARK VINA RESULT:      -9.2      1.555      2.579
REMARK  Name = 
REMARK  11 active torsions:
REMARK  status: ('A' for Active; 'I' for Inactive)
REMARK    1  A    between atoms: C_1  and  C_2
REMARK    2  A    between atoms: C_2  and  C_3
REMARK    3  A    between atoms: C_2  and  C_4
REMARK    4  A    between atoms: N_6  and  C_7
REMARK    5  A    between atoms: C_7  and  C_8
REMARK    6  A    between atoms: C_12  and  C_13
REMARK    7  A    between atoms: N_19  and  C_20
REMARK    8  A    between atoms: C_24  and  C_25
REMARK    9  A    between atoms: C_25  and  C_26
REMARK   10  A    between atoms: C_26  and  C_27
REMARK   11  A    between atoms: N_31  and  C_32
REMARK                            x       y       z     vdW  Elec       q    Type
REMARK                         _______ _______ _______ _____ _____    ______ ____
ROOT
ATOM      1  C   UNL     1       3.480   4.710  17.601  0.00  0.00    +0.000 A 
ATOM      2  C   UNL     1       2.979   6.014  17.570  0.00  0.00    +0.000 A 
ATOM      3  C   UNL     1       2.324   6.489  18.682  0.00  0.00    +0.000 A 
ATOM      4  C   UNL     1       2.066   5.713  19.802  0.00  0.00    +0.000 A 
ATOM      5  C   UNL     1       2.442   4.375  19.821  0.00  0.00    +0.000 A 
ATOM      6  C   UNL     1       3.189   3.893  18.717  0.00  0.00    +0.000 A 
ATOM      7  C   UNL     1       1.416   6.569  20.844  0.00  0.00    +0.000 C 
ATOM      8  N   UNL     1       1.359   7.885  20.212  0.00  0.00    +0.000 N 
ATOM      9  C   UNL     1       1.859   7.854  18.915  0.00  0.00    +0.000 C 
ATOM     10  O   UNL     1       1.980   8.724  18.073  0.00  0.00    +0.000 OA
ENDROOT
BRANCH   8  11
ATOM     11  C   UNL     1       0.890   9.040  20.886  0.00  0.00    +0.000 A 
ATOM     12  C   UNL     1       0.302   8.965  22.153  0.00  0.00    +0.000 A 
ATOM     13  C   UNL     1      -0.157  10.107  22.798  0.00  0.00    +0.000 A 
ATOM     14  C   UNL     1      -0.075  11.342  22.164  0.00  0.00    +0.000 A 
ATOM     15  C   UNL     1       0.458  11.469  20.868  0.00  0.00    +0.000 A 
ATOM     16  C   UNL     1       0.979  10.298  20.277  0.00  0.00    +0.000 A 
BRANCH  15  17
ATOM     17  C   UNL     1       0.436  12.860  20.082  0.00  0.00    +0.000 C 
ATOM     18  C   UNL     1       0.370  12.851  18.525  0.00  0.00    +0.000 C 
ATOM     19  O   UNL     1      -0.697  13.841  18.544  0.00  0.00    +0.000 OA
ATOM     20  C   UNL     1      -0.978  13.491  19.921  0.00  0.00    +0.000 C 
BRANCH  17  21
ATOM     21  C   UNL     1       1.481  13.845  20.637  0.00  0.00    +0.000 C 
BRANCH  21  22
ATOM     22  C   UNL     1       2.341  14.440  19.569  0.00  0.00    +0.000 A 
ATOM     23  N   UNL     1       3.379  13.862  18.995  0.00  0.00    +0.000 NA
ATOM     24  N   UNL     1       3.894  14.726  18.061  0.00  0.00    +0.000 NA
ATOM     25  C   UNL     1       3.158  15.811  18.073  0.00  0.00    +0.000 A 
ATOM     26  N   UNL     1       2.185  15.686  19.016  0.00  0.00    +0.000 N 
ATOM     27  C   UNL     1       1.205  16.688  19.336  0.00  0.00    +0.000 C 
ENDBRANCH  21  22
ENDBRANCH  17  21
ENDBRANCH  15  17
ENDBRANCH   8  11
BRANCH   5  28
ATOM     28  C   UNL     1       2.065   3.444  20.945  0.00  0.00    +0.000 C 
ATOM     29  F   UNL     1       0.723   3.248  21.060  0.00  0.00    +0.000 F 
ATOM     30  F   UNL     1       2.606   2.205  20.782  0.00  0.00    +0.000 F 
ATOM     31  F   UNL     1       2.486   3.884  22.159  0.00  0.00    +0.000 F 
ENDBRANCH   5  28
BRANCH   1  32
ATOM     32  C   UNL     1       4.332   4.221  16.445  0.00  0.00    +0.000 C 
BRANCH  32  35
ATOM     33  C   UNL     1       6.634   6.193  17.177  0.00  0.00    +0.000 C 
ATOM     34  C   UNL     1       6.383   4.779  17.760  0.00  0.00    +0.000 C 
ATOM     35  N   UNL     1       5.718   3.854  16.803  0.00  0.00    +0.000 NA
ATOM     36  C   UNL     1       6.568   3.825  15.584  0.00  0.00    +0.000 C 
ATOM     37  C   UNL     1       6.915   5.222  15.029  0.00  0.00    +0.000 C 
ATOM     38  O   UNL     1       7.498   6.069  16.028  0.00  0.00    +0.000 OA
BRANCH  33  40
ATOM     39  C   UNL     1       8.235   6.431  19.116  0.00  0.00    +0.000 C 
ATOM     40  C   UNL     1       7.281   7.184  18.175  0.00  0.00    +0.000 C 
ATOM     41  C   UNL     1       8.065   8.306  17.490  0.00  0.00    +0.000 C 
ENDBRANCH  33  40
ENDBRANCH  32  35
ENDBRANCH   1  32
TORSDOF 8
ENDMDL
MODEL 8
REMARK VINA RESULT:      -9.2      1.533      2.618
REMARK  Name = 
REMARK  11 active torsions:
REMARK  status: ('A' for Active; 'I' for Inactive)
REMARK    1  A    between atoms: C_1  and  C_2
REMARK    2  A    between atoms: C_2  and  C_3
REMARK    3  A    between atoms: C_2  and  C_4
REMARK    4  A    between atoms: N_6  and  C_7
REMARK    5  A    between atoms: C_7  and  C_8
REMARK    6  A    between atoms: C_12  and  C_13
REMARK    7  A    between atoms: N_19  and  C_20
REMARK    8  A    between atoms: C_24  and  C_25
REMARK    9  A    between atoms: C_25  and  C_26
REMARK   10  A    between atoms: C_26  and  C_27
REMARK   11  A    between atoms: N_31  and  C_32
REMARK                            x       y       z     vdW  Elec       q    Type
REMARK                         _______ _______ _______ _____ _____    ______ ____
ROOT
ATOM      1  C   UNL     1       3.597   4.641  17.518  0.00  0.00    +0.000 A 
ATOM      2  C   UNL     1       3.043   5.923  17.488  0.00  0.00    +0.000 A 
ATOM      3  C   UNL     1       2.358   6.365  18.595  0.00  0.00    +0.000 A 
ATOM      4  C   UNL     1       2.120   5.574  19.708  0.00  0.00    +0.000 A 
ATOM      5  C   UNL     1       2.548   4.251  19.724  0.00  0.00    +0.000 A 
ATOM      6  C   UNL     1       3.326   3.806  18.627  0.00  0.00    +0.000 A 
ATOM      7  C   UNL     1       1.424   6.397  20.747  0.00  0.00    +0.000 C 
ATOM      8  N   UNL     1       1.321   7.714  20.122  0.00  0.00    +0.000 N 
ATOM      9  C   UNL     1       1.836   7.709  18.829  0.00  0.00    +0.000 C 
ATOM     10  O   UNL     1       1.931   8.589  17.993  0.00  0.00    +0.000 OA
ENDROOT
BRANCH   8  11
ATOM     11  C   UNL     1       0.798   8.845  20.796  0.00  0.00    +0.000 A 
ATOM     12  C   UNL     1       0.905   8.989  22.183  0.00  0.00    +0.000 A 
ATOM     13  C   UNL     1       0.383  10.103  22.829  0.00  0.00    +0.000 A 
ATOM     14  C   UNL     1      -0.296  11.073  22.099  0.00  0.00    +0.000 A 
ATOM     15  C   UNL     1      -0.479  10.954  20.710  0.00  0.00    +0.000 A 
ATOM     16  C   UNL     1       0.128   9.846  20.081  0.00  0.00    +0.000 A 
BRANCH  15  17
ATOM     17  C   UNL     1      -1.368  11.995  19.886  0.00  0.00    +0.000 C 
ATOM     18  C   UNL     1      -2.527  11.463  18.991  0.00  0.00    +0.000 C 
ATOM     19  O   UNL     1      -3.437  12.454  19.545  0.00  0.00    +0.000 OA
ATOM     20  C   UNL     1      -2.556  12.606  20.685  0.00  0.00    +0.000 C 
BRANCH  17  21
ATOM     21  C   UNL     1      -0.499  13.054  19.183  0.00  0.00    +0.000 C 
BRANCH  21  22
ATOM     22  C   UNL     1       0.722  13.415  19.966  0.00  0.00    +0.000 A 
ATOM     23  N   UNL     1       0.744  14.075  21.109  0.00  0.00    +0.000 NA
ATOM     24  N   UNL     1       2.051  14.198  21.513  0.00  0.00    +0.000 NA
ATOM     25  C   UNL     1       2.802  13.603  20.617  0.00  0.00    +0.000 A 
ATOM     26  N   UNL     1       2.014  13.115  19.620  0.00  0.00    +0.000 N 
ATOM     27  C   UNL     1       2.488  12.425  18.451  0.00  0.00    +0.000 C 
ENDBRANCH  21  22
ENDBRANCH  17  21
ENDBRANCH  15  17
ENDBRANCH   8  11
BRANCH   5  28
ATOM     28  C   UNL     1       2.197   3.301  20.840  0.00  0.00    +0.000 C 
ATOM     29  F   UNL     1       2.451   3.802  22.079  0.00  0.00    +0.000 F 
ATOM     30  F   UNL     1       0.873   2.980  20.837  0.00  0.00    +0.000 F 
ATOM     31  F   UNL     1       2.872   2.125  20.765  0.00  0.00    +0.000 F 
ENDBRANCH   5  28
BRANCH   1  32
ATOM     32  C   UNL     1       4.479   4.193  16.369  0.00  0.00    +0.000 C 
BRANCH  32  35
ATOM     33  C   UNL     1       6.715   6.221  17.151  0.00  0.00    +0.000 C 
ATOM     34  C   UNL     1       6.495   4.795  17.718  0.00  0.00    +0.000 C 
ATOM     35  N   UNL     1       5.870   3.861  16.743  0.00  0.00    +0.000 NA
ATOM     36  C   UNL     1       6.738   3.867  15.538  0.00  0.00    +0.000 C 
ATOM     37  C   UNL     1       7.053   5.277  15.000  0.00  0.00    +0.000 C 
ATOM     38  O   UNL     1       7.598   6.132  16.014  0.00  0.00    +0.000 OA
BRANCH  33  40
ATOM     39  C   UNL     1       8.255   6.480  19.136  0.00  0.00    +0.000 C 
ATOM     40  C   UNL     1       7.319   7.220  18.167  0.00  0.00    +0.000 C 
ATOM     41  C   UNL     1       8.109   8.351  17.504  0.00  0.00    +0.000 C 
ENDBRANCH  33  40
ENDBRANCH  32  35
ENDBRANCH   1  32
TORSDOF 8
ENDMDL
MODEL 9
REMARK VINA RESULT:      -9.2      1.916      3.219
REMARK  Name = 
REMARK  11 active torsions:
REMARK  status: ('A' for Active; 'I' for Inactive)
REMARK    1  A    between atoms: C_1  and  C_2
REMARK    2  A    between atoms: C_2  and  C_3
REMARK    3  A    between atoms: C_2  and  C_4
REMARK    4  A    between atoms: N_6  and  C_7
REMARK    5  A    between atoms: C_7  and  C_8
REMARK    6  A    between atoms: C_12  and  C_13
REMARK    7  A    between atoms: N_19  and  C_20
REMARK    8  A    between atoms: C_24  and  C_25
REMARK    9  A    between atoms: C_25  and  C_26
REMARK   10  A    between atoms: C_26  and  C_27
REMARK   11  A    between atoms: N_31  and  C_32
REMARK                            x       y       z     vdW  Elec       q    Type
REMARK                         _______ _______ _______ _____ _____    ______ ____
ROOT
ATOM      1  C   UNL     1       3.378   5.055  17.633  0.00  0.00    +0.000 A 
ATOM      2  C   UNL     1       2.819   6.335  17.640  0.00  0.00    +0.000 A 
ATOM      3  C   UNL     1       2.172   6.759  18.778  0.00  0.00    +0.000 A 
ATOM      4  C   UNL     1       1.978   5.952  19.888  0.00  0.00    +0.000 A 
ATOM      5  C   UNL     1       2.412   4.631  19.871  0.00  0.00    +0.000 A 
ATOM      6  C   UNL     1       3.152   4.205  18.740  0.00  0.00    +0.000 A 
ATOM      7  C   UNL     1       1.317   6.758  20.963  0.00  0.00    +0.000 C 
ATOM      8  N   UNL     1       1.186   8.082  20.359  0.00  0.00    +0.000 N 
ATOM      9  C   UNL     1       1.654   8.098  19.049  0.00  0.00    +0.000 C 
ATOM     10  O   UNL     1       1.715   8.989  18.222  0.00  0.00    +0.000 OA
ENDROOT
BRANCH   8  11
ATOM     11  C   UNL     1       0.684   9.202  21.067  0.00  0.00    +0.000 A 
ATOM     12  C   UNL     1      -0.223   9.060  22.123  0.00  0.00    +0.000 A 
ATOM     13  C   UNL     1      -0.709  10.169  22.804  0.00  0.00    +0.000 A 
ATOM     14  C   UNL     1      -0.327  11.447  22.409  0.00  0.00    +0.000 A 
ATOM     15  C   UNL     1       0.540  11.652  21.321  0.00  0.00    +0.000 A 
ATOM     16  C   UNL     1       1.068  10.498  20.703  0.00  0.00    +0.000 A 
BRANCH  15  17
ATOM     17  C   UNL     1       0.879  13.117  20.780  0.00  0.00    +0.000 C 
ATOM     18  C   UNL     1       0.895  14.311  21.780  0.00  0.00    +0.000 C 
ATOM     19  O   UNL     1       2.173  14.764  21.252  0.00  0.00    +0.000 OA
ATOM     20  C   UNL     1       2.400  13.442  20.706  0.00  0.00    +0.000 C 
BRANCH  17  21
ATOM     21  C   UNL     1       0.126  13.431  19.475  0.00  0.00    +0.000 C 
BRANCH  21  22
ATOM     22  C   UNL     1      -1.256  12.864  19.452  0.00  0.00    +0.000 A 
ATOM     23  N   UNL     1      -1.654  11.816  18.755  0.00  0.00    +0.000 NA
ATOM     24  N   UNL     1      -2.987  11.607  19.010  0.00  0.00    +0.000 NA
ATOM     25  C   UNL     1      -3.377  12.522  19.865  0.00  0.00    +0.000 A 
ATOM     26  N   UNL     1      -2.332  13.343  20.155  0.00  0.00    +0.000 N 
ATOM     27  C   UNL     1      -2.389  14.480  21.034  0.00  0.00    +0.000 C 
ENDBRANCH  21  22
ENDBRANCH  17  21
ENDBRANCH  15  17
ENDBRANCH   8  11
BRANCH   5  28
ATOM     28  C   UNL     1       2.105   3.664  20.985  0.00  0.00    +0.000 C 
ATOM     29  F   UNL     1       2.703   2.451  20.830  0.00  0.00    +0.000 F 
ATOM     30  F   UNL     1       2.527   4.131  22.194  0.00  0.00    +0.000 F 
ATOM     31  F   UNL     1       0.777   3.414  21.119  0.00  0.00    +0.000 F 
ENDBRANCH   5  28
BRANCH   1  32
ATOM     32  C   UNL     1       4.220   4.626  16.447  0.00  0.00    +0.000 C 
BRANCH  32  35
ATOM     33  C   UNL     1       6.953   6.094  16.766  0.00  0.00    +0.000 C 
ATOM     34  C   UNL     1       6.441   4.870  17.568  0.00  0.00    +0.000 C 
ATOM     35  N   UNL     1       5.514   4.001  16.794  0.00  0.00    +0.000 NA
ATOM     36  C   UNL     1       6.239   3.609  15.558  0.00  0.00    +0.000 C 
ATOM     37  C   UNL     1       6.842   4.797  14.781  0.00  0.00    +0.000 C 
ATOM     38  O   UNL     1       7.675   5.616  15.612  0.00  0.00    +0.000 OA
BRANCH  33  40
ATOM     39  C   UNL     1       7.293   8.456  17.592  0.00  0.00    +0.000 C 
ATOM     40  C   UNL     1       7.880   7.036  17.572  0.00  0.00    +0.000 C 
ATOM     41  C   UNL     1       8.092   6.582  19.018  0.00  0.00    +0.000 C 
ENDBRANCH  33  40
ENDBRANCH  32  35
ENDBRANCH   1  32
TORSDOF 8
ENDMDL
