MODEL 1
REMARK VINA RESULT:      -8.2      0.000      0.000
REMARK  Name = 
REMARK  7 active torsions:
REMARK  status: ('A' for Active; 'I' for Inactive)
REMARK    1  A    between atoms: C_1  and  C_2
REMARK    2  A    between atoms: C_2  and  S_3
REMARK    3  A    between atoms: C_2  and  C_10
REMARK    4  A    between atoms: S_3  and  C_4
REMARK    5  A    between atoms: N_8  and  C_9
REMARK    6  A    between atoms: C_14  and  N_15
REMARK    7  A    between atoms: C_18  and  C_19
REMARK                            x       y       z     vdW  Elec       q    Type
REMARK                         _______ _______ _______ _____ _____    ______ ____
ROOT
ATOM      1  C   UNL     1       2.352   7.717  18.925  0.00  0.00    +0.000 A 
ATOM      2  C   UNL     1       2.183   8.470  17.751  0.00  0.00    +0.000 A 
ATOM      3  C   UNL     1       1.533   9.705  17.762  0.00  0.00    +0.000 A 
ATOM      4  C   UNL     1       0.957  10.178  18.935  0.00  0.00    +0.000 A 
ATOM      5  C   UNL     1       1.009   9.394  20.091  0.00  0.00    +0.000 A 
ATOM      6  C   UNL     1       1.727   8.183  20.094  0.00  0.00    +0.000 A 
ENDROOT
BRANCH   5   7
ATOM      7  N   UNL     1       0.326   9.817  21.259  0.00  0.00    +0.000 N 
ATOM      8  N   UNL     1       0.226   9.033  22.365  0.00  0.00    +0.000 NA
ATOM      9  C   UNL     1      -0.464   9.817  23.196  0.00  0.00    +0.000 A 
ATOM     10  C   UNL     1      -0.786  11.038  22.572  0.00  0.00    +0.000 A 
ATOM     11  N   UNL     1      -0.253  11.040  21.343  0.00  0.00    +0.000 NA
BRANCH  10  12
ATOM     12  C   UNL     1      -1.592  12.142  23.070  0.00  0.00    +0.000 A 
ATOM     13  C   UNL     1      -1.063  13.433  23.203  0.00  0.00    +0.000 A 
ATOM     14  C   UNL     1      -1.843  14.462  23.736  0.00  0.00    +0.000 A 
ATOM     15  C   UNL     1      -3.153  14.208  24.140  0.00  0.00    +0.000 A 
ATOM     16  C   UNL     1      -3.694  12.933  24.001  0.00  0.00    +0.000 A 
ATOM     17  C   UNL     1      -2.919  11.904  23.463  0.00  0.00    +0.000 A 
ENDBRANCH  10  12
ENDBRANCH   5   7
BRANCH   1  19
ATOM     18  C   UNL     1       4.352   6.547  17.840  0.00  0.00    +0.000 C 
ATOM     19  C   UNL     1       3.225   6.470  18.885  0.00  0.00    +0.000 C 
BRANCH  19  20
ATOM     20  S   UNL     1       2.286   4.958  18.449  0.00  0.00    +0.000 S 
BRANCH  20  21
ATOM     21  C   UNL     1       2.061   4.087  19.923  0.00  0.00    +0.000 A 
ATOM     22  N   UNL     1       2.569   4.327  21.108  0.00  0.00    +0.000 NA
ATOM     23  N   UNL     1       2.085   3.366  21.975  0.00  0.00    +0.000 NA
ATOM     24  C   UNL     1       1.330   2.548  21.278  0.00  0.00    +0.000 A 
ATOM     25  N   UNL     1       1.314   2.943  19.976  0.00  0.00    +0.000 N 
ATOM     26  C   UNL     1       0.668   2.257  18.890  0.00  0.00    +0.000 C 
ENDBRANCH  20  21
ENDBRANCH  19  20
ENDBRANCH   1  19
TORSDOF 5
ENDMDL
MODEL 2
REMARK VINA RESULT:      -7.9      3.182      5.256
REMARK  Name = 
REMARK  7 active torsions:
REMARK  status: ('A' for Active; 'I' for Inactive)
REMARK    1  A    between atoms: C_1  and  C_2
REMARK    2  A    between atoms: C_2  and  S_3
REMARK    3  A    between atoms: C_2  and  C_10
REMARK    4  A    between atoms: S_3  and  C_4
REMARK    5  A    between atoms: N_8  and  C_9
REMARK    6  A    between atoms: C_14  and  N_15
REMARK    7  A    between atoms: C_18  and  C_19
REMARK                            x       y       z     vdW  Elec       q    Type
REMARK                         _______ _______ _______ _____ _____    ______ ____
ROOT
ATOM      1  C   UNL     1       4.390   4.949  17.258  0.00  0.00    +0.000 A 
ATOM      2  C   UNL     1       4.404   3.995  18.290  0.00  0.00    +0.000 A 
ATOM      3  C   UNL     1       3.631   4.153  19.441  0.00  0.00    +0.000 A 
ATOM      4  C   UNL     1       2.891   5.314  19.629  0.00  0.00    +0.000 A 
ATOM      5  C   UNL     1       2.952   6.331  18.671  0.00  0.00    +0.000 A 
ATOM      6  C   UNL     1       3.675   6.137  17.478  0.00  0.00    +0.000 A 
ENDROOT
BRANCH   5   7
ATOM      7  N   UNL     1       2.292   7.562  18.910  0.00  0.00    +0.000 N 
ATOM      8  N   UNL     1       2.244   8.552  17.979  0.00  0.00    +0.000 NA
ATOM      9  C   UNL     1       1.531   9.487  18.609  0.00  0.00    +0.000 A 
ATOM     10  C   UNL     1       1.186   9.057  19.906  0.00  0.00    +0.000 A 
ATOM     11  N   UNL     1       1.654   7.815  20.079  0.00  0.00    +0.000 NA
BRANCH  10  12
ATOM     12  C   UNL     1       0.494   9.780  20.961  0.00  0.00    +0.000 A 
ATOM     13  C   UNL     1       0.144   9.157  22.166  0.00  0.00    +0.000 A 
ATOM     14  C   UNL     1      -0.570   9.860  23.142  0.00  0.00    +0.000 A 
ATOM     15  C   UNL     1      -0.938  11.185  22.917  0.00  0.00    +0.000 A 
ATOM     16  C   UNL     1      -0.586  11.819  21.729  0.00  0.00    +0.000 A 
ATOM     17  C   UNL     1       0.132  11.122  20.756  0.00  0.00    +0.000 A 
ENDBRANCH  10  12
ENDBRANCH   5   7
BRANCH   1  19
ATOM     18  C   UNL     1       5.432   3.142  15.775  0.00  0.00    +0.000 C 
ATOM     19  C   UNL     1       5.109   4.636  15.951  0.00  0.00    +0.000 C 
BRANCH  19  20
ATOM     20  S   UNL     1       6.726   5.485  15.809  0.00  0.00    +0.000 S 
BRANCH  20  21
ATOM     21  C   UNL     1       7.385   5.540  17.405  0.00  0.00    +0.000 A 
ATOM     22  N   UNL     1       7.675   4.547  18.212  0.00  0.00    +0.000 NA
ATOM     23  N   UNL     1       8.196   5.087  19.372  0.00  0.00    +0.000 NA
ATOM     24  C   UNL     1       8.168   6.394  19.248  0.00  0.00    +0.000 A 
ATOM     25  N   UNL     1       7.633   6.725  18.041  0.00  0.00    +0.000 N 
ATOM     26  C   UNL     1       7.360   8.055  17.571  0.00  0.00    +0.000 C 
ENDBRANCH  20  21
ENDBRANCH  19  20
ENDBRANCH   1  19
TORSDOF 5
ENDMDL
MODEL 3
REMARK VINA RESULT:      -7.8      1.278      1.970
REMARK  Name = 
REMARK  7 active torsions:
REMARK  status: ('A' for Active; 'I' for Inactive)
REMARK    1  A    between atoms: C_1  and  C_2
REMARK    2  A    between atoms: C_2  and  S_3
REMARK    3  A    between atoms: C_2  and  C_10
REMARK    4  A    between atoms: S_3  and  C_4
REMARK    5  A    between atoms: N_8  and  C_9
REMARK    6  A    between atoms: C_14  and  N_15
REMARK    7  A    between atoms: C_18  and  C_19
REMARK                            x       y       z     vdW  Elec       q    Type
REMARK                         _______ _______ _______ _____ _____    ______ ____
ROOT
ATOM      1  C   UNL     1       2.327   7.588  19.201  0.00  0.00    +0.000 A 
ATOM      2  C   UNL     1       2.241   8.303  17.994  0.00  0.00    +0.000 A 
ATOM      3  C   UNL     1       1.625   9.553  17.928  0.00  0.00    +0.000 A 
ATOM      4  C   UNL     1       1.000  10.082  19.051  0.00  0.00    +0.000 A 
ATOM      5  C   UNL     1       0.969   9.338  20.235  0.00  0.00    +0.000 A 
ATOM      6  C   UNL     1       1.654   8.111  20.318  0.00  0.00    +0.000 A 
ENDROOT
BRANCH   5   7
ATOM      7  N   UNL     1       0.236   9.820  21.348  0.00  0.00    +0.000 N 
ATOM      8  N   UNL     1      -0.005   9.052  22.445  0.00  0.00    +0.000 NA
ATOM      9  C   UNL     1      -0.692   9.891  23.222  0.00  0.00    +0.000 A 
ATOM     10  C   UNL     1      -0.872  11.130  22.575  0.00  0.00    +0.000 A 
ATOM     11  N   UNL     1      -0.252  11.083  21.389  0.00  0.00    +0.000 NA
BRANCH  10  12
ATOM     12  C   UNL     1      -1.625  12.296  23.011  0.00  0.00    +0.000 A 
ATOM     13  C   UNL     1      -2.969  12.196  23.395  0.00  0.00    +0.000 A 
ATOM     14  C   UNL     1      -3.685  13.340  23.758  0.00  0.00    +0.000 A 
ATOM     15  C   UNL     1      -3.064  14.588  23.736  0.00  0.00    +0.000 A 
ATOM     16  C   UNL     1      -1.726  14.698  23.368  0.00  0.00    +0.000 A 
ATOM     17  C   UNL     1      -1.007  13.557  23.012  0.00  0.00    +0.000 A 
ENDBRANCH  10  12
ENDBRANCH   5   7
BRANCH   1  19
ATOM     18  C   UNL     1       3.587   5.809  17.862  0.00  0.00    +0.000 C 
ATOM     19  C   UNL     1       3.168   6.319  19.252  0.00  0.00    +0.000 C 
BRANCH  19  20
ATOM     20  S   UNL     1       2.282   4.910  20.019  0.00  0.00    +0.000 S 
BRANCH  20  21
ATOM     21  C   UNL     1       2.424   3.590  18.913  0.00  0.00    +0.000 A 
ATOM     22  N   UNL     1       1.660   3.286  17.890  0.00  0.00    +0.000 NA
ATOM     23  N   UNL     1       2.184   2.154  17.297  0.00  0.00    +0.000 NA
ATOM     24  C   UNL     1       3.227   1.783  18.005  0.00  0.00    +0.000 A 
ATOM     25  N   UNL     1       3.394   2.637  19.051  0.00  0.00    +0.000 N 
ATOM     26  C   UNL     1       4.374   2.516  20.095  0.00  0.00    +0.000 C 
ENDBRANCH  20  21
ENDBRANCH  19  20
ENDBRANCH   1  19
TORSDOF 5
ENDMDL
MODEL 4
REMARK VINA RESULT:      -7.8      1.124      1.240
REMARK  Name = 
REMARK  7 active torsions:
REMARK  status: ('A' for Active; 'I' for Inactive)
REMARK    1  A    between atoms: C_1  and  C_2
REMARK    2  A    between atoms: C_2  and  S_3
REMARK    3  A    between atoms: C_2  and  C_10
REMARK    4  A    between atoms: S_3  and  C_4
REMARK    5  A    between atoms: N_8  and  C_9
REMARK    6  A    between atoms: C_14  and  N_15
REMARK    7  A    between atoms: C_18  and  C_19
REMARK                            x       y       z     vdW  Elec       q    Type
REMARK                         _______ _______ _______ _____ _____    ______ ____
ROOT
ATOM      1  C   UNL     1       2.257   7.617  19.152  0.00  0.00    +0.000 A 
ATOM      2  C   UNL     1       2.186   8.361  17.962  0.00  0.00    +0.000 A 
ATOM      3  C   UNL     1       1.601   9.628  17.926  0.00  0.00    +0.000 A 
ATOM      4  C   UNL     1       0.994  10.146  19.064  0.00  0.00    +0.000 A 
ATOM      5  C   UNL     1       0.948   9.377  20.230  0.00  0.00    +0.000 A 
ATOM      6  C   UNL     1       1.601   8.131  20.283  0.00  0.00    +0.000 A 
ENDROOT
BRANCH   5   7
ATOM      7  N   UNL     1       0.232   9.851  21.357  0.00  0.00    +0.000 N 
ATOM      8  N   UNL     1       0.034   9.088  22.465  0.00  0.00    +0.000 NA
ATOM      9  C   UNL     1      -0.653   9.918  23.252  0.00  0.00    +0.000 A 
ATOM     10  C   UNL     1      -0.876  11.147  22.600  0.00  0.00    +0.000 A 
ATOM     11  N   UNL     1      -0.283  11.104  21.400  0.00  0.00    +0.000 NA
BRANCH  10  12
ATOM     12  C   UNL     1      -1.645  12.299  23.046  0.00  0.00    +0.000 A 
ATOM     13  C   UNL     1      -1.072  13.575  23.122  0.00  0.00    +0.000 A 
ATOM     14  C   UNL     1      -1.817  14.654  23.606  0.00  0.00    +0.000 A 
ATOM     15  C   UNL     1      -3.135  14.463  24.017  0.00  0.00    +0.000 A 
ATOM     16  C   UNL     1      -3.719  13.203  23.935  0.00  0.00    +0.000 A 
ATOM     17  C   UNL     1      -2.979  12.124  23.446  0.00  0.00    +0.000 A 
ENDBRANCH  10  12
ENDBRANCH   5   7
BRANCH   1  19
ATOM     18  C   UNL     1       3.208   5.676  17.783  0.00  0.00    +0.000 C 
ATOM     19  C   UNL     1       3.066   6.326  19.170  0.00  0.00    +0.000 C 
BRANCH  19  20
ATOM     20  S   UNL     1       2.308   5.028  20.219  0.00  0.00    +0.000 S 
BRANCH  20  21
ATOM     21  C   UNL     1       3.028   3.534  19.734  0.00  0.00    +0.000 A 
ATOM     22  N   UNL     1       4.278   3.150  19.836  0.00  0.00    +0.000 NA
ATOM     23  N   UNL     1       4.366   1.868  19.329  0.00  0.00    +0.000 NA
ATOM     24  C   UNL     1       3.172   1.530  18.897  0.00  0.00    +0.000 A 
ATOM     25  N   UNL     1       2.307   2.561  19.100  0.00  0.00    +0.000 N 
ATOM     26  C   UNL     1       0.931   2.605  18.687  0.00  0.00    +0.000 C 
ENDBRANCH  20  21
ENDBRANCH  19  20
ENDBRANCH   1  19
TORSDOF 5
ENDMDL
MODEL 5
REMARK VINA RESULT:      -7.8      4.222      6.165
REMARK  Name = 
REMARK  7 active torsions:
REMARK  status: ('A' for Active; 'I' for Inactive)
REMARK    1  A    between atoms: C_1  and  C_2
REMARK    2  A    between atoms: C_2  and  S_3
REMARK    3  A    between atoms: C_2  and  C_10
REMARK    4  A    between atoms: S_3  and  C_4
REMARK    5  A    between atoms: N_8  and  C_9
REMARK    6  A    between atoms: C_14  and  N_15
REMARK    7  A    between atoms: C_18  and  C_19
REMARK                            x       y       z     vdW  Elec       q    Type
REMARK                         _______ _______ _______ _____ _____    ______ ____
ROOT
ATOM      1  C   UNL     1       5.055   4.750  17.442  0.00  0.00    +0.000 A 
ATOM      2  C   UNL     1       4.236   3.609  17.479  0.00  0.00    +0.000 A 
ATOM      3  C   UNL     1       2.854   3.707  17.646  0.00  0.00    +0.000 A 
ATOM      4  C   UNL     1       2.266   4.947  17.869  0.00  0.00    +0.000 A 
ATOM      5  C   UNL     1       3.073   6.085  17.954  0.00  0.00    +0.000 A 
ATOM      6  C   UNL     1       4.457   5.992  17.713  0.00  0.00    +0.000 A 
ENDROOT
BRANCH   5   7
ATOM      7  N   UNL     1       2.494   7.333  18.294  0.00  0.00    +0.000 N 
ATOM      8  N   UNL     1       2.573   8.417  17.476  0.00  0.00    +0.000 NA
ATOM      9  C   UNL     1       1.897   9.335  18.169  0.00  0.00    +0.000 A 
ATOM     10  C   UNL     1       1.447   8.799  19.393  0.00  0.00    +0.000 A 
ATOM     11  N   UNL     1       1.811   7.512  19.451  0.00  0.00    +0.000 NA
BRANCH  10  12
ATOM     12  C   UNL     1       0.751   9.460  20.486  0.00  0.00    +0.000 A 
ATOM     13  C   UNL     1       0.641  10.855  20.546  0.00  0.00    +0.000 A 
ATOM     14  C   UNL     1       0.014  11.466  21.636  0.00  0.00    +0.000 A 
ATOM     15  C   UNL     1      -0.501  10.687  22.671  0.00  0.00    +0.000 A 
ATOM     16  C   UNL     1      -0.408   9.300  22.617  0.00  0.00    +0.000 A 
ATOM     17  C   UNL     1       0.212   8.687  21.527  0.00  0.00    +0.000 A 
ENDBRANCH  10  12
ENDBRANCH   5   7
BRANCH   1  19
ATOM     18  C   UNL     1       7.484   4.999  18.210  0.00  0.00    +0.000 C 
ATOM     19  C   UNL     1       6.526   4.594  17.076  0.00  0.00    +0.000 C 
BRANCH  19  20
ATOM     20  S   UNL     1       7.018   5.638  15.653  0.00  0.00    +0.000 S 
BRANCH  20  21
ATOM     21  C   UNL     1       6.718   4.696  14.236  0.00  0.00    +0.000 A 
ATOM     22  N   UNL     1       5.896   3.686  14.076  0.00  0.00    +0.000 NA
ATOM     23  N   UNL     1       5.991   3.271  12.762  0.00  0.00    +0.000 NA
ATOM     24  C   UNL     1       6.899   4.018  12.176  0.00  0.00    +0.000 A 
ATOM     25  N   UNL     1       7.407   4.905  13.074  0.00  0.00    +0.000 N 
ATOM     26  C   UNL     1       8.478   5.834  12.834  0.00  0.00    +0.000 C 
ENDBRANCH  20  21
ENDBRANCH  19  20
ENDBRANCH   1  19
TORSDOF 5
ENDMDL
MODEL 6
REMARK VINA RESULT:      -7.7      3.546      8.853
REMARK  Name = 
REMARK  7 active torsions:
REMARK  status: ('A' for Active; 'I' for Inactive)
REMARK    1  A    between atoms: C_1  and  C_2
REMARK    2  A    between atoms: C_2  and  S_3
REMARK    3  A    between atoms: C_2  and  C_10
REMARK    4  A    between atoms: S_3  and  C_4
REMARK    5  A    between atoms: N_8  and  C_9
REMARK    6  A    between atoms: C_14  and  N_15
REMARK    7  A    between atoms: C_18  and  C_19
REMARK                            x       y       z     vdW  Elec       q    Type
REMARK                         _______ _______ _______ _____ _____    ______ ____
ROOT
ATOM      1  C   UNL     1      -0.013  10.726  20.416  0.00  0.00    +0.000 A 
ATOM      2  C   UNL     1      -0.260  10.738  21.799  0.00  0.00    +0.000 A 
ATOM      3  C   UNL     1       0.262   9.756  22.643  0.00  0.00    +0.000 A 
ATOM      4  C   UNL     1       0.972   8.686  22.110  0.00  0.00    +0.000 A 
ATOM      5  C   UNL     1       1.132   8.588  20.725  0.00  0.00    +0.000 A 
ATOM      6  C   UNL     1       0.667   9.618  19.884  0.00  0.00    +0.000 A 
ENDROOT
BRANCH   5   7
ATOM      7  N   UNL     1       1.754   7.443  20.168  0.00  0.00    +0.000 N 
ATOM      8  N   UNL     1       1.701   6.224  20.769  0.00  0.00    +0.000 NA
ATOM      9  C   UNL     1       2.387   5.466  19.912  0.00  0.00    +0.000 A 
ATOM     10  C   UNL     1       2.857   6.240  18.832  0.00  0.00    +0.000 A 
ATOM     11  N   UNL     1       2.425   7.497  18.991  0.00  0.00    +0.000 NA
BRANCH  10  12
ATOM     12  C   UNL     1       3.711   5.848  17.722  0.00  0.00    +0.000 A 
ATOM     13  C   UNL     1       3.936   4.500  17.412  0.00  0.00    +0.000 A 
ATOM     14  C   UNL     1       4.805   4.150  16.374  0.00  0.00    +0.000 A 
ATOM     15  C   UNL     1       5.454   5.144  15.644  0.00  0.00    +0.000 A 
ATOM     16  C   UNL     1       5.230   6.487  15.933  0.00  0.00    +0.000 A 
ATOM     17  C   UNL     1       4.358   6.839  16.965  0.00  0.00    +0.000 A 
ENDBRANCH  10  12
ENDBRANCH   5   7
BRANCH   1  19
ATOM     18  C   UNL     1       0.080  13.264  20.100  0.00  0.00    +0.000 C 
ATOM     19  C   UNL     1      -0.452  11.919  19.576  0.00  0.00    +0.000 C 
BRANCH  19  20
ATOM     20  S   UNL     1      -2.273  12.122  19.529  0.00  0.00    +0.000 S 
BRANCH  20  21
ATOM     21  C   UNL     1      -2.776  11.609  17.958  0.00  0.00    +0.000 A 
ATOM     22  N   UNL     1      -2.040  11.250  16.933  0.00  0.00    +0.000 NA
ATOM     23  N   UNL     1      -2.895  10.906  15.903  0.00  0.00    +0.000 NA
ATOM     24  C   UNL     1      -4.123  11.106  16.324  0.00  0.00    +0.000 A 
ATOM     25  N   UNL     1      -4.095  11.582  17.598  0.00  0.00    +0.000 N 
ATOM     26  C   UNL     1      -5.232  11.999  18.372  0.00  0.00    +0.000 C 
ENDBRANCH  20  21
ENDBRANCH  19  20
ENDBRANCH   1  19
TORSDOF 5
ENDMDL
MODEL 7
REMARK VINA RESULT:      -7.7      3.683      5.634
REMARK  Name = 
REMARK  7 active torsions:
REMARK  status: ('A' for Active; 'I' for Inactive)
REMARK    1  A    between atoms: C_1  and  C_2
REMARK    2  A    between atoms: C_2  and  S_3
REMARK    3  A    between atoms: C_2  and  C_10
REMARK    4  A    between atoms: S_3  and  C_4
REMARK    5  A    between atoms: N_8  and  C_9
REMARK    6  A    between atoms: C_14  and  N_15
REMARK    7  A    between atoms: C_18  and  C_19
REMARK                            x       y       z     vdW  Elec       q    Type
REMARK                         _______ _______ _______ _____ _____    ______ ____
ROOT
ATOM      1  C   UNL     1       4.515   5.192  16.550  0.00  0.00    +0.000 A 
ATOM      2  C   UNL     1       4.115   3.894  16.912  0.00  0.00    +0.000 A 
ATOM      3  C   UNL     1       3.053   3.676  17.792  0.00  0.00    +0.000 A 
ATOM      4  C   UNL     1       2.420   4.753  18.400  0.00  0.00    +0.000 A 
ATOM      5  C   UNL     1       2.875   6.050  18.147  0.00  0.00    +0.000 A 
ATOM      6  C   UNL     1       3.898   6.271  17.205  0.00  0.00    +0.000 A 
ENDROOT
BRANCH   5   7
ATOM      7  N   UNL     1       2.310   7.143  18.850  0.00  0.00    +0.000 N 
ATOM      8  N   UNL     1       2.022   7.081  20.178  0.00  0.00    +0.000 NA
ATOM      9  C   UNL     1       1.538   8.302  20.412  0.00  0.00    +0.000 A 
ATOM     10  C   UNL     1       1.521   9.063  19.226  0.00  0.00    +0.000 A 
ATOM     11  N   UNL     1       2.042   8.323  18.239  0.00  0.00    +0.000 NA
BRANCH  10  12
ATOM     12  C   UNL     1       1.002  10.403  19.000  0.00  0.00    +0.000 A 
ATOM     13  C   UNL     1      -0.364  10.690  19.127  0.00  0.00    +0.000 A 
ATOM     14  C   UNL     1      -0.843  11.973  18.850  0.00  0.00    +0.000 A 
ATOM     15  C   UNL     1       0.038  12.974  18.444  0.00  0.00    +0.000 A 
ATOM     16  C   UNL     1       1.398  12.706  18.327  0.00  0.00    +0.000 A 
ATOM     17  C   UNL     1       1.881  11.426  18.608  0.00  0.00    +0.000 A 
ENDBRANCH  10  12
ENDBRANCH   5   7
BRANCH   1  19
ATOM     18  C   UNL     1       5.256   4.533  14.191  0.00  0.00    +0.000 C 
ATOM     19  C   UNL     1       5.555   5.365  15.450  0.00  0.00    +0.000 C 
BRANCH  19  20
ATOM     20  S   UNL     1       7.232   4.841  15.970  0.00  0.00    +0.000 S 
BRANCH  20  21
ATOM     21  C   UNL     1       7.358   5.220  17.650  0.00  0.00    +0.000 A 
ATOM     22  N   UNL     1       7.213   4.428  18.687  0.00  0.00    +0.000 NA
ATOM     23  N   UNL     1       7.426   5.183  19.824  0.00  0.00    +0.000 NA
ATOM     24  C   UNL     1       7.652   6.419  19.443  0.00  0.00    +0.000 A 
ATOM     25  N   UNL     1       7.584   6.496  18.086  0.00  0.00    +0.000 N 
ATOM     26  C   UNL     1       7.694   7.693  17.298  0.00  0.00    +0.000 C 
ENDBRANCH  20  21
ENDBRANCH  19  20
ENDBRANCH   1  19
TORSDOF 5
ENDMDL
MODEL 8
REMARK VINA RESULT:      -7.6      1.062      1.641
REMARK  Name = 
REMARK  7 active torsions:
REMARK  status: ('A' for Active; 'I' for Inactive)
REMARK    1  A    between atoms: C_1  and  C_2
REMARK    2  A    between atoms: C_2  and  S_3
REMARK    3  A    between atoms: C_2  and  C_10
REMARK    4  A    between atoms: S_3  and  C_4
REMARK    5  A    between atoms: N_8  and  C_9
REMARK    6  A    between atoms: C_14  and  N_15
REMARK    7  A    between atoms: C_18  and  C_19
REMARK                            x       y       z     vdW  Elec       q    Type
REMARK                         _______ _______ _______ _____ _____    ______ ____
ROOT
ATOM      1  C   UNL     1       2.296   7.799  18.838  0.00  0.00    +0.000 A 
ATOM      2  C   UNL     1       2.186   8.616  17.700  0.00  0.00    +0.000 A 
ATOM      3  C   UNL     1       1.582   9.873  17.758  0.00  0.00    +0.000 A 
ATOM      4  C   UNL     1       0.994  10.308  18.940  0.00  0.00    +0.000 A 
ATOM      5  C   UNL     1       0.986   9.465  20.055  0.00  0.00    +0.000 A 
ATOM      6  C   UNL     1       1.659   8.229  20.014  0.00  0.00    +0.000 A 
ENDROOT
BRANCH   5   7
ATOM      7  N   UNL     1       0.288   9.855  21.226  0.00  0.00    +0.000 N 
ATOM      8  N   UNL     1       0.140   9.024  22.292  0.00  0.00    +0.000 NA
ATOM      9  C   UNL     1      -0.546   9.790  23.143  0.00  0.00    +0.000 A 
ATOM     10  C   UNL     1      -0.817  11.048  22.570  0.00  0.00    +0.000 A 
ATOM     11  N   UNL     1      -0.256  11.090  21.354  0.00  0.00    +0.000 NA
BRANCH  10  12
ATOM     12  C   UNL     1      -1.602  12.152  23.101  0.00  0.00    +0.000 A 
ATOM     13  C   UNL     1      -2.923  11.970  23.528  0.00  0.00    +0.000 A 
ATOM     14  C   UNL     1      -3.673  13.059  23.983  0.00  0.00    +0.000 A 
ATOM     15  C   UNL     1      -3.106  14.333  24.010  0.00  0.00    +0.000 A 
ATOM     16  C   UNL     1      -1.791  14.524  23.600  0.00  0.00    +0.000 A 
ATOM     17  C   UNL     1      -1.038  13.437  23.151  0.00  0.00    +0.000 A 
ENDBRANCH  10  12
ENDBRANCH   5   7
BRANCH   1  19
ATOM     18  C   UNL     1       4.230   6.580  17.688  0.00  0.00    +0.000 C 
ATOM     19  C   UNL     1       3.123   6.522  18.755  0.00  0.00    +0.000 C 
BRANCH  19  20
ATOM     20  S   UNL     1       2.122   5.054  18.311  0.00  0.00    +0.000 S 
BRANCH  20  21
ATOM     21  C   UNL     1       2.942   3.689  18.980  0.00  0.00    +0.000 A 
ATOM     22  N   UNL     1       3.654   2.774  18.368  0.00  0.00    +0.000 NA
ATOM     23  N   UNL     1       4.125   1.896  19.326  0.00  0.00    +0.000 NA
ATOM     24  C   UNL     1       3.647   2.285  20.486  0.00  0.00    +0.000 A 
ATOM     25  N   UNL     1       2.870   3.388  20.312  0.00  0.00    +0.000 N 
ATOM     26  C   UNL     1       2.108   4.057  21.331  0.00  0.00    +0.000 C 
ENDBRANCH  20  21
ENDBRANCH  19  20
ENDBRANCH   1  19
TORSDOF 5
ENDMDL
MODEL 9
REMARK VINA RESULT:      -7.6      3.524     10.149
REMARK  Name = 
REMARK  7 active torsions:
REMARK  status: ('A' for Active; 'I' for Inactive)
REMARK    1  A    between atoms: C_1  and  C_2
REMARK    2  A    between atoms: C_2  and  S_3
REMARK    3  A    between atoms: C_2  and  C_10
REMARK    4  A    between atoms: S_3  and  C_4
REMARK    5  A    between atoms: N_8  and  C_9
REMARK    6  A    between atoms: C_14  and  N_15
REMARK    7  A    between atoms: C_18  and  C_19
REMARK                            x       y       z     vdW  Elec       q    Type
REMARK                         _______ _______ _______ _____ _____    ______ ____
ROOT
ATOM      1  C   UNL     1       2.292   6.525  19.991  0.00  0.00    +0.000 A 
ATOM      2  C   UNL     1       1.632   5.394  20.502  0.00  0.00    +0.000 A 
ATOM      3  C   UNL     1       2.133   4.106  20.309  0.00  0.00    +0.000 A 
ATOM      4  C   UNL     1       3.264   3.909  19.525  0.00  0.00    +0.000 A 
ATOM      5  C   UNL     1       3.872   5.006  18.908  0.00  0.00    +0.000 A 
ATOM      6  C   UNL     1       3.407   6.310  19.164  0.00  0.00    +0.000 A 
ENDROOT
BRANCH   5   7
ATOM      7  N   UNL     1       4.955   4.800  18.017  0.00  0.00    +0.000 N 
ATOM      8  N   UNL     1       6.240   4.695  18.448  0.00  0.00    +0.000 NA
ATOM      9  C   UNL     1       6.898   4.497  17.304  0.00  0.00    +0.000 A 
ATOM     10  C   UNL     1       6.008   4.511  16.212  0.00  0.00    +0.000 A 
ATOM     11  N   UNL     1       4.765   4.679  16.680  0.00  0.00    +0.000 NA
BRANCH  10  12
ATOM     12  C   UNL     1       6.296   4.422  14.789  0.00  0.00    +0.000 A 
ATOM     13  C   UNL     1       5.558   3.581  13.945  0.00  0.00    +0.000 A 
ATOM     14  C   UNL     1       5.891   3.473  12.592  0.00  0.00    +0.000 A 
ATOM     15  C   UNL     1       6.963   4.200  12.077  0.00  0.00    +0.000 A 
ATOM     16  C   UNL     1       7.696   5.048  12.902  0.00  0.00    +0.000 A 
ATOM     17  C   UNL     1       7.361   5.163  14.252  0.00  0.00    +0.000 A 
ENDBRANCH  10  12
ENDBRANCH   5   7
BRANCH   1  19
ATOM     18  C   UNL     1       0.458   7.890  21.139  0.00  0.00    +0.000 C 
ATOM     19  C   UNL     1       1.800   7.911  20.387  0.00  0.00    +0.000 C 
BRANCH  19  20
ATOM     20  S   UNL     1       1.509   9.000  18.942  0.00  0.00    +0.000 S 
BRANCH  20  21
ATOM     21  C   UNL     1       0.732  10.416  19.554  0.00  0.00    +0.000 A 
ATOM     22  N   UNL     1       1.110  11.208  20.530  0.00  0.00    +0.000 NA
ATOM     23  N   UNL     1       0.173  12.218  20.638  0.00  0.00    +0.000 NA
ATOM     24  C   UNL     1      -0.766  11.984  19.749  0.00  0.00    +0.000 A 
ATOM     25  N   UNL     1      -0.474  10.842  19.069  0.00  0.00    +0.000 N 
ATOM     26  C   UNL     1      -1.300  10.213  18.075  0.00  0.00    +0.000 C 
ENDBRANCH  20  21
ENDBRANCH  19  20
ENDBRANCH   1  19
TORSDOF 5
ENDMDL
