MODEL 1
REMARK VINA RESULT:      -8.8      0.000      0.000
REMARK  Name = 
REMARK  8 active torsions:
REMARK  status: ('A' for Active; 'I' for Inactive)
REMARK    1  A    between atoms: C_1  and  C_2
REMARK    2  A    between atoms: C_8  and  C_9
REMARK    3  A    between atoms: N_11  and  C_12
REMARK    4  A    between atoms: C_16  and  C_17
REMARK    5  A    between atoms: C_17  and  C_18
REMARK    6  A    between atoms: C_17  and  S_19
REMARK    7  A    between atoms: S_19  and  C_20
REMARK    8  A    between atoms: N_24  and  C_25
REMARK                            x       y       z     vdW  Elec       q    Type
REMARK                         _______ _______ _______ _____ _____    ______ ____
ROOT
ATOM      1  C   UNL     1       7.906   8.039  18.150  0.00  0.00    +0.000 C 
ATOM      2  O   UNL     1       8.474   7.169  18.807  0.00  0.00    +0.000 OA
ATOM      3  N   UNL     1       6.857   7.845  17.259  0.00  0.00    +0.000 N 
ATOM      4  H   UNL     1       6.608   8.653  16.696  0.00  0.00    +0.000 HD
ENDROOT
BRANCH   1  12
ATOM      5  C   UNL     1       9.296  14.519  17.847  0.00  0.00    +0.000 C 
ATOM      6  C   UNL     1       9.834  13.350  18.632  0.00  0.00    +0.000 A 
ATOM      7  C   UNL     1      10.856  13.579  19.562  0.00  0.00    +0.000 A 
ATOM      8  C   UNL     1      11.365  12.528  20.315  0.00  0.00    +0.000 A 
ATOM      9  C   UNL     1      10.849  11.241  20.155  0.00  0.00    +0.000 A 
ATOM     10  C   UNL     1       9.834  10.965  19.253  0.00  0.00    +0.000 A 
ATOM     11  N   UNL     1       9.382   9.697  19.167  0.00  0.00    +0.000 NA
ATOM     12  C   UNL     1       8.410   9.445  18.254  0.00  0.00    +0.000 A 
ATOM     13  C   UNL     1       7.859  10.412  17.425  0.00  0.00    +0.000 A 
ATOM     14  C   UNL     1       8.317  11.715  17.541  0.00  0.00    +0.000 A 
ATOM     15  C   UNL     1       9.325  12.034  18.467  0.00  0.00    +0.000 A 
ENDBRANCH   1  12
BRANCH   3  16
ATOM     16  C   UNL     1       6.229   6.605  16.989  0.00  0.00    +0.000 A 
ATOM     17  C   UNL     1       6.852   5.613  16.228  0.00  0.00    +0.000 A 
ATOM     18  C   UNL     1       6.204   4.414  15.950  0.00  0.00    +0.000 A 
ATOM     19  C   UNL     1       4.908   4.196  16.409  0.00  0.00    +0.000 A 
ATOM     20  C   UNL     1       4.242   5.166  17.176  0.00  0.00    +0.000 A 
ATOM     21  C   UNL     1       4.938   6.360  17.489  0.00  0.00    +0.000 A 
BRANCH  20  22
ATOM     22  C   UNL     1       2.781   4.981  17.603  0.00  0.00    +0.000 C 
ATOM     23  C   UNL     1       2.452   5.637  18.953  0.00  0.00    +0.000 C 
BRANCH  22  24
ATOM     24  S   UNL     1       2.393   3.174  17.690  0.00  0.00    +0.000 S 
BRANCH  24  25
ATOM     25  C   UNL     1       2.132   2.948  19.384  0.00  0.00    +0.000 A 
ATOM     26  N   UNL     1       0.984   3.035  20.019  0.00  0.00    +0.000 NA
ATOM     27  N   UNL     1       1.226   2.815  21.358  0.00  0.00    +0.000 NA
ATOM     28  C   UNL     1       2.513   2.589  21.498  0.00  0.00    +0.000 A 
ATOM     29  N   UNL     1       3.123   2.654  20.280  0.00  0.00    +0.000 N 
ATOM     30  C   UNL     1       4.528   2.453  20.041  0.00  0.00    +0.000 C 
ENDBRANCH  24  25
ENDBRANCH  22  24
ENDBRANCH  20  22
ENDBRANCH   3  16
TORSDOF 5
ENDMDL
MODEL 2
REMARK VINA RESULT:      -8.6      0.718      1.153
REMARK  Name = 
REMARK  8 active torsions:
REMARK  status: ('A' for Active; 'I' for Inactive)
REMARK    1  A    between atoms: C_1  and  C_2
REMARK    2  A    between atoms: C_8  and  C_9
REMARK    3  A    between atoms: N_11  and  C_12
REMARK    4  A    between atoms: C_16  and  C_17
REMARK    5  A    between atoms: C_17  and  C_18
REMARK    6  A    between atoms: C_17  and  S_19
REMARK    7  A    between atoms: S_19  and  C_20
REMARK    8  A    between atoms: N_24  and  C_25
REMARK                            x       y       z     vdW  Elec       q    Type
REMARK                         _______ _______ _______ _____ _____    ______ ____
ROOT
ATOM      1  C   UNL     1       8.093   8.075  18.179  0.00  0.00    +0.000 C 
ATOM      2  O   UNL     1       8.640   7.245  18.903  0.00  0.00    +0.000 OA
ATOM      3  N   UNL     1       7.163   7.811  17.181  0.00  0.00    +0.000 N 
ATOM      4  H   UNL     1       6.926   8.599  16.586  0.00  0.00    +0.000 HD
ENDROOT
BRANCH   1  12
ATOM      5  C   UNL     1       9.047  14.638  18.008  0.00  0.00    +0.000 C 
ATOM      6  C   UNL     1       9.613  13.501  18.819  0.00  0.00    +0.000 A 
ATOM      7  C   UNL     1      10.553  13.790  19.817  0.00  0.00    +0.000 A 
ATOM      8  C   UNL     1      11.084  12.768  20.595  0.00  0.00    +0.000 A 
ATOM      9  C   UNL     1      10.670  11.450  20.393  0.00  0.00    +0.000 A 
ATOM     10  C   UNL     1       9.738  11.115  19.425  0.00  0.00    +0.000 A 
ATOM     11  N   UNL     1       9.382   9.820  19.302  0.00  0.00    +0.000 NA
ATOM     12  C   UNL     1       8.491   9.511  18.325  0.00  0.00    +0.000 A 
ATOM     13  C   UNL     1       7.930  10.447  17.468  0.00  0.00    +0.000 A 
ATOM     14  C   UNL     1       8.287  11.778  17.621  0.00  0.00    +0.000 A 
ATOM     15  C   UNL     1       9.208  12.154  18.613  0.00  0.00    +0.000 A 
ENDBRANCH   1  12
BRANCH   3  16
ATOM     16  C   UNL     1       6.651   6.532  16.855  0.00  0.00    +0.000 A 
ATOM     17  C   UNL     1       7.280   5.700  15.927  0.00  0.00    +0.000 A 
ATOM     18  C   UNL     1       6.742   4.459  15.601  0.00  0.00    +0.000 A 
ATOM     19  C   UNL     1       5.548   4.040  16.180  0.00  0.00    +0.000 A 
ATOM     20  C   UNL     1       4.879   4.845  17.117  0.00  0.00    +0.000 A 
ATOM     21  C   UNL     1       5.470   6.082  17.472  0.00  0.00    +0.000 A 
BRANCH  20  22
ATOM     22  C   UNL     1       3.515   4.440  17.687  0.00  0.00    +0.000 C 
ATOM     23  C   UNL     1       3.105   5.254  18.925  0.00  0.00    +0.000 C 
BRANCH  22  24
ATOM     24  S   UNL     1       3.541   2.641  18.120  0.00  0.00    +0.000 S 
BRANCH  24  25
ATOM     25  C   UNL     1       2.884   2.651  19.720  0.00  0.00    +0.000 A 
ATOM     26  N   UNL     1       3.562   2.680  20.845  0.00  0.00    +0.000 NA
ATOM     27  N   UNL     1       2.657   2.646  21.883  0.00  0.00    +0.000 NA
ATOM     28  C   UNL     1       1.452   2.611  21.359  0.00  0.00    +0.000 A 
ATOM     29  N   UNL     1       1.545   2.622  19.998  0.00  0.00    +0.000 N 
ATOM     30  C   UNL     1       0.432   2.598  19.088  0.00  0.00    +0.000 C 
ENDBRANCH  24  25
ENDBRANCH  22  24
ENDBRANCH  20  22
ENDBRANCH   3  16
TORSDOF 5
ENDMDL
MODEL 3
REMARK VINA RESULT:      -8.5      4.269      7.587
REMARK  Name = 
REMARK  8 active torsions:
REMARK  status: ('A' for Active; 'I' for Inactive)
REMARK    1  A    between atoms: C_1  and  C_2
REMARK    2  A    between atoms: C_8  and  C_9
REMARK    3  A    between atoms: N_11  and  C_12
REMARK    4  A    between atoms: C_16  and  C_17
REMARK    5  A    between atoms: C_17  and  C_18
REMARK    6  A    between atoms: C_17  and  S_19
REMARK    7  A    between atoms: S_19  and  C_20
REMARK    8  A    between atoms: N_24  and  C_25
REMARK                            x       y       z     vdW  Elec       q    Type
REMARK                         _______ _______ _______ _____ _____    ______ ____
ROOT
ATOM      1  C   UNL     1       2.215   7.903  18.396  0.00  0.00    +0.000 C 
ATOM      2  O   UNL     1       2.908   8.300  17.462  0.00  0.00    +0.000 OA
ATOM      3  N   UNL     1       2.010   6.579  18.764  0.00  0.00    +0.000 N 
ATOM      4  H   UNL     1       1.293   6.428  19.468  0.00  0.00    +0.000 HD
ENDROOT
BRANCH   1  12
ATOM      5  C   UNL     1      -1.130  13.028  20.958  0.00  0.00    +0.000 C 
ATOM      6  C   UNL     1      -0.682  11.685  21.474  0.00  0.00    +0.000 A 
ATOM      7  C   UNL     1      -1.019  11.321  22.784  0.00  0.00    +0.000 A 
ATOM      8  C   UNL     1      -0.636  10.084  23.288  0.00  0.00    +0.000 A 
ATOM      9  C   UNL     1       0.074   9.192  22.482  0.00  0.00    +0.000 A 
ATOM     10  C   UNL     1       0.424   9.502  21.178  0.00  0.00    +0.000 A 
ATOM     11  N   UNL     1       1.100   8.581  20.462  0.00  0.00    +0.000 NA
ATOM     12  C   UNL     1       1.461   8.919  19.198  0.00  0.00    +0.000 A 
ATOM     13  C   UNL     1       1.165  10.141  18.611  0.00  0.00    +0.000 A 
ATOM     14  C   UNL     1       0.449  11.070  19.351  0.00  0.00    +0.000 A 
ATOM     15  C   UNL     1       0.053  10.775  20.666  0.00  0.00    +0.000 A 
ENDBRANCH   1  12
BRANCH   3  16
ATOM     16  C   UNL     1       2.605   5.454  18.145  0.00  0.00    +0.000 A 
ATOM     17  C   UNL     1       2.119   4.160  18.342  0.00  0.00    +0.000 A 
ATOM     18  C   UNL     1       2.739   3.066  17.746  0.00  0.00    +0.000 A 
ATOM     19  C   UNL     1       3.874   3.247  16.961  0.00  0.00    +0.000 A 
ATOM     20  C   UNL     1       4.399   4.530  16.737  0.00  0.00    +0.000 A 
ATOM     21  C   UNL     1       3.724   5.635  17.312  0.00  0.00    +0.000 A 
BRANCH  20  22
ATOM     22  C   UNL     1       5.703   4.734  15.957  0.00  0.00    +0.000 C 
ATOM     23  C   UNL     1       5.852   3.784  14.758  0.00  0.00    +0.000 C 
BRANCH  22  24
ATOM     24  S   UNL     1       7.141   4.506  17.099  0.00  0.00    +0.000 S 
BRANCH  24  25
ATOM     25  C   UNL     1       7.536   6.141  17.503  0.00  0.00    +0.000 A 
ATOM     26  N   UNL     1       7.455   7.185  16.709  0.00  0.00    +0.000 NA
ATOM     27  N   UNL     1       7.892   8.285  17.415  0.00  0.00    +0.000 NA
ATOM     28  C   UNL     1       8.213   7.880  18.623  0.00  0.00    +0.000 A 
ATOM     29  N   UNL     1       7.997   6.537  18.728  0.00  0.00    +0.000 N 
ATOM     30  C   UNL     1       8.231   5.746  19.906  0.00  0.00    +0.000 C 
ENDBRANCH  24  25
ENDBRANCH  22  24
ENDBRANCH  20  22
ENDBRANCH   3  16
TORSDOF 5
ENDMDL
MODEL 4
REMARK VINA RESULT:      -8.3      5.282      8.450
REMARK  Name = 
REMARK  8 active torsions:
REMARK  status: ('A' for Active; 'I' for Inactive)
REMARK    1  A    between atoms: C_1  and  C_2
REMARK    2  A    between atoms: C_8  and  C_9
REMARK    3  A    between atoms: N_11  and  C_12
REMARK    4  A    between atoms: C_16  and  C_17
REMARK    5  A    between atoms: C_17  and  C_18
REMARK    6  A    between atoms: C_17  and  S_19
REMARK    7  A    between atoms: S_19  and  C_20
REMARK    8  A    between atoms: N_24  and  C_25
REMARK                            x       y       z     vdW  Elec       q    Type
REMARK                         _______ _______ _______ _____ _____    ______ ____
ROOT
ATOM      1  C   UNL     1       1.882   8.221  19.396  0.00  0.00    +0.000 C 
ATOM      2  O   UNL     1       2.351   8.567  18.314  0.00  0.00    +0.000 OA
ATOM      3  N   UNL     1       2.089   7.002  20.031  0.00  0.00    +0.000 N 
ATOM      4  H   UNL     1       1.508   6.832  20.847  0.00  0.00    +0.000 HD
ENDROOT
BRANCH   1  12
ATOM      5  C   UNL     1      -1.751  12.000  23.462  0.00  0.00    +0.000 C 
ATOM      6  C   UNL     1      -1.652  11.836  21.968  0.00  0.00    +0.000 A 
ATOM      7  C   UNL     1      -2.455  12.638  21.148  0.00  0.00    +0.000 A 
ATOM      8  C   UNL     1      -2.378  12.525  19.765  0.00  0.00    +0.000 A 
ATOM      9  C   UNL     1      -1.487  11.619  19.188  0.00  0.00    +0.000 A 
ATOM     10  C   UNL     1      -0.666  10.808  19.956  0.00  0.00    +0.000 A 
ATOM     11  N   UNL     1       0.176   9.968  19.320  0.00  0.00    +0.000 NA
ATOM     12  C   UNL     1       0.947   9.160  20.093  0.00  0.00    +0.000 A 
ATOM     13  C   UNL     1       0.921   9.164  21.480  0.00  0.00    +0.000 A 
ATOM     14  C   UNL     1       0.067  10.050  22.120  0.00  0.00    +0.000 A 
ATOM     15  C   UNL     1      -0.757  10.906  21.370  0.00  0.00    +0.000 A 
ENDBRANCH   1  12
BRANCH   3  16
ATOM     16  C   UNL     1       2.918   5.960  19.554  0.00  0.00    +0.000 A 
ATOM     17  C   UNL     1       2.975   4.715  20.184  0.00  0.00    +0.000 A 
ATOM     18  C   UNL     1       3.820   3.715  19.715  0.00  0.00    +0.000 A 
ATOM     19  C   UNL     1       4.645   3.952  18.618  0.00  0.00    +0.000 A 
ATOM     20  C   UNL     1       4.622   5.190  17.954  0.00  0.00    +0.000 A 
ATOM     21  C   UNL     1       3.719   6.177  18.418  0.00  0.00    +0.000 A 
BRANCH  20  22
ATOM     22  C   UNL     1       5.594   5.499  16.809  0.00  0.00    +0.000 C 
ATOM     23  C   UNL     1       5.151   6.682  15.935  0.00  0.00    +0.000 C 
BRANCH  22  24
ATOM     24  S   UNL     1       5.791   3.995  15.750  0.00  0.00    +0.000 S 
BRANCH  24  25
ATOM     25  C   UNL     1       6.801   4.586  14.477  0.00  0.00    +0.000 A 
ATOM     26  N   UNL     1       7.805   5.426  14.600  0.00  0.00    +0.000 NA
ATOM     27  N   UNL     1       8.317   5.655  13.341  0.00  0.00    +0.000 NA
ATOM     28  C   UNL     1       7.618   4.938  12.490  0.00  0.00    +0.000 A 
ATOM     29  N   UNL     1       6.657   4.240  13.162  0.00  0.00    +0.000 N 
ATOM     30  C   UNL     1       5.706   3.344  12.561  0.00  0.00    +0.000 C 
ENDBRANCH  24  25
ENDBRANCH  22  24
ENDBRANCH  20  22
ENDBRANCH   3  16
TORSDOF 5
ENDMDL
MODEL 5
REMARK VINA RESULT:      -8.1      4.500      7.355
REMARK  Name = 
REMARK  8 active torsions:
REMARK  status: ('A' for Active; 'I' for Inactive)
REMARK    1  A    between atoms: C_1  and  C_2
REMARK    2  A    between atoms: C_8  and  C_9
REMARK    3  A    between atoms: N_11  and  C_12
REMARK    4  A    between atoms: C_16  and  C_17
REMARK    5  A    between atoms: C_17  and  C_18
REMARK    6  A    between atoms: C_17  and  S_19
REMARK    7  A    between atoms: S_19  and  C_20
REMARK    8  A    between atoms: N_24  and  C_25
REMARK                            x       y       z     vdW  Elec       q    Type
REMARK                         _______ _______ _______ _____ _____    ______ ____
ROOT
ATOM      1  C   UNL     1       2.181   8.171  18.310  0.00  0.00    +0.000 C 
ATOM      2  O   UNL     1       2.486   8.504  17.167  0.00  0.00    +0.000 OA
ATOM      3  N   UNL     1       2.373   6.920  18.882  0.00  0.00    +0.000 N 
ATOM      4  H   UNL     1       1.929   6.780  19.785  0.00  0.00    +0.000 HD
ENDROOT
BRANCH   1  12
ATOM      5  C   UNL     1      -0.798  13.333  21.225  0.00  0.00    +0.000 C 
ATOM      6  C   UNL     1      -0.529  11.902  21.613  0.00  0.00    +0.000 A 
ATOM      7  C   UNL     1      -0.995  11.441  22.850  0.00  0.00    +0.000 A 
ATOM      8  C   UNL     1      -0.779  10.123  23.234  0.00  0.00    +0.000 A 
ATOM      9  C   UNL     1      -0.107   9.249  22.377  0.00  0.00    +0.000 A 
ATOM     10  C   UNL     1       0.367   9.655  21.140  0.00  0.00    +0.000 A 
ATOM     11  N   UNL     1       0.994   8.745  20.367  0.00  0.00    +0.000 NA
ATOM     12  C   UNL     1       1.478   9.174  19.173  0.00  0.00    +0.000 A 
ATOM     13  C   UNL     1       1.352  10.476  18.711  0.00  0.00    +0.000 A 
ATOM     14  C   UNL     1       0.684  11.394  19.506  0.00  0.00    +0.000 A 
ATOM     15  C   UNL     1       0.166  11.007  20.754  0.00  0.00    +0.000 A 
ENDBRANCH   1  12
BRANCH   3  16
ATOM     16  C   UNL     1       3.000   5.818  18.252  0.00  0.00    +0.000 A 
ATOM     17  C   UNL     1       2.766   4.503  18.661  0.00  0.00    +0.000 A 
ATOM     18  C   UNL     1       3.416   3.438  18.046  0.00  0.00    +0.000 A 
ATOM     19  C   UNL     1       4.334   3.673  17.026  0.00  0.00    +0.000 A 
ATOM     20  C   UNL     1       4.602   4.979  16.584  0.00  0.00    +0.000 A 
ATOM     21  C   UNL     1       3.893   6.045  17.190  0.00  0.00    +0.000 A 
BRANCH  20  22
ATOM     22  C   UNL     1       5.682   5.259  15.532  0.00  0.00    +0.000 C 
ATOM     23  C   UNL     1       5.338   4.701  14.142  0.00  0.00    +0.000 C 
BRANCH  22  24
ATOM     24  S   UNL     1       7.290   4.541  16.099  0.00  0.00    +0.000 S 
BRANCH  24  25
ATOM     25  C   UNL     1       7.390   5.131  17.721  0.00  0.00    +0.000 A 
ATOM     26  N   UNL     1       7.307   4.416  18.821  0.00  0.00    +0.000 NA
ATOM     27  N   UNL     1       7.406   5.279  19.892  0.00  0.00    +0.000 NA
ATOM     28  C   UNL     1       7.558   6.493  19.412  0.00  0.00    +0.000 A 
ATOM     29  N   UNL     1       7.563   6.448  18.048  0.00  0.00    +0.000 N 
ATOM     30  C   UNL     1       7.715   7.584  17.179  0.00  0.00    +0.000 C 
ENDBRANCH  24  25
ENDBRANCH  22  24
ENDBRANCH  20  22
ENDBRANCH   3  16
TORSDOF 5
ENDMDL
MODEL 6
REMARK VINA RESULT:      -8.1      5.512      7.822
REMARK  Name = 
REMARK  8 active torsions:
REMARK  status: ('A' for Active; 'I' for Inactive)
REMARK    1  A    between atoms: C_1  and  C_2
REMARK    2  A    between atoms: C_8  and  C_9
REMARK    3  A    between atoms: N_11  and  C_12
REMARK    4  A    between atoms: C_16  and  C_17
REMARK    5  A    between atoms: C_17  and  C_18
REMARK    6  A    between atoms: C_17  and  S_19
REMARK    7  A    between atoms: S_19  and  C_20
REMARK    8  A    between atoms: N_24  and  C_25
REMARK                            x       y       z     vdW  Elec       q    Type
REMARK                         _______ _______ _______ _____ _____    ______ ____
ROOT
ATOM      1  C   UNL     1       2.412   7.670  18.437  0.00  0.00    +0.000 C 
ATOM      2  O   UNL     1       3.121   8.039  17.504  0.00  0.00    +0.000 OA
ATOM      3  N   UNL     1       2.192   6.356  18.834  0.00  0.00    +0.000 N 
ATOM      4  H   UNL     1       1.464   6.227  19.530  0.00  0.00    +0.000 HD
ENDROOT
BRANCH   1  12
ATOM      5  C   UNL     1      -0.903  12.893  20.833  0.00  0.00    +0.000 C 
ATOM      6  C   UNL     1      -0.510  11.543  21.374  0.00  0.00    +0.000 A 
ATOM      7  C   UNL     1      -0.906  11.197  22.672  0.00  0.00    +0.000 A 
ATOM      8  C   UNL     1      -0.575   9.955  23.198  0.00  0.00    +0.000 A 
ATOM      9  C   UNL     1       0.145   9.040  22.426  0.00  0.00    +0.000 A 
ATOM     10  C   UNL     1       0.554   9.332  21.135  0.00  0.00    +0.000 A 
ATOM     11  N   UNL     1       1.234   8.389  20.452  0.00  0.00    +0.000 NA
ATOM     12  C   UNL     1       1.652   8.710  19.201  0.00  0.00    +0.000 A 
ATOM     13  C   UNL     1       1.410   9.934  18.596  0.00  0.00    +0.000 A 
ATOM     14  C   UNL     1       0.689  10.886  19.301  0.00  0.00    +0.000 A 
ATOM     15  C   UNL     1       0.234  10.610  20.602  0.00  0.00    +0.000 A 
ENDBRANCH   1  12
BRANCH   3  16
ATOM     16  C   UNL     1       2.790   5.213  18.252  0.00  0.00    +0.000 A 
ATOM     17  C   UNL     1       2.148   3.973  18.234  0.00  0.00    +0.000 A 
ATOM     18  C   UNL     1       2.767   2.856  17.683  0.00  0.00    +0.000 A 
ATOM     19  C   UNL     1       4.053   2.956  17.160  0.00  0.00    +0.000 A 
ATOM     20  C   UNL     1       4.738   4.182  17.157  0.00  0.00    +0.000 A 
ATOM     21  C   UNL     1       4.070   5.318  17.679  0.00  0.00    +0.000 A 
BRANCH  20  22
ATOM     22  C   UNL     1       6.190   4.285  16.675  0.00  0.00    +0.000 C 
ATOM     23  C   UNL     1       7.186   4.598  17.802  0.00  0.00    +0.000 C 
BRANCH  22  24
ATOM     24  S   UNL     1       6.311   5.592  15.371  0.00  0.00    +0.000 S 
BRANCH  24  25
ATOM     25  C   UNL     1       6.375   4.646  13.925  0.00  0.00    +0.000 A 
ATOM     26  N   UNL     1       5.553   3.679  13.584  0.00  0.00    +0.000 NA
ATOM     27  N   UNL     1       5.978   3.171  12.376  0.00  0.00    +0.000 NA
ATOM     28  C   UNL     1       7.040   3.853  12.009  0.00  0.00    +0.000 A 
ATOM     29  N   UNL     1       7.323   4.799  12.951  0.00  0.00    +0.000 N 
ATOM     30  C   UNL     1       8.412   5.736  12.887  0.00  0.00    +0.000 C 
ENDBRANCH  24  25
ENDBRANCH  22  24
ENDBRANCH  20  22
ENDBRANCH   3  16
TORSDOF 5
ENDMDL
MODEL 7
REMARK VINA RESULT:      -8.1      6.878     11.153
REMARK  Name = 
REMARK  8 active torsions:
REMARK  status: ('A' for Active; 'I' for Inactive)
REMARK    1  A    between atoms: C_1  and  C_2
REMARK    2  A    between atoms: C_8  and  C_9
REMARK    3  A    between atoms: N_11  and  C_12
REMARK    4  A    between atoms: C_16  and  C_17
REMARK    5  A    between atoms: C_17  and  C_18
REMARK    6  A    between atoms: C_17  and  S_19
REMARK    7  A    between atoms: S_19  and  C_20
REMARK    8  A    between atoms: N_24  and  C_25
REMARK                            x       y       z     vdW  Elec       q    Type
REMARK                         _______ _______ _______ _____ _____    ______ ____
ROOT
ATOM      1  C   UNL     1       1.774   8.889  18.414  0.00  0.00    +0.000 C 
ATOM      2  O   UNL     1       2.335   9.282  17.394  0.00  0.00    +0.000 OA
ATOM      3  N   UNL     1       0.916   9.628  19.220  0.00  0.00    +0.000 N 
ATOM      4  H   UNL     1       0.661   9.191  20.101  0.00  0.00    +0.000 HD
ENDROOT
BRANCH   1  12
ATOM      5  C   UNL     1       2.480   3.048  21.481  0.00  0.00    +0.000 C 
ATOM      6  C   UNL     1       2.895   3.605  20.144  0.00  0.00    +0.000 A 
ATOM      7  C   UNL     1       3.576   2.769  19.250  0.00  0.00    +0.000 A 
ATOM      8  C   UNL     1       3.961   3.244  18.002  0.00  0.00    +0.000 A 
ATOM      9  C   UNL     1       3.655   4.555  17.630  0.00  0.00    +0.000 A 
ATOM     10  C   UNL     1       2.977   5.417  18.475  0.00  0.00    +0.000 A 
ATOM     11  N   UNL     1       2.709   6.664  18.035  0.00  0.00    +0.000 NA
ATOM     12  C   UNL     1       2.072   7.501  18.893  0.00  0.00    +0.000 A 
ATOM     13  C   UNL     1       1.679   7.142  20.175  0.00  0.00    +0.000 A 
ATOM     14  C   UNL     1       1.940   5.850  20.605  0.00  0.00    +0.000 A 
ATOM     15  C   UNL     1       2.600   4.942  19.760  0.00  0.00    +0.000 A 
ENDBRANCH   1  12
BRANCH   3  16
ATOM     16  C   UNL     1       0.504  10.959  18.973  0.00  0.00    +0.000 A 
ATOM     17  C   UNL     1      -0.793  11.266  18.558  0.00  0.00    +0.000 A 
ATOM     18  C   UNL     1      -1.166  12.579  18.293  0.00  0.00    +0.000 A 
ATOM     19  C   UNL     1      -0.238  13.609  18.416  0.00  0.00    +0.000 A 
ATOM     20  C   UNL     1       1.079  13.348  18.829  0.00  0.00    +0.000 A 
ATOM     21  C   UNL     1       1.424  12.010  19.141  0.00  0.00    +0.000 A 
BRANCH  20  22
ATOM     22  C   UNL     1       2.136  14.457  18.873  0.00  0.00    +0.000 C 
ATOM     23  C   UNL     1       3.417  14.049  19.618  0.00  0.00    +0.000 C 
BRANCH  22  24
ATOM     24  S   UNL     1       1.415  15.960  19.675  0.00  0.00    +0.000 S 
BRANCH  24  25
ATOM     25  C   UNL     1       1.268  17.042  18.334  0.00  0.00    +0.000 A 
ATOM     26  N   UNL     1       2.236  17.446  17.543  0.00  0.00    +0.000 NA
ATOM     27  N   UNL     1       1.695  18.322  16.628  0.00  0.00    +0.000 NA
ATOM     28  C   UNL     1       0.408  18.416  16.880  0.00  0.00    +0.000 A 
ATOM     29  N   UNL     1       0.091  17.619  17.941  0.00  0.00    +0.000 N 
ATOM     30  C   UNL     1      -1.225  17.461  18.499  0.00  0.00    +0.000 C 
ENDBRANCH  24  25
ENDBRANCH  22  24
ENDBRANCH  20  22
ENDBRANCH   3  16
TORSDOF 5
ENDMDL
MODEL 8
REMARK VINA RESULT:      -8.0      7.225      9.981
REMARK  Name = 
REMARK  8 active torsions:
REMARK  status: ('A' for Active; 'I' for Inactive)
REMARK    1  A    between atoms: C_1  and  C_2
REMARK    2  A    between atoms: C_8  and  C_9
REMARK    3  A    between atoms: N_11  and  C_12
REMARK    4  A    between atoms: C_16  and  C_17
REMARK    5  A    between atoms: C_17  and  C_18
REMARK    6  A    between atoms: C_17  and  S_19
REMARK    7  A    between atoms: S_19  and  C_20
REMARK    8  A    between atoms: N_24  and  C_25
REMARK                            x       y       z     vdW  Elec       q    Type
REMARK                         _______ _______ _______ _____ _____    ______ ____
ROOT
ATOM      1  C   UNL     1       1.756   9.189  18.380  0.00  0.00    +0.000 C 
ATOM      2  O   UNL     1       1.917   9.962  17.438  0.00  0.00    +0.000 OA
ATOM      3  N   UNL     1       0.943   9.399  19.487  0.00  0.00    +0.000 N 
ATOM      4  H   UNL     1       1.043   8.720  20.236  0.00  0.00    +0.000 HD
ENDROOT
BRANCH   1  12
ATOM      5  C   UNL     1       4.613   3.285  19.376  0.00  0.00    +0.000 C 
ATOM      6  C   UNL     1       4.737   4.365  18.331  0.00  0.00    +0.000 A 
ATOM      7  C   UNL     1       5.618   4.167  17.261  0.00  0.00    +0.000 A 
ATOM      8  C   UNL     1       5.746   5.134  16.272  0.00  0.00    +0.000 A 
ATOM      9  C   UNL     1       4.984   6.302  16.335  0.00  0.00    +0.000 A 
ATOM     10  C   UNL     1       4.093   6.541  17.369  0.00  0.00    +0.000 A 
ATOM     11  N   UNL     1       3.385   7.688  17.350  0.00  0.00    +0.000 NA
ATOM     12  C   UNL     1       2.543   7.915  18.390  0.00  0.00    +0.000 A 
ATOM     13  C   UNL     1       2.368   7.035  19.449  0.00  0.00    +0.000 A 
ATOM     14  C   UNL     1       3.086   5.849  19.443  0.00  0.00    +0.000 A 
ATOM     15  C   UNL     1       3.975   5.563  18.394  0.00  0.00    +0.000 A 
ENDBRANCH   1  12
BRANCH   3  16
ATOM     16  C   UNL     1       0.121  10.532  19.698  0.00  0.00    +0.000 A 
ATOM     17  C   UNL     1       0.559  11.633  20.437  0.00  0.00    +0.000 A 
ATOM     18  C   UNL     1      -0.277  12.723  20.656  0.00  0.00    +0.000 A 
ATOM     19  C   UNL     1      -1.577  12.719  20.161  0.00  0.00    +0.000 A 
ATOM     20  C   UNL     1      -2.061  11.632  19.414  0.00  0.00    +0.000 A 
ATOM     21  C   UNL     1      -1.178  10.554  19.160  0.00  0.00    +0.000 A 
BRANCH  20  22
ATOM     22  C   UNL     1      -3.520  11.571  18.947  0.00  0.00    +0.000 C 
ATOM     23  C   UNL     1      -3.672  11.565  17.418  0.00  0.00    +0.000 C 
BRANCH  22  24
ATOM     24  S   UNL     1      -4.449  13.009  19.649  0.00  0.00    +0.000 S 
BRANCH  24  25
ATOM     25  C   UNL     1      -5.807  12.230  20.383  0.00  0.00    +0.000 A 
ATOM     26  N   UNL     1      -5.967  11.975  21.663  0.00  0.00    +0.000 NA
ATOM     27  N   UNL     1      -7.169  11.318  21.814  0.00  0.00    +0.000 NA
ATOM     28  C   UNL     1      -7.713  11.205  20.623  0.00  0.00    +0.000 A 
ATOM     29  N   UNL     1      -6.895  11.773  19.691  0.00  0.00    +0.000 N 
ATOM     30  C   UNL     1      -7.164  11.843  18.279  0.00  0.00    +0.000 C 
ENDBRANCH  24  25
ENDBRANCH  22  24
ENDBRANCH  20  22
ENDBRANCH   3  16
TORSDOF 5
ENDMDL
MODEL 9
REMARK VINA RESULT:      -8.0      5.971      8.969
REMARK  Name = 
REMARK  8 active torsions:
REMARK  status: ('A' for Active; 'I' for Inactive)
REMARK    1  A    between atoms: C_1  and  C_2
REMARK    2  A    between atoms: C_8  and  C_9
REMARK    3  A    between atoms: N_11  and  C_12
REMARK    4  A    between atoms: C_16  and  C_17
REMARK    5  A    between atoms: C_17  and  C_18
REMARK    6  A    between atoms: C_17  and  S_19
REMARK    7  A    between atoms: S_19  and  C_20
REMARK    8  A    between atoms: N_24  and  C_25
REMARK                            x       y       z     vdW  Elec       q    Type
REMARK                         _______ _______ _______ _____ _____    ______ ____
ROOT
ATOM      1  C   UNL     1       2.180   6.682  19.859  0.00  0.00    +0.000 C 
ATOM      2  O   UNL     1       1.494   5.960  20.579  0.00  0.00    +0.000 OA
ATOM      3  N   UNL     1       2.054   8.058  19.715  0.00  0.00    +0.000 N 
ATOM      4  H   UNL     1       2.606   8.471  18.969  0.00  0.00    +0.000 HD
ENDROOT
BRANCH   1  12
ATOM      5  C   UNL     1       5.911   3.616  15.310  0.00  0.00    +0.000 C 
ATOM      6  C   UNL     1       6.183   4.300  16.625  0.00  0.00    +0.000 A 
ATOM      7  C   UNL     1       7.506   4.384  17.077  0.00  0.00    +0.000 A 
ATOM      8  C   UNL     1       7.797   5.021  18.277  0.00  0.00    +0.000 A 
ATOM      9  C   UNL     1       6.769   5.592  19.030  0.00  0.00    +0.000 A 
ATOM     10  C   UNL     1       5.446   5.541  18.623  0.00  0.00    +0.000 A 
ATOM     11  N   UNL     1       4.514   6.128  19.402  0.00  0.00    +0.000 NA
ATOM     12  C   UNL     1       3.222   6.037  18.998  0.00  0.00    +0.000 A 
ATOM     13  C   UNL     1       2.818   5.391  17.838  0.00  0.00    +0.000 A 
ATOM     14  C   UNL     1       3.789   4.812  17.035  0.00  0.00    +0.000 A 
ATOM     15  C   UNL     1       5.143   4.872  17.406  0.00  0.00    +0.000 A 
ENDBRANCH   1  12
BRANCH   3  16
ATOM     16  C   UNL     1       1.132   8.875  20.413  0.00  0.00    +0.000 A 
ATOM     17  C   UNL     1       0.617   8.508  21.658  0.00  0.00    +0.000 A 
ATOM     18  C   UNL     1      -0.310   9.313  22.312  0.00  0.00    +0.000 A 
ATOM     19  C   UNL     1      -0.758  10.489  21.719  0.00  0.00    +0.000 A 
ATOM     20  C   UNL     1      -0.269  10.897  20.467  0.00  0.00    +0.000 A 
ATOM     21  C   UNL     1       0.711  10.089  19.841  0.00  0.00    +0.000 A 
BRANCH  20  22
ATOM     22  C   UNL     1      -0.825  12.137  19.758  0.00  0.00    +0.000 C 
ATOM     23  C   UNL     1      -0.454  13.456  20.453  0.00  0.00    +0.000 C 
BRANCH  22  24
ATOM     24  S   UNL     1      -2.667  12.003  19.646  0.00  0.00    +0.000 S 
BRANCH  24  25
ATOM     25  C   UNL     1      -2.887  11.500  18.006  0.00  0.00    +0.000 A 
ATOM     26  N   UNL     1      -1.960  11.039  17.197  0.00  0.00    +0.000 NA
ATOM     27  N   UNL     1      -2.553  10.787  15.978  0.00  0.00    +0.000 NA
ATOM     28  C   UNL     1      -3.827  11.090  16.085  0.00  0.00    +0.000 A 
ATOM     29  N   UNL     1      -4.086  11.536  17.348  0.00  0.00    +0.000 N 
ATOM     30  C   UNL     1      -5.374  11.953  17.836  0.00  0.00    +0.000 C 
ENDBRANCH  24  25
ENDBRANCH  22  24
ENDBRANCH  20  22
ENDBRANCH   3  16
TORSDOF 5
ENDMDL
