MODEL 1
REMARK VINA RESULT:      -9.9      0.000      0.000
REMARK  Name = 
REMARK  10 active torsions:
REMARK  status: ('A' for Active; 'I' for Inactive)
REMARK    1  A    between atoms: C_1  and  O_2
REMARK    2  A    between atoms: O_2  and  C_3
REMARK    3  A    between atoms: N_10  and  C_11
REMARK    4  A    between atoms: C_11  and  C_12
REMARK    5  A    between atoms: C_16  and  C_17
REMARK    6  A    between atoms: N_23  and  C_24
REMARK    7  A    between atoms: C_28  and  C_29
REMARK    8  A    between atoms: C_29  and  C_30
REMARK    9  A    between atoms: C_30  and  C_31
REMARK   10  A    between atoms: N_35  and  C_36
REMARK                            x       y       z     vdW  Elec       q    Type
REMARK                         _______ _______ _______ _____ _____    ______ ____
ROOT
ATOM      1  C   UNL     1       0.196  11.684  19.332  0.00  0.00    +0.000 A 
ATOM      2  C   UNL     1       1.019  10.859  18.551  0.00  0.00    +0.000 A 
ATOM      3  C   UNL     1       1.374   9.627  19.052  0.00  0.00    +0.000 A 
ATOM      4  C   UNL     1       1.026   9.201  20.325  0.00  0.00    +0.000 A 
ATOM      5  C   UNL     1       0.296  10.032  21.171  0.00  0.00    +0.000 A 
ATOM      6  C   UNL     1      -0.144  11.269  20.641  0.00  0.00    +0.000 A 
ATOM      7  C   UNL     1       1.515   7.802  20.522  0.00  0.00    +0.000 C 
ATOM      8  N   UNL     1       2.158   7.485  19.250  0.00  0.00    +0.000 N 
ATOM      9  C   UNL     1       2.083   8.551  18.357  0.00  0.00    +0.000 C 
ATOM     10  O   UNL     1       2.442   8.656  17.199  0.00  0.00    +0.000 OA
ENDROOT
BRANCH   8  11
ATOM     11  C   UNL     1       2.698   6.209  18.970  0.00  0.00    +0.000 A 
ATOM     12  C   UNL     1       2.400   5.089  19.748  0.00  0.00    +0.000 A 
ATOM     13  C   UNL     1       2.973   3.850  19.462  0.00  0.00    +0.000 A 
ATOM     14  C   UNL     1       3.888   3.727  18.418  0.00  0.00    +0.000 A 
ATOM     15  C   UNL     1       4.251   4.832  17.628  0.00  0.00    +0.000 A 
ATOM     16  C   UNL     1       3.591   6.047  17.903  0.00  0.00    +0.000 A 
BRANCH  15  17
ATOM     17  C   UNL     1       5.396   4.762  16.517  0.00  0.00    +0.000 C 
ATOM     18  C   UNL     1       5.209   3.776  15.323  0.00  0.00    +0.000 C 
ATOM     19  O   UNL     1       5.595   4.813  14.380  0.00  0.00    +0.000 OA
ATOM     20  C   UNL     1       5.288   5.817  15.378  0.00  0.00    +0.000 C 
BRANCH  17  21
ATOM     21  C   UNL     1       6.799   4.698  17.147  0.00  0.00    +0.000 C 
BRANCH  21  22
ATOM     22  C   UNL     1       7.350   6.045  17.480  0.00  0.00    +0.000 A 
ATOM     23  N   UNL     1       7.443   7.070  16.655  0.00  0.00    +0.000 NA
ATOM     24  N   UNL     1       7.989   8.129  17.337  0.00  0.00    +0.000 NA
ATOM     25  C   UNL     1       8.220   7.734  18.566  0.00  0.00    +0.000 A 
ATOM     26  N   UNL     1       7.850   6.430  18.699  0.00  0.00    +0.000 N 
ATOM     27  C   UNL     1       7.972   5.655  19.896  0.00  0.00    +0.000 C 
ENDBRANCH  21  22
ENDBRANCH  17  21
ENDBRANCH  15  17
ENDBRANCH   8  11
BRANCH   5  28
ATOM     28  C   UNL     1      -0.022   9.652  22.596  0.00  0.00    +0.000 C 
ATOM     29  F   UNL     1       1.076   9.331  23.331  0.00  0.00    +0.000 F 
ATOM     30  F   UNL     1      -0.634  10.664  23.270  0.00  0.00    +0.000 F 
ATOM     31  F   UNL     1      -0.856   8.581  22.682  0.00  0.00    +0.000 F 
ENDBRANCH   5  28
BRANCH   1  32
ATOM     32  C   UNL     1      -0.349  12.972  18.731  0.00  0.00    +0.000 C 
BRANCH  32  40
ATOM     33  C   UNL     1      -2.389  16.998  20.033  0.00  0.00    +0.000 A 
ATOM     34  C   UNL     1      -2.498  18.166  19.270  0.00  0.00    +0.000 A 
ATOM     35  C   UNL     1      -1.577  18.461  18.255  0.00  0.00    +0.000 A 
ATOM     36  C   UNL     1      -0.541  17.574  17.962  0.00  0.00    +0.000 A 
ATOM     37  C   UNL     1      -0.456  16.400  18.695  0.00  0.00    +0.000 A 
ATOM     38  C   UNL     1      -1.355  16.124  19.726  0.00  0.00    +0.000 A 
ATOM     39  C   UNL     1      -1.045  14.772  20.269  0.00  0.00    +0.000 C 
ATOM     40  N   UNL     1       0.056  14.187  19.460  0.00  0.00    +0.000 NA
ATOM     41  C   UNL     1       0.490  15.254  18.516  0.00  0.00    +0.000 C 
BRANCH  33  43
ATOM     42  C   UNL     1      -4.370  17.839  21.048  0.00  0.00    +0.000 C 
ATOM     43  O   UNL     1      -3.395  16.811  20.936  0.00  0.00    +0.000 OA
ENDBRANCH  33  43
ENDBRANCH  32  40
ENDBRANCH   1  32
TORSDOF 8
ENDMDL
MODEL 2
REMARK VINA RESULT:      -9.6      1.774      2.660
REMARK  Name = 
REMARK  10 active torsions:
REMARK  status: ('A' for Active; 'I' for Inactive)
REMARK    1  A    between atoms: C_1  and  O_2
REMARK    2  A    between atoms: O_2  and  C_3
REMARK    3  A    between atoms: N_10  and  C_11
REMARK    4  A    between atoms: C_11  and  C_12
REMARK    5  A    between atoms: C_16  and  C_17
REMARK    6  A    between atoms: N_23  and  C_24
REMARK    7  A    between atoms: C_28  and  C_29
REMARK    8  A    between atoms: C_29  and  C_30
REMARK    9  A    between atoms: C_30  and  C_31
REMARK   10  A    between atoms: N_35  and  C_36
REMARK                            x       y       z     vdW  Elec       q    Type
REMARK                         _______ _______ _______ _____ _____    ______ ____
ROOT
ATOM      1  C   UNL     1       0.198  11.547  19.260  0.00  0.00    +0.000 A 
ATOM      2  C   UNL     1       1.069  10.787  18.468  0.00  0.00    +0.000 A 
ATOM      3  C   UNL     1       1.437   9.537  18.914  0.00  0.00    +0.000 A 
ATOM      4  C   UNL     1       1.052   9.034  20.148  0.00  0.00    +0.000 A 
ATOM      5  C   UNL     1       0.270   9.799  21.009  0.00  0.00    +0.000 A 
ATOM      6  C   UNL     1      -0.181  11.053  20.531  0.00  0.00    +0.000 A 
ATOM      7  C   UNL     1       1.570   7.638  20.287  0.00  0.00    +0.000 C 
ATOM      8  N   UNL     1       2.267   7.407  19.025  0.00  0.00    +0.000 N 
ATOM      9  C   UNL     1       2.198   8.519  18.189  0.00  0.00    +0.000 C 
ATOM     10  O   UNL     1       2.598   8.696  17.053  0.00  0.00    +0.000 OA
ENDROOT
BRANCH   8  11
ATOM     11  C   UNL     1       2.850   6.162  18.697  0.00  0.00    +0.000 A 
ATOM     12  C   UNL     1       2.644   5.018  19.471  0.00  0.00    +0.000 A 
ATOM     13  C   UNL     1       3.257   3.811  19.135  0.00  0.00    +0.000 A 
ATOM     14  C   UNL     1       4.122   3.746  18.044  0.00  0.00    +0.000 A 
ATOM     15  C   UNL     1       4.392   4.877  17.255  0.00  0.00    +0.000 A 
ATOM     16  C   UNL     1       3.693   6.056  17.583  0.00  0.00    +0.000 A 
BRANCH  15  17
ATOM     17  C   UNL     1       5.480   4.876  16.085  0.00  0.00    +0.000 C 
ATOM     18  C   UNL     1       6.083   3.508  15.637  0.00  0.00    +0.000 C 
ATOM     19  O   UNL     1       5.884   3.857  14.239  0.00  0.00    +0.000 OA
ATOM     20  C   UNL     1       4.907   4.849  14.640  0.00  0.00    +0.000 C 
BRANCH  17  21
ATOM     21  C   UNL     1       6.541   5.972  16.292  0.00  0.00    +0.000 C 
BRANCH  21  22
ATOM     22  C   UNL     1       7.225   5.880  17.616  0.00  0.00    +0.000 A 
ATOM     23  N   UNL     1       7.354   4.789  18.347  0.00  0.00    +0.000 NA
ATOM     24  N   UNL     1       8.053   5.110  19.485  0.00  0.00    +0.000 NA
ATOM     25  C   UNL     1       8.337   6.388  19.430  0.00  0.00    +0.000 A 
ATOM     26  N   UNL     1       7.825   6.917  18.285  0.00  0.00    +0.000 N 
ATOM     27  C   UNL     1       7.923   8.291  17.892  0.00  0.00    +0.000 C 
ENDBRANCH  21  22
ENDBRANCH  17  21
ENDBRANCH  15  17
ENDBRANCH   8  11
BRANCH   5  28
ATOM     28  C   UNL     1      -0.091   9.334  22.397  0.00  0.00    +0.000 C 
ATOM     29  F   UNL     1      -0.839   8.198  22.413  0.00  0.00    +0.000 F 
ATOM     30  F   UNL     1       1.012   9.058  23.147  0.00  0.00    +0.000 F 
ATOM     31  F   UNL     1      -0.802  10.259  23.096  0.00  0.00    +0.000 F 
ENDBRANCH   5  28
BRANCH   1  32
ATOM     32  C   UNL     1      -0.357  12.854  18.710  0.00  0.00    +0.000 C 
BRANCH  32  40
ATOM     33  C   UNL     1       2.234  16.712  18.025  0.00  0.00    +0.000 A 
ATOM     34  C   UNL     1       3.615  16.838  18.214  0.00  0.00    +0.000 A 
ATOM     35  C   UNL     1       4.305  16.012  19.114  0.00  0.00    +0.000 A 
ATOM     36  C   UNL     1       3.626  15.020  19.824  0.00  0.00    +0.000 A 
ATOM     37  C   UNL     1       2.265  14.875  19.608  0.00  0.00    +0.000 A 
ATOM     38  C   UNL     1       1.575  15.718  18.737  0.00  0.00    +0.000 A 
ATOM     39  C   UNL     1       0.158  15.267  18.672  0.00  0.00    +0.000 C 
ATOM     40  N   UNL     1       0.021  14.041  19.498  0.00  0.00    +0.000 NA
ATOM     41  C   UNL     1       1.338  13.839  20.164  0.00  0.00    +0.000 C 
BRANCH  33  43
ATOM     42  C   UNL     1       0.880  18.598  17.509  0.00  0.00    +0.000 C 
ATOM     43  O   UNL     1       1.713  17.534  17.069  0.00  0.00    +0.000 OA
ENDBRANCH  33  43
ENDBRANCH  32  40
ENDBRANCH   1  32
TORSDOF 8
ENDMDL
MODEL 3
REMARK VINA RESULT:      -9.4      2.175      2.909
REMARK  Name = 
REMARK  10 active torsions:
REMARK  status: ('A' for Active; 'I' for Inactive)
REMARK    1  A    between atoms: C_1  and  O_2
REMARK    2  A    between atoms: O_2  and  C_3
REMARK    3  A    between atoms: N_10  and  C_11
REMARK    4  A    between atoms: C_11  and  C_12
REMARK    5  A    between atoms: C_16  and  C_17
REMARK    6  A    between atoms: N_23  and  C_24
REMARK    7  A    between atoms: C_28  and  C_29
REMARK    8  A    between atoms: C_29  and  C_30
REMARK    9  A    between atoms: C_30  and  C_31
REMARK   10  A    between atoms: N_35  and  C_36
REMARK                            x       y       z     vdW  Elec       q    Type
REMARK                         _______ _______ _______ _____ _____    ______ ____
ROOT
ATOM      1  C   UNL     1       0.736  11.747  19.392  0.00  0.00    +0.000 A 
ATOM      2  C   UNL     1       1.476  10.911  18.545  0.00  0.00    +0.000 A 
ATOM      3  C   UNL     1       1.695   9.610  18.938  0.00  0.00    +0.000 A 
ATOM      4  C   UNL     1       1.290   9.115  20.168  0.00  0.00    +0.000 A 
ATOM      5  C   UNL     1       0.641   9.942  21.081  0.00  0.00    +0.000 A 
ATOM      6  C   UNL     1       0.339  11.259  20.659  0.00  0.00    +0.000 A 
ATOM      7  C   UNL     1       1.628   7.660  20.244  0.00  0.00    +0.000 C 
ATOM      8  N   UNL     1       2.249   7.388  18.951  0.00  0.00    +0.000 N 
ATOM      9  C   UNL     1       2.295   8.529  18.153  0.00  0.00    +0.000 C 
ATOM     10  O   UNL     1       2.677   8.694  17.010  0.00  0.00    +0.000 OA
ENDROOT
BRANCH   8  11
ATOM     11  C   UNL     1       2.655   6.091  18.562  0.00  0.00    +0.000 A 
ATOM     12  C   UNL     1       2.087   4.940  19.109  0.00  0.00    +0.000 A 
ATOM     13  C   UNL     1       2.531   3.675  18.725  0.00  0.00    +0.000 A 
ATOM     14  C   UNL     1       3.584   3.548  17.820  0.00  0.00    +0.000 A 
ATOM     15  C   UNL     1       4.215   4.677  17.269  0.00  0.00    +0.000 A 
ATOM     16  C   UNL     1       3.684   5.933  17.625  0.00  0.00    +0.000 A 
BRANCH  15  17
ATOM     17  C   UNL     1       5.511   4.575  16.339  0.00  0.00    +0.000 C 
ATOM     18  C   UNL     1       5.515   3.521  15.189  0.00  0.00    +0.000 C 
ATOM     19  O   UNL     1       6.016   4.516  14.254  0.00  0.00    +0.000 OA
ATOM     20  C   UNL     1       5.550   5.564  15.139  0.00  0.00    +0.000 C 
BRANCH  17  21
ATOM     21  C   UNL     1       6.808   4.582  17.167  0.00  0.00    +0.000 C 
BRANCH  21  22
ATOM     22  C   UNL     1       7.309   5.959  17.456  0.00  0.00    +0.000 A 
ATOM     23  N   UNL     1       7.317   6.972  16.613  0.00  0.00    +0.000 NA
ATOM     24  N   UNL     1       7.841   8.067  17.255  0.00  0.00    +0.000 NA
ATOM     25  C   UNL     1       8.143   7.703  18.478  0.00  0.00    +0.000 A 
ATOM     26  N   UNL     1       7.842   6.386  18.646  0.00  0.00    +0.000 N 
ATOM     27  C   UNL     1       8.052   5.637  19.848  0.00  0.00    +0.000 C 
ENDBRANCH  21  22
ENDBRANCH  17  21
ENDBRANCH  15  17
ENDBRANCH   8  11
BRANCH   5  28
ATOM     28  C   UNL     1       0.268   9.477  22.466  0.00  0.00    +0.000 C 
ATOM     29  F   UNL     1       1.334   9.077  23.211  0.00  0.00    +0.000 F 
ATOM     30  F   UNL     1      -0.338  10.458  23.190  0.00  0.00    +0.000 F 
ATOM     31  F   UNL     1      -0.595   8.426  22.455  0.00  0.00    +0.000 F 
ENDBRANCH   5  28
BRANCH   1  32
ATOM     32  C   UNL     1       0.336  13.132  18.903  0.00  0.00    +0.000 C 
BRANCH  32  40
ATOM     33  C   UNL     1       3.814  15.215  21.277  0.00  0.00    +0.000 A 
ATOM     34  C   UNL     1       3.765  16.461  21.914  0.00  0.00    +0.000 A 
ATOM     35  C   UNL     1       2.876  17.460  21.490  0.00  0.00    +0.000 A 
ATOM     36  C   UNL     1       1.994  17.220  20.435  0.00  0.00    +0.000 A 
ATOM     37  C   UNL     1       2.021  15.973  19.830  0.00  0.00    +0.000 A 
ATOM     38  C   UNL     1       2.928  14.992  20.231  0.00  0.00    +0.000 A 
ATOM     39  C   UNL     1       2.662  13.757  19.443  0.00  0.00    +0.000 C 
ATOM     40  N   UNL     1       1.480  14.003  18.577  0.00  0.00    +0.000 NA
ATOM     41  C   UNL     1       1.125  15.438  18.757  0.00  0.00    +0.000 C 
BRANCH  33  43
ATOM     42  C   UNL     1       4.992  14.497  23.215  0.00  0.00    +0.000 C 
ATOM     43  O   UNL     1       4.677  14.321  21.841  0.00  0.00    +0.000 OA
ENDBRANCH  33  43
ENDBRANCH  32  40
ENDBRANCH   1  32
TORSDOF 8
ENDMDL
MODEL 4
REMARK VINA RESULT:      -9.4      1.434      2.362
REMARK  Name = 
REMARK  10 active torsions:
REMARK  status: ('A' for Active; 'I' for Inactive)
REMARK    1  A    between atoms: C_1  and  O_2
REMARK    2  A    between atoms: O_2  and  C_3
REMARK    3  A    between atoms: N_10  and  C_11
REMARK    4  A    between atoms: C_11  and  C_12
REMARK    5  A    between atoms: C_16  and  C_17
REMARK    6  A    between atoms: N_23  and  C_24
REMARK    7  A    between atoms: C_28  and  C_29
REMARK    8  A    between atoms: C_29  and  C_30
REMARK    9  A    between atoms: C_30  and  C_31
REMARK   10  A    between atoms: N_35  and  C_36
REMARK                            x       y       z     vdW  Elec       q    Type
REMARK                         _______ _______ _______ _____ _____    ______ ____
ROOT
ATOM      1  C   UNL     1       0.134  11.736  19.527  0.00  0.00    +0.000 A 
ATOM      2  C   UNL     1       0.940  10.964  18.679  0.00  0.00    +0.000 A 
ATOM      3  C   UNL     1       1.289   9.695  19.085  0.00  0.00    +0.000 A 
ATOM      4  C   UNL     1       0.950   9.181  20.328  0.00  0.00    +0.000 A 
ATOM      5  C   UNL     1       0.237   9.955  21.240  0.00  0.00    +0.000 A 
ATOM      6  C   UNL     1      -0.197  11.230  20.807  0.00  0.00    +0.000 A 
ATOM      7  C   UNL     1       1.428   7.767  20.417  0.00  0.00    +0.000 C 
ATOM      8  N   UNL     1       2.054   7.538  19.118  0.00  0.00    +0.000 N 
ATOM      9  C   UNL     1       1.979   8.667  18.305  0.00  0.00    +0.000 C 
ATOM     10  O   UNL     1       2.328   8.852  17.154  0.00  0.00    +0.000 OA
ENDROOT
BRANCH   8  11
ATOM     11  C   UNL     1       2.579   6.281  18.740  0.00  0.00    +0.000 A 
ATOM     12  C   UNL     1       1.942   5.082  19.065  0.00  0.00    +0.000 A 
ATOM     13  C   UNL     1       2.502   3.857  18.702  0.00  0.00    +0.000 A 
ATOM     14  C   UNL     1       3.731   3.817  18.046  0.00  0.00    +0.000 A 
ATOM     15  C   UNL     1       4.431   4.994  17.729  0.00  0.00    +0.000 A 
ATOM     16  C   UNL     1       3.793   6.211  18.045  0.00  0.00    +0.000 A 
BRANCH  15  17
ATOM     17  C   UNL     1       5.901   4.985  17.105  0.00  0.00    +0.000 C 
ATOM     18  C   UNL     1       6.595   6.354  16.824  0.00  0.00    +0.000 C 
ATOM     19  O   UNL     1       7.821   5.883  17.449  0.00  0.00    +0.000 OA
ATOM     20  C   UNL     1       7.062   4.855  18.133  0.00  0.00    +0.000 C 
BRANCH  17  21
ATOM     21  C   UNL     1       6.018   3.990  15.937  0.00  0.00    +0.000 C 
BRANCH  21  22
ATOM     22  C   UNL     1       6.758   4.549  14.766  0.00  0.00    +0.000 A 
ATOM     23  N   UNL     1       7.753   5.412  14.820  0.00  0.00    +0.000 NA
ATOM     24  N   UNL     1       8.173   5.670  13.538  0.00  0.00    +0.000 NA
ATOM     25  C   UNL     1       7.429   4.961  12.725  0.00  0.00    +0.000 A 
ATOM     26  N   UNL     1       6.517   4.254  13.448  0.00  0.00    +0.000 N 
ATOM     27  C   UNL     1       5.524   3.381  12.897  0.00  0.00    +0.000 C 
ENDBRANCH  21  22
ENDBRANCH  17  21
ENDBRANCH  15  17
ENDBRANCH   8  11
BRANCH   5  28
ATOM     28  C   UNL     1      -0.070   9.475  22.637  0.00  0.00    +0.000 C 
ATOM     29  F   UNL     1      -0.841  10.337  23.351  0.00  0.00    +0.000 F 
ATOM     30  F   UNL     1      -0.744   8.292  22.635  0.00  0.00    +0.000 F 
ATOM     31  F   UNL     1       1.050   9.271  23.382  0.00  0.00    +0.000 F 
ENDBRANCH   5  28
BRANCH   1  32
ATOM     32  C   UNL     1      -0.405  13.070  19.028  0.00  0.00    +0.000 C 
BRANCH  32  40
ATOM     33  C   UNL     1      -1.618  17.514  19.947  0.00  0.00    +0.000 A 
ATOM     34  C   UNL     1      -1.499  18.610  19.086  0.00  0.00    +0.000 A 
ATOM     35  C   UNL     1      -0.539  18.631  18.063  0.00  0.00    +0.000 A 
ATOM     36  C   UNL     1       0.304  17.536  17.864  0.00  0.00    +0.000 A 
ATOM     37  C   UNL     1       0.159  16.437  18.696  0.00  0.00    +0.000 A 
ATOM     38  C   UNL     1      -0.775  16.432  19.733  0.00  0.00    +0.000 A 
ATOM     39  C   UNL     1      -0.734  15.098  20.394  0.00  0.00    +0.000 C 
ATOM     40  N   UNL     1       0.230  14.242  19.656  0.00  0.00    +0.000 NA
ATOM     41  C   UNL     1       0.863  15.118  18.631  0.00  0.00    +0.000 C 
BRANCH  33  43
ATOM     42  C   UNL     1      -3.872  16.991  20.500  0.00  0.00    +0.000 C 
ATOM     43  O   UNL     1      -2.640  17.606  20.848  0.00  0.00    +0.000 OA
ENDBRANCH  33  43
ENDBRANCH  32  40
ENDBRANCH   1  32
TORSDOF 8
ENDMDL
MODEL 5
REMARK VINA RESULT:      -9.3      1.047      1.732
REMARK  Name = 
REMARK  10 active torsions:
REMARK  status: ('A' for Active; 'I' for Inactive)
REMARK    1  A    between atoms: C_1  and  O_2
REMARK    2  A    between atoms: O_2  and  C_3
REMARK    3  A    between atoms: N_10  and  C_11
REMARK    4  A    between atoms: C_11  and  C_12
REMARK    5  A    between atoms: C_16  and  C_17
REMARK    6  A    between atoms: N_23  and  C_24
REMARK    7  A    between atoms: C_28  and  C_29
REMARK    8  A    between atoms: C_29  and  C_30
REMARK    9  A    between atoms: C_30  and  C_31
REMARK   10  A    between atoms: N_35  and  C_36
REMARK                            x       y       z     vdW  Elec       q    Type
REMARK                         _______ _______ _______ _____ _____    ______ ____
ROOT
ATOM      1  C   UNL     1       0.520  11.432  19.136  0.00  0.00    +0.000 A 
ATOM      2  C   UNL     1       1.375  10.640  18.358  0.00  0.00    +0.000 A 
ATOM      3  C   UNL     1       1.706   9.385  18.820  0.00  0.00    +0.000 A 
ATOM      4  C   UNL     1       1.300   8.905  20.056  0.00  0.00    +0.000 A 
ATOM      5  C   UNL     1       0.533   9.701  20.904  0.00  0.00    +0.000 A 
ATOM      6  C   UNL     1       0.119  10.961  20.410  0.00  0.00    +0.000 A 
ATOM      7  C   UNL     1       1.778   7.497  20.213  0.00  0.00    +0.000 C 
ATOM      8  N   UNL     1       2.478   7.235  18.959  0.00  0.00    +0.000 N 
ATOM      9  C   UNL     1       2.444   8.339  18.111  0.00  0.00    +0.000 C 
ATOM     10  O   UNL     1       2.856   8.493  16.976  0.00  0.00    +0.000 OA
ENDROOT
BRANCH   8  11
ATOM     11  C   UNL     1       3.028   5.970  18.647  0.00  0.00    +0.000 A 
ATOM     12  C   UNL     1       2.807   4.847  19.446  0.00  0.00    +0.000 A 
ATOM     13  C   UNL     1       3.389   3.620  19.126  0.00  0.00    +0.000 A 
ATOM     14  C   UNL     1       4.238   3.514  18.026  0.00  0.00    +0.000 A 
ATOM     15  C   UNL     1       4.523   4.624  17.211  0.00  0.00    +0.000 A 
ATOM     16  C   UNL     1       3.854   5.825  17.525  0.00  0.00    +0.000 A 
BRANCH  15  17
ATOM     17  C   UNL     1       5.596   4.576  16.029  0.00  0.00    +0.000 C 
ATOM     18  C   UNL     1       5.277   3.703  14.776  0.00  0.00    +0.000 C 
ATOM     19  O   UNL     1       5.675   4.789  13.894  0.00  0.00    +0.000 OA
ATOM     20  C   UNL     1       5.490   5.725  14.984  0.00  0.00    +0.000 C 
BRANCH  17  21
ATOM     21  C   UNL     1       7.025   4.378  16.563  0.00  0.00    +0.000 C 
BRANCH  21  22
ATOM     22  C   UNL     1       7.254   5.048  17.878  0.00  0.00    +0.000 A 
ATOM     23  N   UNL     1       7.236   4.461  19.059  0.00  0.00    +0.000 NA
ATOM     24  N   UNL     1       7.503   5.408  20.018  0.00  0.00    +0.000 NA
ATOM     25  C   UNL     1       7.680   6.554  19.407  0.00  0.00    +0.000 A 
ATOM     26  N   UNL     1       7.518   6.382  18.066  0.00  0.00    +0.000 N 
ATOM     27  C   UNL     1       7.619   7.416  17.082  0.00  0.00    +0.000 C 
ENDBRANCH  21  22
ENDBRANCH  17  21
ENDBRANCH  15  17
ENDBRANCH   8  11
BRANCH   5  28
ATOM     28  C   UNL     1       0.151   9.260  22.295  0.00  0.00    +0.000 C 
ATOM     29  F   UNL     1      -0.683   8.186  22.314  0.00  0.00    +0.000 F 
ATOM     30  F   UNL     1       1.236   8.897  23.033  0.00  0.00    +0.000 F 
ATOM     31  F   UNL     1      -0.480  10.236  23.002  0.00  0.00    +0.000 F 
ENDBRANCH   5  28
BRANCH   1  32
ATOM     32  C   UNL     1       0.004  12.747  18.569  0.00  0.00    +0.000 C 
BRANCH  32  40
ATOM     33  C   UNL     1      -0.532  17.401  18.222  0.00  0.00    +0.000 A 
ATOM     34  C   UNL     1       0.309  18.293  17.548  0.00  0.00    +0.000 A 
ATOM     35  C   UNL     1       1.666  18.001  17.345  0.00  0.00    +0.000 A 
ATOM     36  C   UNL     1       2.203  16.792  17.789  0.00  0.00    +0.000 A 
ATOM     37  C   UNL     1       1.358  15.895  18.425  0.00  0.00    +0.000 A 
ATOM     38  C   UNL     1       0.017  16.201  18.655  0.00  0.00    +0.000 A 
ATOM     39  C   UNL     1      -0.631  15.020  19.290  0.00  0.00    +0.000 C 
ATOM     40  N   UNL     1       0.371  13.927  19.372  0.00  0.00    +0.000 NA
ATOM     41  C   UNL     1       1.660  14.509  18.904  0.00  0.00    +0.000 C 
BRANCH  33  43
ATOM     42  C   UNL     1      -2.280  18.404  19.486  0.00  0.00    +0.000 C 
ATOM     43  O   UNL     1      -1.839  17.787  18.284  0.00  0.00    +0.000 OA
ENDBRANCH  33  43
ENDBRANCH  32  40
ENDBRANCH   1  32
TORSDOF 8
ENDMDL
MODEL 6
REMARK VINA RESULT:      -9.3      4.186     11.998
REMARK  Name = 
REMARK  10 active torsions:
REMARK  status: ('A' for Active; 'I' for Inactive)
REMARK    1  A    between atoms: C_1  and  O_2
REMARK    2  A    between atoms: O_2  and  C_3
REMARK    3  A    between atoms: N_10  and  C_11
REMARK    4  A    between atoms: C_11  and  C_12
REMARK    5  A    between atoms: C_16  and  C_17
REMARK    6  A    between atoms: N_23  and  C_24
REMARK    7  A    between atoms: C_28  and  C_29
REMARK    8  A    between atoms: C_29  and  C_30
REMARK    9  A    between atoms: C_30  and  C_31
REMARK   10  A    between atoms: N_35  and  C_36
REMARK                            x       y       z     vdW  Elec       q    Type
REMARK                         _______ _______ _______ _____ _____    ______ ____
ROOT
ATOM      1  C   UNL     1       1.093   9.790  18.754  0.00  0.00    +0.000 A 
ATOM      2  C   UNL     1       0.882  10.569  19.899  0.00  0.00    +0.000 A 
ATOM      3  C   UNL     1      -0.375  11.091  20.113  0.00  0.00    +0.000 A 
ATOM      4  C   UNL     1      -1.414  10.950  19.206  0.00  0.00    +0.000 A 
ATOM      5  C   UNL     1      -1.216  10.269  18.007  0.00  0.00    +0.000 A 
ATOM      6  C   UNL     1       0.046   9.660  17.810  0.00  0.00    +0.000 A 
ATOM      7  C   UNL     1      -2.646  11.578  19.775  0.00  0.00    +0.000 C 
ATOM      8  N   UNL     1      -2.204  12.073  21.076  0.00  0.00    +0.000 N 
ATOM      9  C   UNL     1      -0.860  11.791  21.304  0.00  0.00    +0.000 C 
ATOM     10  O   UNL     1      -0.151  11.985  22.274  0.00  0.00    +0.000 OA
ENDROOT
BRANCH   8  11
ATOM     11  C   UNL     1      -3.089  12.678  21.997  0.00  0.00    +0.000 A 
ATOM     12  C   UNL     1      -3.049  12.391  23.363  0.00  0.00    +0.000 A 
ATOM     13  C   UNL     1      -3.956  12.984  24.242  0.00  0.00    +0.000 A 
ATOM     14  C   UNL     1      -4.944  13.838  23.756  0.00  0.00    +0.000 A 
ATOM     15  C   UNL     1      -5.050  14.131  22.385  0.00  0.00    +0.000 A 
ATOM     16  C   UNL     1      -4.067  13.572  21.543  0.00  0.00    +0.000 A 
BRANCH  15  17
ATOM     17  C   UNL     1      -6.249  14.993  21.775  0.00  0.00    +0.000 C 
ATOM     18  C   UNL     1      -6.400  16.477  22.230  0.00  0.00    +0.000 C 
ATOM     19  O   UNL     1      -6.575  16.902  20.850  0.00  0.00    +0.000 OA
ATOM     20  C   UNL     1      -5.956  15.670  20.406  0.00  0.00    +0.000 C 
BRANCH  17  21
ATOM     21  C   UNL     1      -7.576  14.213  21.789  0.00  0.00    +0.000 C 
BRANCH  21  22
ATOM     22  C   UNL     1      -7.438  12.818  21.274  0.00  0.00    +0.000 A 
ATOM     23  N   UNL     1      -7.231  11.740  22.005  0.00  0.00    +0.000 NA
ATOM     24  N   UNL     1      -7.175  10.652  21.168  0.00  0.00    +0.000 NA
ATOM     25  C   UNL     1      -7.350  11.084  19.943  0.00  0.00    +0.000 A 
ATOM     26  N   UNL     1      -7.503  12.437  19.957  0.00  0.00    +0.000 N 
ATOM     27  C   UNL     1      -7.697  13.259  18.801  0.00  0.00    +0.000 C 
ENDBRANCH  21  22
ENDBRANCH  17  21
ENDBRANCH  15  17
ENDBRANCH   8  11
BRANCH   5  28
ATOM     28  C   UNL     1      -2.286  10.175  16.949  0.00  0.00    +0.000 C 
ATOM     29  F   UNL     1      -1.910   9.455  15.858  0.00  0.00    +0.000 F 
ATOM     30  F   UNL     1      -3.415   9.574  17.415  0.00  0.00    +0.000 F 
ATOM     31  F   UNL     1      -2.672  11.392  16.479  0.00  0.00    +0.000 F 
ENDBRANCH   5  28
BRANCH   1  32
ATOM     32  C   UNL     1       2.420   9.063  18.584  0.00  0.00    +0.000 C 
BRANCH  32  40
ATOM     33  C   UNL     1       3.491   4.610  19.629  0.00  0.00    +0.000 A 
ATOM     34  C   UNL     1       4.721   3.975  19.427  0.00  0.00    +0.000 A 
ATOM     35  C   UNL     1       5.608   4.406  18.429  0.00  0.00    +0.000 A 
ATOM     36  C   UNL     1       5.290   5.505  17.630  0.00  0.00    +0.000 A 
ATOM     37  C   UNL     1       4.087   6.154  17.856  0.00  0.00    +0.000 A 
ATOM     38  C   UNL     1       3.192   5.704  18.827  0.00  0.00    +0.000 A 
ATOM     39  C   UNL     1       2.037   6.642  18.872  0.00  0.00    +0.000 C 
ATOM     40  N   UNL     1       2.301   7.752  17.921  0.00  0.00    +0.000 NA
ATOM     41  C   UNL     1       3.562   7.399  17.210  0.00  0.00    +0.000 C 
BRANCH  33  43
ATOM     42  C   UNL     1       1.530   3.490  20.378  0.00  0.00    +0.000 C 
ATOM     43  O   UNL     1       2.765   4.125  20.678  0.00  0.00    +0.000 OA
ENDBRANCH  33  43
ENDBRANCH  32  40
ENDBRANCH   1  32
TORSDOF 8
ENDMDL
MODEL 7
REMARK VINA RESULT:      -9.3      2.154      3.160
REMARK  Name = 
REMARK  10 active torsions:
REMARK  status: ('A' for Active; 'I' for Inactive)
REMARK    1  A    between atoms: C_1  and  O_2
REMARK    2  A    between atoms: O_2  and  C_3
REMARK    3  A    between atoms: N_10  and  C_11
REMARK    4  A    between atoms: C_11  and  C_12
REMARK    5  A    between atoms: C_16  and  C_17
REMARK    6  A    between atoms: N_23  and  C_24
REMARK    7  A    between atoms: C_28  and  C_29
REMARK    8  A    between atoms: C_29  and  C_30
REMARK    9  A    between atoms: C_30  and  C_31
REMARK   10  A    between atoms: N_35  and  C_36
REMARK                            x       y       z     vdW  Elec       q    Type
REMARK                         _______ _______ _______ _____ _____    ______ ____
ROOT
ATOM      1  C   UNL     1      -0.170  11.901  19.584  0.00  0.00    +0.000 A 
ATOM      2  C   UNL     1       0.742  11.248  18.743  0.00  0.00    +0.000 A 
ATOM      3  C   UNL     1       1.172   9.988  19.096  0.00  0.00    +0.000 A 
ATOM      4  C   UNL     1       0.809   9.374  20.286  0.00  0.00    +0.000 A 
ATOM      5  C   UNL     1      -0.014  10.031  21.196  0.00  0.00    +0.000 A 
ATOM      6  C   UNL     1      -0.527  11.293  20.811  0.00  0.00    +0.000 A 
ATOM      7  C   UNL     1       1.397   7.999  20.322  0.00  0.00    +0.000 C 
ATOM      8  N   UNL     1       2.109   7.900  19.052  0.00  0.00    +0.000 N 
ATOM      9  C   UNL     1       1.986   9.067  18.302  0.00  0.00    +0.000 C 
ATOM     10  O   UNL     1       2.380   9.350  17.186  0.00  0.00    +0.000 OA
ENDROOT
BRANCH   8  11
ATOM     11  C   UNL     1       2.755   6.714  18.635  0.00  0.00    +0.000 A 
ATOM     12  C   UNL     1       2.075   5.501  18.514  0.00  0.00    +0.000 A 
ATOM     13  C   UNL     1       2.749   4.343  18.127  0.00  0.00    +0.000 A 
ATOM     14  C   UNL     1       4.124   4.376  17.901  0.00  0.00    +0.000 A 
ATOM     15  C   UNL     1       4.862   5.564  18.046  0.00  0.00    +0.000 A 
ATOM     16  C   UNL     1       4.129   6.726  18.362  0.00  0.00    +0.000 A 
BRANCH  15  17
ATOM     17  C   UNL     1       6.454   5.612  17.931  0.00  0.00    +0.000 C 
ATOM     18  C   UNL     1       7.130   6.975  17.586  0.00  0.00    +0.000 C 
ATOM     19  O   UNL     1       8.103   6.784  18.651  0.00  0.00    +0.000 OA
ATOM     20  C   UNL     1       7.214   5.823  19.272  0.00  0.00    +0.000 C 
BRANCH  17  21
ATOM     21  C   UNL     1       7.003   4.433  17.107  0.00  0.00    +0.000 C 
BRANCH  21  22
ATOM     22  C   UNL     1       7.109   4.739  15.650  0.00  0.00    +0.000 A 
ATOM     23  N   UNL     1       8.020   5.506  15.084  0.00  0.00    +0.000 NA
ATOM     24  N   UNL     1       7.789   5.528  13.730  0.00  0.00    +0.000 NA
ATOM     25  C   UNL     1       6.743   4.775  13.493  0.00  0.00    +0.000 A 
ATOM     26  N   UNL     1       6.272   4.272  14.667  0.00  0.00    +0.000 N 
ATOM     27  C   UNL     1       5.128   3.421  14.802  0.00  0.00    +0.000 C 
ENDBRANCH  21  22
ENDBRANCH  17  21
ENDBRANCH  15  17
ENDBRANCH   8  11
BRANCH   5  28
ATOM     28  C   UNL     1      -0.355   9.444  22.543  0.00  0.00    +0.000 C 
ATOM     29  F   UNL     1      -0.968   8.232  22.469  0.00  0.00    +0.000 F 
ATOM     30  F   UNL     1       0.752   9.251  23.312  0.00  0.00    +0.000 F 
ATOM     31  F   UNL     1      -1.186  10.239  23.270  0.00  0.00    +0.000 F 
ENDBRANCH   5  28
BRANCH   1  32
ATOM     32  C   UNL     1      -0.788  13.216  19.130  0.00  0.00    +0.000 C 
BRANCH  32  40
ATOM     33  C   UNL     1       1.823  16.059  21.807  0.00  0.00    +0.000 A 
ATOM     34  C   UNL     1       1.436  17.290  22.347  0.00  0.00    +0.000 A 
ATOM     35  C   UNL     1       0.437  18.068  21.742  0.00  0.00    +0.000 A 
ATOM     36  C   UNL     1      -0.216  17.612  20.596  0.00  0.00    +0.000 A 
ATOM     37  C   UNL     1       0.145  16.376  20.084  0.00  0.00    +0.000 A 
ATOM     38  C   UNL     1       1.161  15.618  20.668  0.00  0.00    +0.000 A 
ATOM     39  C   UNL     1       1.263  14.326  19.935  0.00  0.00    +0.000 C 
ATOM     40  N   UNL     1       0.195  14.291  18.903  0.00  0.00    +0.000 NA
ATOM     41  C   UNL     1      -0.461  15.627  18.938  0.00  0.00    +0.000 C 
BRANCH  33  43
ATOM     42  C   UNL     1       3.760  14.677  21.824  0.00  0.00    +0.000 C 
ATOM     43  O   UNL     1       2.756  15.384  22.539  0.00  0.00    +0.000 OA
ENDBRANCH  33  43
ENDBRANCH  32  40
ENDBRANCH   1  32
TORSDOF 8
ENDMDL
MODEL 8
REMARK VINA RESULT:      -9.2      2.426      3.629
REMARK  Name = 
REMARK  10 active torsions:
REMARK  status: ('A' for Active; 'I' for Inactive)
REMARK    1  A    between atoms: C_1  and  O_2
REMARK    2  A    between atoms: O_2  and  C_3
REMARK    3  A    between atoms: N_10  and  C_11
REMARK    4  A    between atoms: C_11  and  C_12
REMARK    5  A    between atoms: C_16  and  C_17
REMARK    6  A    between atoms: N_23  and  C_24
REMARK    7  A    between atoms: C_28  and  C_29
REMARK    8  A    between atoms: C_29  and  C_30
REMARK    9  A    between atoms: C_30  and  C_31
REMARK   10  A    between atoms: N_35  and  C_36
REMARK                            x       y       z     vdW  Elec       q    Type
REMARK                         _______ _______ _______ _____ _____    ______ ____
ROOT
ATOM      1  C   UNL     1      -0.342  11.771  19.607  0.00  0.00    +0.000 A 
ATOM      2  C   UNL     1       0.589  11.025  18.871  0.00  0.00    +0.000 A 
ATOM      3  C   UNL     1       1.036   9.834  19.397  0.00  0.00    +0.000 A 
ATOM      4  C   UNL     1       0.672   9.382  20.657  0.00  0.00    +0.000 A 
ATOM      5  C   UNL     1      -0.171  10.143  21.462  0.00  0.00    +0.000 A 
ATOM      6  C   UNL     1      -0.701  11.330  20.903  0.00  0.00    +0.000 A 
ATOM      7  C   UNL     1       1.282   8.036  20.886  0.00  0.00    +0.000 C 
ATOM      8  N   UNL     1       2.009   7.777  19.647  0.00  0.00    +0.000 N 
ATOM      9  C   UNL     1       1.874   8.827  18.743  0.00  0.00    +0.000 C 
ATOM     10  O   UNL     1       2.275   8.961  17.602  0.00  0.00    +0.000 OA
ENDROOT
BRANCH   8  11
ATOM     11  C   UNL     1       2.680   6.556  19.402  0.00  0.00    +0.000 A 
ATOM     12  C   UNL     1       2.155   5.327  19.804  0.00  0.00    +0.000 A 
ATOM     13  C   UNL     1       2.856   4.144  19.572  0.00  0.00    +0.000 A 
ATOM     14  C   UNL     1       4.114   4.182  18.974  0.00  0.00    +0.000 A 
ATOM     15  C   UNL     1       4.703   5.397  18.584  0.00  0.00    +0.000 A 
ATOM     16  C   UNL     1       3.928   6.561  18.767  0.00  0.00    +0.000 A 
BRANCH  15  17
ATOM     17  C   UNL     1       6.196   5.494  18.024  0.00  0.00    +0.000 C 
ATOM     18  C   UNL     1       7.347   5.794  19.034  0.00  0.00    +0.000 C 
ATOM     19  O   UNL     1       8.152   4.725  18.463  0.00  0.00    +0.000 OA
ATOM     20  C   UNL     1       6.952   4.140  17.900  0.00  0.00    +0.000 C 
BRANCH  17  21
ATOM     21  C   UNL     1       6.271   6.345  16.743  0.00  0.00    +0.000 C 
BRANCH  21  22
ATOM     22  C   UNL     1       6.549   5.534  15.520  0.00  0.00    +0.000 A 
ATOM     23  N   UNL     1       7.659   5.562  14.809  0.00  0.00    +0.000 NA
ATOM     24  N   UNL     1       7.534   4.668  13.774  0.00  0.00    +0.000 NA
ATOM     25  C   UNL     1       6.352   4.109  13.872  0.00  0.00    +0.000 A 
ATOM     26  N   UNL     1       5.692   4.631  14.942  0.00  0.00    +0.000 N 
ATOM     27  C   UNL     1       4.367   4.274  15.350  0.00  0.00    +0.000 C 
ENDBRANCH  21  22
ENDBRANCH  17  21
ENDBRANCH  15  17
ENDBRANCH   8  11
BRANCH   5  28
ATOM     28  C   UNL     1      -0.517   9.740  22.874  0.00  0.00    +0.000 C 
ATOM     29  F   UNL     1      -1.335  10.623  23.506  0.00  0.00    +0.000 F 
ATOM     30  F   UNL     1      -1.161   8.541  22.920  0.00  0.00    +0.000 F 
ATOM     31  F   UNL     1       0.580   9.611  23.668  0.00  0.00    +0.000 F 
ENDBRANCH   5  28
BRANCH   1  32
ATOM     32  C   UNL     1      -0.978  12.999  18.972  0.00  0.00    +0.000 C 
BRANCH  32  40
ATOM     33  C   UNL     1       3.149  15.231  18.720  0.00  0.00    +0.000 A 
ATOM     34  C   UNL     1       4.241  15.071  19.580  0.00  0.00    +0.000 A 
ATOM     35  C   UNL     1       4.069  14.636  20.902  0.00  0.00    +0.000 A 
ATOM     36  C   UNL     1       2.796  14.323  21.382  0.00  0.00    +0.000 A 
ATOM     37  C   UNL     1       1.721  14.448  20.517  0.00  0.00    +0.000 A 
ATOM     38  C   UNL     1       1.890  14.912  19.212  0.00  0.00    +0.000 A 
ATOM     39  C   UNL     1       0.570  14.869  18.524  0.00  0.00    +0.000 C 
ATOM     40  N   UNL     1      -0.422  14.276  19.457  0.00  0.00    +0.000 NA
ATOM     41  C   UNL     1       0.287  14.088  20.754  0.00  0.00    +0.000 C 
BRANCH  33  43
ATOM     42  C   UNL     1       2.983  16.841  16.976  0.00  0.00    +0.000 C 
ATOM     43  O   UNL     1       3.475  15.593  17.445  0.00  0.00    +0.000 OA
ENDBRANCH  33  43
ENDBRANCH  32  40
ENDBRANCH   1  32
TORSDOF 8
ENDMDL
MODEL 9
REMARK VINA RESULT:      -9.2      2.604      3.986
REMARK  Name = 
REMARK  10 active torsions:
REMARK  status: ('A' for Active; 'I' for Inactive)
REMARK    1  A    between atoms: C_1  and  O_2
REMARK    2  A    between atoms: O_2  and  C_3
REMARK    3  A    between atoms: N_10  and  C_11
REMARK    4  A    between atoms: C_11  and  C_12
REMARK    5  A    between atoms: C_16  and  C_17
REMARK    6  A    between atoms: N_23  and  C_24
REMARK    7  A    between atoms: C_28  and  C_29
REMARK    8  A    between atoms: C_29  and  C_30
REMARK    9  A    between atoms: C_30  and  C_31
REMARK   10  A    between atoms: N_35  and  C_36
REMARK                            x       y       z     vdW  Elec       q    Type
REMARK                         _______ _______ _______ _____ _____    ______ ____
ROOT
ATOM      1  C   UNL     1      -0.242  11.804  19.425  0.00  0.00    +0.000 A 
ATOM      2  C   UNL     1       0.640  11.074  18.615  0.00  0.00    +0.000 A 
ATOM      3  C   UNL     1       1.106   9.865  19.080  0.00  0.00    +0.000 A 
ATOM      4  C   UNL     1       0.810   9.378  20.344  0.00  0.00    +0.000 A 
ATOM      5  C   UNL     1       0.020  10.120  21.218  0.00  0.00    +0.000 A 
ATOM      6  C   UNL     1      -0.531  11.327  20.725  0.00  0.00    +0.000 A 
ATOM      7  C   UNL     1       1.420   8.021  20.498  0.00  0.00    +0.000 C 
ATOM      8  N   UNL     1       2.074   7.795  19.213  0.00  0.00    +0.000 N 
ATOM      9  C   UNL     1       1.896   8.873  18.349  0.00  0.00    +0.000 C 
ATOM     10  O   UNL     1       2.233   9.038  17.191  0.00  0.00    +0.000 OA
ENDROOT
BRANCH   8  11
ATOM     11  C   UNL     1       2.719   6.578  18.893  0.00  0.00    +0.000 A 
ATOM     12  C   UNL     1       2.340   5.364  19.468  0.00  0.00    +0.000 A 
ATOM     13  C   UNL     1       3.016   4.185  19.153  0.00  0.00    +0.000 A 
ATOM     14  C   UNL     1       4.111   4.216  18.292  0.00  0.00    +0.000 A 
ATOM     15  C   UNL     1       4.556   5.419  17.715  0.00  0.00    +0.000 A 
ATOM     16  C   UNL     1       3.797   6.572  18.000  0.00  0.00    +0.000 A 
BRANCH  15  17
ATOM     17  C   UNL     1       5.886   5.516  16.836  0.00  0.00    +0.000 C 
ATOM     18  C   UNL     1       7.151   6.168  17.478  0.00  0.00    +0.000 C 
ATOM     19  O   UNL     1       7.980   5.073  17.000  0.00  0.00    +0.000 OA
ATOM     20  C   UNL     1       6.795   4.253  16.857  0.00  0.00    +0.000 C 
BRANCH  17  21
ATOM     21  C   UNL     1       5.593   6.023  15.413  0.00  0.00    +0.000 C 
BRANCH  21  22
ATOM     22  C   UNL     1       5.791   4.975  14.368  0.00  0.00    +0.000 A 
ATOM     23  N   UNL     1       4.943   4.012  14.068  0.00  0.00    +0.000 NA
ATOM     24  N   UNL     1       5.479   3.263  13.049  0.00  0.00    +0.000 NA
ATOM     25  C   UNL     1       6.644   3.782  12.745  0.00  0.00    +0.000 A 
ATOM     26  N   UNL     1       6.890   4.848  13.556  0.00  0.00    +0.000 N 
ATOM     27  C   UNL     1       8.074   5.652  13.527  0.00  0.00    +0.000 C 
ENDBRANCH  21  22
ENDBRANCH  17  21
ENDBRANCH  15  17
ENDBRANCH   8  11
BRANCH   5  28
ATOM     28  C   UNL     1      -0.248   9.677  22.634  0.00  0.00    +0.000 C 
ATOM     29  F   UNL     1      -0.936   8.506  22.717  0.00  0.00    +0.000 F 
ATOM     30  F   UNL     1       0.902   9.479  23.335  0.00  0.00    +0.000 F 
ATOM     31  F   UNL     1      -0.971  10.586  23.343  0.00  0.00    +0.000 F 
ENDBRANCH   5  28
BRANCH   1  32
ATOM     32  C   UNL     1      -0.903  13.055  18.864  0.00  0.00    +0.000 C 
BRANCH  32  40
ATOM     33  C   UNL     1       3.475  14.746  19.088  0.00  0.00    +0.000 A 
ATOM     34  C   UNL     1       4.386  14.574  20.136  0.00  0.00    +0.000 A 
ATOM     35  C   UNL     1       3.950  14.336  21.448  0.00  0.00    +0.000 A 
ATOM     36  C   UNL     1       2.588  14.236  21.732  0.00  0.00    +0.000 A 
ATOM     37  C   UNL     1       1.689  14.372  20.686  0.00  0.00    +0.000 A 
ATOM     38  C   UNL     1       2.123  14.641  19.388  0.00  0.00    +0.000 A 
ATOM     39  C   UNL     1       0.934  14.661  18.491  0.00  0.00    +0.000 C 
ATOM     40  N   UNL     1      -0.264  14.312  19.297  0.00  0.00    +0.000 NA
ATOM     41  C   UNL     1       0.200  14.213  20.709  0.00  0.00    +0.000 C 
BRANCH  33  43
ATOM     42  C   UNL     1       5.461  14.844  17.784  0.00  0.00    +0.000 C 
ATOM     43  O   UNL     1       4.044  14.901  17.858  0.00  0.00    +0.000 OA
ENDBRANCH  33  43
ENDBRANCH  32  40
ENDBRANCH   1  32
TORSDOF 8
ENDMDL
