MODEL 1
REMARK VINA RESULT:      -9.5      0.000      0.000
REMARK  Name = 
REMARK  10 active torsions:
REMARK  status: ('A' for Active; 'I' for Inactive)
REMARK    1  A    between atoms: C_1  and  C_2
REMARK    2  A    between atoms: C_2  and  S_3
REMARK    3  A    between atoms: C_2  and  C_10
REMARK    4  A    between atoms: S_3  and  C_4
REMARK    5  A    between atoms: N_8  and  C_9
REMARK    6  A    between atoms: C_14  and  N_15
REMARK    7  A    between atoms: C_16  and  C_18
REMARK    8  A    between atoms: C_20  and  C_21
REMARK    9  A    between atoms: C_21  and  O_22
REMARK   10  A    between atoms: C_27  and  C_28
REMARK                            x       y       z     vdW  Elec       q    Type
REMARK                         _______ _______ _______ _____ _____    ______ ____
ROOT
ATOM      1  N   UNL     1       1.684   7.653  19.770  0.00  0.00    +0.000 N 
ATOM      2  C   UNL     1       2.453   7.635  18.618  0.00  0.00    +0.000 C 
ATOM      3  O   UNL     1       2.737   8.600  17.911  0.00  0.00    +0.000 OA
ATOM      4  H   UNL     1       1.658   6.786  20.302  0.00  0.00    +0.000 HD
ENDROOT
BRANCH   1   9
ATOM      5  C   UNL     1      -0.110  10.926  19.970  0.00  0.00    +0.000 A 
ATOM      6  C   UNL     1      -0.257  11.040  21.364  0.00  0.00    +0.000 A 
ATOM      7  C   UNL     1       0.251  10.066  22.217  0.00  0.00    +0.000 A 
ATOM      8  C   UNL     1       0.896   8.947  21.700  0.00  0.00    +0.000 A 
ATOM      9  C   UNL     1       1.069   8.798  20.324  0.00  0.00    +0.000 A 
ATOM     10  C   UNL     1       0.597   9.803  19.471  0.00  0.00    +0.000 A 
BRANCH   5  12
ATOM     11  C   UNL     1      -0.331  13.408  19.300  0.00  0.00    +0.000 C 
ATOM     12  C   UNL     1      -0.697  11.948  18.987  0.00  0.00    +0.000 C 
BRANCH  12  13
ATOM     13  S   UNL     1      -2.537  11.763  18.954  0.00  0.00    +0.000 S 
BRANCH  13  14
ATOM     14  C   UNL     1      -2.821  11.043  17.413  0.00  0.00    +0.000 A 
ATOM     15  N   UNL     1      -2.000  10.292  16.716  0.00  0.00    +0.000 NA
ATOM     16  N   UNL     1      -2.596  10.046  15.496  0.00  0.00    +0.000 NA
ATOM     17  C   UNL     1      -3.769  10.637  15.500  0.00  0.00    +0.000 A 
ATOM     18  N   UNL     1      -3.971  11.240  16.705  0.00  0.00    +0.000 N 
ATOM     19  C   UNL     1      -5.157  11.943  17.113  0.00  0.00    +0.000 C 
ENDBRANCH  13  14
ENDBRANCH  12  13
ENDBRANCH   5  12
ENDBRANCH   1   9
BRANCH   2  20
ATOM     20  C   UNL     1       3.032   6.315  18.253  0.00  0.00    +0.000 A 
ATOM     21  C   UNL     1       4.359   6.257  17.834  0.00  0.00    +0.000 A 
ATOM     22  C   UNL     1       4.960   5.020  17.576  0.00  0.00    +0.000 A 
ATOM     23  C   UNL     1       4.135   3.894  17.761  0.00  0.00    +0.000 A 
ATOM     24  C   UNL     1       2.804   4.018  18.181  0.00  0.00    +0.000 A 
ATOM     25  N   UNL     1       2.238   5.233  18.421  0.00  0.00    +0.000 NA
BRANCH  22  26
ATOM     26  C   UNL     1       6.483   4.893  17.087  0.00  0.00    +0.000 C 
ATOM     27  C   UNL     1       6.743   4.485  15.603  0.00  0.00    +0.000 C 
ATOM     28  O   UNL     1       7.668   5.583  15.415  0.00  0.00    +0.000 OA
ATOM     29  C   UNL     1       7.174   6.212  16.622  0.00  0.00    +0.000 C 
BRANCH  26  30
ATOM     30  O   UNL     1       7.250   4.141  18.070  0.00  0.00    +0.000 OA
ATOM     31  H   UNL     1       7.298   4.719  18.851  0.00  0.00    +0.000 HD
ENDBRANCH  26  30
ENDBRANCH  22  26
BRANCH  24  32
ATOM     32  C   UNL     1       1.963   2.770  18.416  0.00  0.00    +0.000 C 
ATOM     33  F   UNL     1       2.129   2.231  19.660  0.00  0.00    +0.000 F 
ATOM     34  F   UNL     1       0.628   3.014  18.299  0.00  0.00    +0.000 F 
ATOM     35  F   UNL     1       2.244   1.766  17.539  0.00  0.00    +0.000 F 
ENDBRANCH  24  32
ENDBRANCH   2  20
TORSDOF 8
ENDMDL
MODEL 2
REMARK VINA RESULT:      -9.2      2.265      3.167
REMARK  Name = 
REMARK  10 active torsions:
REMARK  status: ('A' for Active; 'I' for Inactive)
REMARK    1  A    between atoms: C_1  and  C_2
REMARK    2  A    between atoms: C_2  and  S_3
REMARK    3  A    between atoms: C_2  and  C_10
REMARK    4  A    between atoms: S_3  and  C_4
REMARK    5  A    between atoms: N_8  and  C_9
REMARK    6  A    between atoms: C_14  and  N_15
REMARK    7  A    between atoms: C_16  and  C_18
REMARK    8  A    between atoms: C_20  and  C_21
REMARK    9  A    between atoms: C_21  and  O_22
REMARK   10  A    between atoms: C_27  and  C_28
REMARK                            x       y       z     vdW  Elec       q    Type
REMARK                         _______ _______ _______ _____ _____    ______ ____
ROOT
ATOM      1  N   UNL     1       2.221   8.506  17.888  0.00  0.00    +0.000 N 
ATOM      2  C   UNL     1       2.397   7.540  18.865  0.00  0.00    +0.000 C 
ATOM      3  O   UNL     1       2.062   7.621  20.045  0.00  0.00    +0.000 OA
ATOM      4  H   UNL     1       2.440   8.222  16.935  0.00  0.00    +0.000 HD
ENDROOT
BRANCH   1   9
ATOM      5  C   UNL     1      -0.370  11.111  18.571  0.00  0.00    +0.000 A 
ATOM      6  C   UNL     1       0.440  12.260  18.606  0.00  0.00    +0.000 A 
ATOM      7  C   UNL     1       1.811  12.174  18.382  0.00  0.00    +0.000 A 
ATOM      8  C   UNL     1       2.405  10.940  18.141  0.00  0.00    +0.000 A 
ATOM      9  C   UNL     1       1.638   9.776  18.091  0.00  0.00    +0.000 A 
ATOM     10  C   UNL     1       0.252   9.874  18.272  0.00  0.00    +0.000 A 
BRANCH   5  12
ATOM     11  C   UNL     1      -2.765  11.015  17.615  0.00  0.00    +0.000 C 
ATOM     12  C   UNL     1      -1.877  11.149  18.862  0.00  0.00    +0.000 C 
BRANCH  12  13
ATOM     13  S   UNL     1      -2.280  12.725  19.744  0.00  0.00    +0.000 S 
BRANCH  13  14
ATOM     14  C   UNL     1      -2.021  12.314  21.399  0.00  0.00    +0.000 A 
ATOM     15  N   UNL     1      -0.926  11.836  21.944  0.00  0.00    +0.000 NA
ATOM     16  N   UNL     1      -1.215  11.538  23.260  0.00  0.00    +0.000 NA
ATOM     17  C   UNL     1      -2.469  11.863  23.477  0.00  0.00    +0.000 A 
ATOM     18  N   UNL     1      -3.003  12.397  22.343  0.00  0.00    +0.000 N 
ATOM     19  C   UNL     1      -4.334  12.922  22.198  0.00  0.00    +0.000 C 
ENDBRANCH  13  14
ENDBRANCH  12  13
ENDBRANCH   5  12
ENDBRANCH   1   9
BRANCH   2  20
ATOM     20  C   UNL     1       2.998   6.261  18.402  0.00  0.00    +0.000 A 
ATOM     21  C   UNL     1       4.326   6.255  17.984  0.00  0.00    +0.000 A 
ATOM     22  C   UNL     1       4.946   5.051  17.634  0.00  0.00    +0.000 A 
ATOM     23  C   UNL     1       4.138   3.901  17.730  0.00  0.00    +0.000 A 
ATOM     24  C   UNL     1       2.804   3.972  18.155  0.00  0.00    +0.000 A 
ATOM     25  N   UNL     1       2.219   5.156  18.485  0.00  0.00    +0.000 NA
BRANCH  22  26
ATOM     26  C   UNL     1       6.472   4.985  17.141  0.00  0.00    +0.000 C 
ATOM     27  C   UNL     1       6.741   4.731  15.624  0.00  0.00    +0.000 C 
ATOM     28  O   UNL     1       7.658   5.850  15.553  0.00  0.00    +0.000 OA
ATOM     29  C   UNL     1       7.155   6.349  16.816  0.00  0.00    +0.000 C 
BRANCH  26  30
ATOM     30  O   UNL     1       7.241   4.142  18.045  0.00  0.00    +0.000 OA
ATOM     31  H   UNL     1       6.942   4.388  18.938  0.00  0.00    +0.000 HD
ENDBRANCH  26  30
ENDBRANCH  22  26
BRANCH  24  32
ATOM     32  C   UNL     1       1.983   2.697  18.291  0.00  0.00    +0.000 C 
ATOM     33  F   UNL     1       2.189   2.044  19.472  0.00  0.00    +0.000 F 
ATOM     34  F   UNL     1       0.642   2.936  18.233  0.00  0.00    +0.000 F 
ATOM     35  F   UNL     1       2.249   1.786  17.314  0.00  0.00    +0.000 F 
ENDBRANCH  24  32
ENDBRANCH   2  20
TORSDOF 8
ENDMDL
MODEL 3
REMARK VINA RESULT:      -9.2      1.374      1.584
REMARK  Name = 
REMARK  10 active torsions:
REMARK  status: ('A' for Active; 'I' for Inactive)
REMARK    1  A    between atoms: C_1  and  C_2
REMARK    2  A    between atoms: C_2  and  S_3
REMARK    3  A    between atoms: C_2  and  C_10
REMARK    4  A    between atoms: S_3  and  C_4
REMARK    5  A    between atoms: N_8  and  C_9
REMARK    6  A    between atoms: C_14  and  N_15
REMARK    7  A    between atoms: C_16  and  C_18
REMARK    8  A    between atoms: C_20  and  C_21
REMARK    9  A    between atoms: C_21  and  O_22
REMARK   10  A    between atoms: C_27  and  C_28
REMARK                            x       y       z     vdW  Elec       q    Type
REMARK                         _______ _______ _______ _____ _____    ______ ____
ROOT
ATOM      1  N   UNL     1       2.121   7.662  20.111  0.00  0.00    +0.000 N 
ATOM      2  C   UNL     1       1.868   6.311  20.286  0.00  0.00    +0.000 C 
ATOM      3  O   UNL     1       0.912   5.816  20.880  0.00  0.00    +0.000 OA
ATOM      4  H   UNL     1       2.888   7.894  19.482  0.00  0.00    +0.000 HD
ENDROOT
BRANCH   1   9
ATOM      5  C   UNL     1       0.039  10.765  20.176  0.00  0.00    +0.000 A 
ATOM      6  C   UNL     1      -0.350  10.771  21.527  0.00  0.00    +0.000 A 
ATOM      7  C   UNL     1       0.091   9.782  22.401  0.00  0.00    +0.000 A 
ATOM      8  C   UNL     1       0.909   8.755  21.943  0.00  0.00    +0.000 A 
ATOM      9  C   UNL     1       1.324   8.714  20.612  0.00  0.00    +0.000 A 
ATOM     10  C   UNL     1       0.915   9.737  19.747  0.00  0.00    +0.000 A 
BRANCH   5  12
ATOM     11  C   UNL     1       0.148  13.204  19.343  0.00  0.00    +0.000 C 
ATOM     12  C   UNL     1      -0.461  11.805  19.164  0.00  0.00    +0.000 C 
BRANCH  12  13
ATOM     13  S   UNL     1      -2.305  11.912  19.273  0.00  0.00    +0.000 S 
BRANCH  13  14
ATOM     14  C   UNL     1      -2.812  11.360  17.720  0.00  0.00    +0.000 A 
ATOM     15  N   UNL     1      -2.068  10.837  16.773  0.00  0.00    +0.000 NA
ATOM     16  N   UNL     1      -2.870  10.662  15.664  0.00  0.00    +0.000 NA
ATOM     17  C   UNL     1      -4.079  11.065  15.980  0.00  0.00    +0.000 A 
ATOM     18  N   UNL     1      -4.099  11.472  17.279  0.00  0.00    +0.000 N 
ATOM     19  C   UNL     1      -5.251  11.931  18.008  0.00  0.00    +0.000 C 
ENDBRANCH  13  14
ENDBRANCH  12  13
ENDBRANCH   5  12
ENDBRANCH   1   9
BRANCH   2  20
ATOM     20  C   UNL     1       2.828   5.387  19.628  0.00  0.00    +0.000 A 
ATOM     21  C   UNL     1       4.143   5.805  19.442  0.00  0.00    +0.000 A 
ATOM     22  C   UNL     1       5.092   4.924  18.912  0.00  0.00    +0.000 A 
ATOM     23  C   UNL     1       4.614   3.638  18.592  0.00  0.00    +0.000 A 
ATOM     24  C   UNL     1       3.276   3.277  18.799  0.00  0.00    +0.000 A 
ATOM     25  N   UNL     1       2.368   4.154  19.311  0.00  0.00    +0.000 NA
BRANCH  22  26
ATOM     26  C   UNL     1       6.620   5.353  18.673  0.00  0.00    +0.000 C 
ATOM     27  C   UNL     1       7.410   4.639  17.531  0.00  0.00    +0.000 C 
ATOM     28  O   UNL     1       7.860   5.904  16.989  0.00  0.00    +0.000 OA
ATOM     29  C   UNL     1       6.856   6.600  17.766  0.00  0.00    +0.000 C 
BRANCH  26  30
ATOM     30  O   UNL     1       7.316   5.412  19.950  0.00  0.00    +0.000 OA
ATOM     31  H   UNL     1       7.878   4.619  19.970  0.00  0.00    +0.000 HD
ENDBRANCH  26  30
ENDBRANCH  22  26
BRANCH  24  32
ATOM     32  C   UNL     1       2.815   1.860  18.484  0.00  0.00    +0.000 C 
ATOM     33  F   UNL     1       2.331   1.718  17.216  0.00  0.00    +0.000 F 
ATOM     34  F   UNL     1       3.824   0.951  18.595  0.00  0.00    +0.000 F 
ATOM     35  F   UNL     1       1.822   1.428  19.310  0.00  0.00    +0.000 F 
ENDBRANCH  24  32
ENDBRANCH   2  20
TORSDOF 8
ENDMDL
MODEL 4
REMARK VINA RESULT:      -9.2      2.372      3.481
REMARK  Name = 
REMARK  10 active torsions:
REMARK  status: ('A' for Active; 'I' for Inactive)
REMARK    1  A    between atoms: C_1  and  C_2
REMARK    2  A    between atoms: C_2  and  S_3
REMARK    3  A    between atoms: C_2  and  C_10
REMARK    4  A    between atoms: S_3  and  C_4
REMARK    5  A    between atoms: N_8  and  C_9
REMARK    6  A    between atoms: C_14  and  N_15
REMARK    7  A    between atoms: C_16  and  C_18
REMARK    8  A    between atoms: C_20  and  C_21
REMARK    9  A    between atoms: C_21  and  O_22
REMARK   10  A    between atoms: C_27  and  C_28
REMARK                            x       y       z     vdW  Elec       q    Type
REMARK                         _______ _______ _______ _____ _____    ______ ____
ROOT
ATOM      1  N   UNL     1       1.930   8.831  17.919  0.00  0.00    +0.000 N 
ATOM      2  C   UNL     1       2.157   7.799  18.816  0.00  0.00    +0.000 C 
ATOM      3  O   UNL     1       1.891   7.800  20.016  0.00  0.00    +0.000 OA
ATOM      4  H   UNL     1       2.092   8.612  16.938  0.00  0.00    +0.000 HD
ENDROOT
BRANCH   1   9
ATOM      5  C   UNL     1      -0.606  11.389  18.915  0.00  0.00    +0.000 A 
ATOM      6  C   UNL     1       0.213  12.529  18.995  0.00  0.00    +0.000 A 
ATOM      7  C   UNL     1       1.571  12.454  18.699  0.00  0.00    +0.000 A 
ATOM      8  C   UNL     1       2.144  11.239  18.340  0.00  0.00    +0.000 A 
ATOM      9  C   UNL     1       1.367  10.085  18.242  0.00  0.00    +0.000 A 
ATOM     10  C   UNL     1      -0.008  10.174  18.497  0.00  0.00    +0.000 A 
BRANCH   5  12
ATOM     11  C   UNL     1      -3.041  11.140  18.099  0.00  0.00    +0.000 C 
ATOM     12  C   UNL     1      -2.097  11.411  19.281  0.00  0.00    +0.000 C 
BRANCH  12  13
ATOM     13  S   UNL     1      -2.505  13.049  20.038  0.00  0.00    +0.000 S 
BRANCH  13  14
ATOM     14  C   UNL     1      -3.181  12.606  21.563  0.00  0.00    +0.000 A 
ATOM     15  N   UNL     1      -4.452  12.521  21.882  0.00  0.00    +0.000 NA
ATOM     16  N   UNL     1      -4.524  12.259  23.234  0.00  0.00    +0.000 NA
ATOM     17  C   UNL     1      -3.294  12.172  23.689  0.00  0.00    +0.000 A 
ATOM     18  N   UNL     1      -2.416  12.340  22.661  0.00  0.00    +0.000 N 
ATOM     19  C   UNL     1      -0.983  12.261  22.749  0.00  0.00    +0.000 C 
ENDBRANCH  13  14
ENDBRANCH  12  13
ENDBRANCH   5  12
ENDBRANCH   1   9
BRANCH   2  20
ATOM     20  C   UNL     1       2.723   6.554  18.233  0.00  0.00    +0.000 A 
ATOM     21  C   UNL     1       3.910   6.631  17.510  0.00  0.00    +0.000 A 
ATOM     22  C   UNL     1       4.517   5.464  17.031  0.00  0.00    +0.000 A 
ATOM     23  C   UNL     1       3.841   4.263  17.326  0.00  0.00    +0.000 A 
ATOM     24  C   UNL     1       2.645   4.252  18.055  0.00  0.00    +0.000 A 
ATOM     25  N   UNL     1       2.069   5.401  18.507  0.00  0.00    +0.000 NA
BRANCH  22  26
ATOM     26  C   UNL     1       5.883   5.492  16.190  0.00  0.00    +0.000 C 
ATOM     27  C   UNL     1       7.225   5.614  16.978  0.00  0.00    +0.000 C 
ATOM     28  O   UNL     1       7.801   4.498  16.259  0.00  0.00    +0.000 OA
ATOM     29  C   UNL     1       6.486   4.108  15.799  0.00  0.00    +0.000 C 
BRANCH  26  30
ATOM     30  O   UNL     1       5.747   6.413  15.071  0.00  0.00    +0.000 OA
ATOM     31  H   UNL     1       5.746   5.850  14.277  0.00  0.00    +0.000 HD
ENDBRANCH  26  30
ENDBRANCH  22  26
BRANCH  24  32
ATOM     32  C   UNL     1       1.975   2.927  18.393  0.00  0.00    +0.000 C 
ATOM     33  F   UNL     1       2.350   2.423  19.605  0.00  0.00    +0.000 F 
ATOM     34  F   UNL     1       0.617   3.031  18.445  0.00  0.00    +0.000 F 
ATOM     35  F   UNL     1       2.246   1.948  17.486  0.00  0.00    +0.000 F 
ENDBRANCH  24  32
ENDBRANCH   2  20
TORSDOF 8
ENDMDL
MODEL 5
REMARK VINA RESULT:      -9.2      2.362      3.460
REMARK  Name = 
REMARK  10 active torsions:
REMARK  status: ('A' for Active; 'I' for Inactive)
REMARK    1  A    between atoms: C_1  and  C_2
REMARK    2  A    between atoms: C_2  and  S_3
REMARK    3  A    between atoms: C_2  and  C_10
REMARK    4  A    between atoms: S_3  and  C_4
REMARK    5  A    between atoms: N_8  and  C_9
REMARK    6  A    between atoms: C_14  and  N_15
REMARK    7  A    between atoms: C_16  and  C_18
REMARK    8  A    between atoms: C_20  and  C_21
REMARK    9  A    between atoms: C_21  and  O_22
REMARK   10  A    between atoms: C_27  and  C_28
REMARK                            x       y       z     vdW  Elec       q    Type
REMARK                         _______ _______ _______ _____ _____    ______ ____
ROOT
ATOM      1  N   UNL     1       1.920   8.415  17.974  0.00  0.00    +0.000 N 
ATOM      2  C   UNL     1       2.232   7.513  18.977  0.00  0.00    +0.000 C 
ATOM      3  O   UNL     1       2.147   7.705  20.189  0.00  0.00    +0.000 OA
ATOM      4  H   UNL     1       1.924   8.046  17.025  0.00  0.00    +0.000 HD
ENDROOT
BRANCH   1   9
ATOM      5  C   UNL     1      -0.379  11.258  18.749  0.00  0.00    +0.000 A 
ATOM      6  C   UNL     1       0.529  12.330  18.695  0.00  0.00    +0.000 A 
ATOM      7  C   UNL     1       1.868  12.116  18.382  0.00  0.00    +0.000 A 
ATOM      8  C   UNL     1       2.334  10.828  18.140  0.00  0.00    +0.000 A 
ATOM      9  C   UNL     1       1.466   9.737  18.176  0.00  0.00    +0.000 A 
ATOM     10  C   UNL     1       0.110   9.963  18.447  0.00  0.00    +0.000 A 
BRANCH   5  12
ATOM     11  C   UNL     1      -2.835  11.337  17.961  0.00  0.00    +0.000 C 
ATOM     12  C   UNL     1      -1.853  11.439  19.139  0.00  0.00    +0.000 C 
BRANCH  12  13
ATOM     13  S   UNL     1      -2.058  13.075  19.977  0.00  0.00    +0.000 S 
BRANCH  13  14
ATOM     14  C   UNL     1      -2.867  12.655  21.441  0.00  0.00    +0.000 A 
ATOM     15  N   UNL     1      -4.143  12.790  21.719  0.00  0.00    +0.000 NA
ATOM     16  N   UNL     1      -4.319  12.445  23.043  0.00  0.00    +0.000 NA
ATOM     17  C   UNL     1      -3.147  12.092  23.521  0.00  0.00    +0.000 A 
ATOM     18  N   UNL     1      -2.212  12.167  22.535  0.00  0.00    +0.000 N 
ATOM     19  C   UNL     1      -0.824  11.809  22.653  0.00  0.00    +0.000 C 
ENDBRANCH  13  14
ENDBRANCH  12  13
ENDBRANCH   5  12
ENDBRANCH   1   9
BRANCH   2  20
ATOM     20  C   UNL     1       2.650   6.162  18.518  0.00  0.00    +0.000 A 
ATOM     21  C   UNL     1       3.806   6.041  17.753  0.00  0.00    +0.000 A 
ATOM     22  C   UNL     1       4.277   4.774  17.387  0.00  0.00    +0.000 A 
ATOM     23  C   UNL     1       3.503   3.686  17.836  0.00  0.00    +0.000 A 
ATOM     24  C   UNL     1       2.344   3.874  18.601  0.00  0.00    +0.000 A 
ATOM     25  N   UNL     1       1.902   5.116  18.941  0.00  0.00    +0.000 NA
BRANCH  22  26
ATOM     26  C   UNL     1       5.601   4.575  16.503  0.00  0.00    +0.000 C 
ATOM     27  C   UNL     1       5.840   5.557  15.312  0.00  0.00    +0.000 C 
ATOM     28  O   UNL     1       7.196   5.822  15.745  0.00  0.00    +0.000 OA
ATOM     29  C   UNL     1       6.902   5.248  17.040  0.00  0.00    +0.000 C 
BRANCH  26  30
ATOM     30  O   UNL     1       5.760   3.166  16.172  0.00  0.00    +0.000 OA
ATOM     31  H   UNL     1       6.103   2.752  16.983  0.00  0.00    +0.000 HD
ENDBRANCH  26  30
ENDBRANCH  22  26
BRANCH  24  32
ATOM     32  C   UNL     1       1.566   2.666  19.106  0.00  0.00    +0.000 C 
ATOM     33  F   UNL     1       0.427   2.419  18.395  0.00  0.00    +0.000 F 
ATOM     34  F   UNL     1       2.294   1.516  19.041  0.00  0.00    +0.000 F 
ATOM     35  F   UNL     1       1.170   2.793  20.404  0.00  0.00    +0.000 F 
ENDBRANCH  24  32
ENDBRANCH   2  20
TORSDOF 8
ENDMDL
MODEL 6
REMARK VINA RESULT:      -9.1      0.796      1.200
REMARK  Name = 
REMARK  10 active torsions:
REMARK  status: ('A' for Active; 'I' for Inactive)
REMARK    1  A    between atoms: C_1  and  C_2
REMARK    2  A    between atoms: C_2  and  S_3
REMARK    3  A    between atoms: C_2  and  C_10
REMARK    4  A    between atoms: S_3  and  C_4
REMARK    5  A    between atoms: N_8  and  C_9
REMARK    6  A    between atoms: C_14  and  N_15
REMARK    7  A    between atoms: C_16  and  C_18
REMARK    8  A    between atoms: C_20  and  C_21
REMARK    9  A    between atoms: C_21  and  O_22
REMARK   10  A    between atoms: C_27  and  C_28
REMARK                            x       y       z     vdW  Elec       q    Type
REMARK                         _______ _______ _______ _____ _____    ______ ____
ROOT
ATOM      1  N   UNL     1       1.597   7.983  19.890  0.00  0.00    +0.000 N 
ATOM      2  C   UNL     1       2.199   8.075  18.646  0.00  0.00    +0.000 C 
ATOM      3  O   UNL     1       2.263   9.076  17.935  0.00  0.00    +0.000 OA
ATOM      4  H   UNL     1       1.751   7.113  20.397  0.00  0.00    +0.000 HD
ENDROOT
BRANCH   1   9
ATOM      5  C   UNL     1      -0.320  11.149  20.408  0.00  0.00    +0.000 A 
ATOM      6  C   UNL     1      -0.512  11.095  21.800  0.00  0.00    +0.000 A 
ATOM      7  C   UNL     1       0.006  10.045  22.552  0.00  0.00    +0.000 A 
ATOM      8  C   UNL     1       0.706   9.016  21.930  0.00  0.00    +0.000 A 
ATOM      9  C   UNL     1       0.925   9.034  20.553  0.00  0.00    +0.000 A 
ATOM     10  C   UNL     1       0.441  10.116  19.807  0.00  0.00    +0.000 A 
BRANCH   5  12
ATOM     11  C   UNL     1      -0.597  13.684  20.014  0.00  0.00    +0.000 C 
ATOM     12  C   UNL     1      -0.915  12.260  19.531  0.00  0.00    +0.000 C 
BRANCH  12  13
ATOM     13  S   UNL     1      -2.748  12.032  19.434  0.00  0.00    +0.000 S 
BRANCH  13  14
ATOM     14  C   UNL     1      -2.977  11.464  17.822  0.00  0.00    +0.000 A 
ATOM     15  N   UNL     1      -2.064  11.299  16.893  0.00  0.00    +0.000 NA
ATOM     16  N   UNL     1      -2.715  10.949  15.728  0.00  0.00    +0.000 NA
ATOM     17  C   UNL     1      -4.000  10.892  15.992  0.00  0.00    +0.000 A 
ATOM     18  N   UNL     1      -4.207  11.166  17.310  0.00  0.00    +0.000 N 
ATOM     19  C   UNL     1      -5.472  11.149  17.993  0.00  0.00    +0.000 C 
ENDBRANCH  13  14
ENDBRANCH  12  13
ENDBRANCH   5  12
ENDBRANCH   1   9
BRANCH   2  20
ATOM     20  C   UNL     1       2.884   6.844  18.171  0.00  0.00    +0.000 A 
ATOM     21  C   UNL     1       4.191   6.941  17.701  0.00  0.00    +0.000 A 
ATOM     22  C   UNL     1       4.894   5.787  17.337  0.00  0.00    +0.000 A 
ATOM     23  C   UNL     1       4.187   4.577  17.476  0.00  0.00    +0.000 A 
ATOM     24  C   UNL     1       2.870   4.544  17.952  0.00  0.00    +0.000 A 
ATOM     25  N   UNL     1       2.203   5.681  18.295  0.00  0.00    +0.000 NA
BRANCH  22  26
ATOM     26  C   UNL     1       6.400   5.840  16.785  0.00  0.00    +0.000 C 
ATOM     27  C   UNL     1       7.437   4.843  17.393  0.00  0.00    +0.000 C 
ATOM     28  O   UNL     1       7.873   4.424  16.077  0.00  0.00    +0.000 OA
ATOM     29  C   UNL     1       6.694   5.022  15.490  0.00  0.00    +0.000 C 
BRANCH  26  30
ATOM     30  O   UNL     1       6.849   7.223  16.723  0.00  0.00    +0.000 OA
ATOM     31  H   UNL     1       6.089   7.750  17.028  0.00  0.00    +0.000 HD
ENDBRANCH  26  30
ENDBRANCH  22  26
BRANCH  24  32
ATOM     32  C   UNL     1       2.161   3.208  18.132  0.00  0.00    +0.000 C 
ATOM     33  F   UNL     1       2.503   2.282  17.188  0.00  0.00    +0.000 F 
ATOM     34  F   UNL     1       2.444   2.629  19.332  0.00  0.00    +0.000 F 
ATOM     35  F   UNL     1       0.804   3.313  18.071  0.00  0.00    +0.000 F 
ENDBRANCH  24  32
ENDBRANCH   2  20
TORSDOF 8
ENDMDL
MODEL 7
REMARK VINA RESULT:      -9.1      1.344      1.590
REMARK  Name = 
REMARK  10 active torsions:
REMARK  status: ('A' for Active; 'I' for Inactive)
REMARK    1  A    between atoms: C_1  and  C_2
REMARK    2  A    between atoms: C_2  and  S_3
REMARK    3  A    between atoms: C_2  and  C_10
REMARK    4  A    between atoms: S_3  and  C_4
REMARK    5  A    between atoms: N_8  and  C_9
REMARK    6  A    between atoms: C_14  and  N_15
REMARK    7  A    between atoms: C_16  and  C_18
REMARK    8  A    between atoms: C_20  and  C_21
REMARK    9  A    between atoms: C_21  and  O_22
REMARK   10  A    between atoms: C_27  and  C_28
REMARK                            x       y       z     vdW  Elec       q    Type
REMARK                         _______ _______ _______ _____ _____    ______ ____
ROOT
ATOM      1  N   UNL     1       2.121   7.744  19.519  0.00  0.00    +0.000 N 
ATOM      2  C   UNL     1       2.142   6.405  19.877  0.00  0.00    +0.000 C 
ATOM      3  O   UNL     1       1.535   5.888  20.813  0.00  0.00    +0.000 OA
ATOM      4  H   UNL     1       2.578   7.977  18.640  0.00  0.00    +0.000 HD
ENDROOT
BRANCH   1   9
ATOM      5  C   UNL     1       0.148  10.868  20.081  0.00  0.00    +0.000 A 
ATOM      6  C   UNL     1      -0.110  10.751  21.458  0.00  0.00    +0.000 A 
ATOM      7  C   UNL     1       0.382   9.673  22.187  0.00  0.00    +0.000 A 
ATOM      8  C   UNL     1       1.122   8.678  21.556  0.00  0.00    +0.000 A 
ATOM      9  C   UNL     1       1.407   8.759  20.193  0.00  0.00    +0.000 A 
ATOM     10  C   UNL     1       0.948   9.869  19.473  0.00  0.00    +0.000 A 
BRANCH   5  12
ATOM     11  C   UNL     1       0.200  13.387  19.526  0.00  0.00    +0.000 C 
ATOM     12  C   UNL     1      -0.415  12.011  19.225  0.00  0.00    +0.000 C 
BRANCH  12  13
ATOM     13  S   UNL     1      -2.249  12.087  19.456  0.00  0.00    +0.000 S 
BRANCH  13  14
ATOM     14  C   UNL     1      -2.848  11.544  17.932  0.00  0.00    +0.000 A 
ATOM     15  N   UNL     1      -2.151  11.189  16.877  0.00  0.00    +0.000 NA
ATOM     16  N   UNL     1      -3.043  10.950  15.852  0.00  0.00    +0.000 NA
ATOM     17  C   UNL     1      -4.253  11.147  16.323  0.00  0.00    +0.000 A 
ATOM     18  N   UNL     1      -4.180  11.479  17.642  0.00  0.00    +0.000 N 
ATOM     19  C   UNL     1      -5.293  11.719  18.519  0.00  0.00    +0.000 C 
ENDBRANCH  13  14
ENDBRANCH  12  13
ENDBRANCH   5  12
ENDBRANCH   1   9
BRANCH   2  20
ATOM     20  C   UNL     1       2.934   5.515  18.988  0.00  0.00    +0.000 A 
ATOM     21  C   UNL     1       3.793   6.089  18.056  0.00  0.00    +0.000 A 
ATOM     22  C   UNL     1       4.622   5.278  17.272  0.00  0.00    +0.000 A 
ATOM     23  C   UNL     1       4.503   3.893  17.496  0.00  0.00    +0.000 A 
ATOM     24  C   UNL     1       3.615   3.375  18.448  0.00  0.00    +0.000 A 
ATOM     25  N   UNL     1       2.814   4.183  19.196  0.00  0.00    +0.000 NA
BRANCH  22  26
ATOM     26  C   UNL     1       5.628   5.885  16.180  0.00  0.00    +0.000 C 
ATOM     27  C   UNL     1       7.107   6.144  16.611  0.00  0.00    +0.000 C 
ATOM     28  O   UNL     1       7.616   5.448  15.448  0.00  0.00    +0.000 OA
ATOM     29  C   UNL     1       6.312   4.862  15.221  0.00  0.00    +0.000 C 
BRANCH  26  30
ATOM     30  O   UNL     1       4.990   6.999  15.493  0.00  0.00    +0.000 OA
ATOM     31  H   UNL     1       4.654   6.625  14.661  0.00  0.00    +0.000 HD
ENDBRANCH  26  30
ENDBRANCH  22  26
BRANCH  24  32
ATOM     32  C   UNL     1       3.556   1.873  18.692  0.00  0.00    +0.000 C 
ATOM     33  F   UNL     1       4.429   1.445  19.650  0.00  0.00    +0.000 F 
ATOM     34  F   UNL     1       2.325   1.463  19.110  0.00  0.00    +0.000 F 
ATOM     35  F   UNL     1       3.842   1.142  17.578  0.00  0.00    +0.000 F 
ENDBRANCH  24  32
ENDBRANCH   2  20
TORSDOF 8
ENDMDL
MODEL 8
REMARK VINA RESULT:      -9.0      1.756      2.539
REMARK  Name = 
REMARK  10 active torsions:
REMARK  status: ('A' for Active; 'I' for Inactive)
REMARK    1  A    between atoms: C_1  and  C_2
REMARK    2  A    between atoms: C_2  and  S_3
REMARK    3  A    between atoms: C_2  and  C_10
REMARK    4  A    between atoms: S_3  and  C_4
REMARK    5  A    between atoms: N_8  and  C_9
REMARK    6  A    between atoms: C_14  and  N_15
REMARK    7  A    between atoms: C_16  and  C_18
REMARK    8  A    between atoms: C_20  and  C_21
REMARK    9  A    between atoms: C_21  and  O_22
REMARK   10  A    between atoms: C_27  and  C_28
REMARK                            x       y       z     vdW  Elec       q    Type
REMARK                         _______ _______ _______ _____ _____    ______ ____
ROOT
ATOM      1  N   UNL     1       1.769   8.307  17.944  0.00  0.00    +0.000 N 
ATOM      2  C   UNL     1       2.232   7.470  18.946  0.00  0.00    +0.000 C 
ATOM      3  O   UNL     1       2.104   7.635  20.157  0.00  0.00    +0.000 OA
ATOM      4  H   UNL     1       1.848   7.951  16.994  0.00  0.00    +0.000 HD
ENDROOT
BRANCH   1   9
ATOM      5  C   UNL     1      -1.037  10.773  18.083  0.00  0.00    +0.000 A 
ATOM      6  C   UNL     1      -0.365  11.877  18.637  0.00  0.00    +0.000 A 
ATOM      7  C   UNL     1       0.993  11.812  18.932  0.00  0.00    +0.000 A 
ATOM      8  C   UNL     1       1.705  10.640  18.704  0.00  0.00    +0.000 A 
ATOM      9  C   UNL     1       1.080   9.523  18.149  0.00  0.00    +0.000 A 
ATOM     10  C   UNL     1      -0.277   9.608  17.811  0.00  0.00    +0.000 A 
BRANCH   5  12
ATOM     11  C   UNL     1      -2.895  10.988  16.306  0.00  0.00    +0.000 C 
ATOM     12  C   UNL     1      -2.543  10.780  17.788  0.00  0.00    +0.000 C 
BRANCH  12  13
ATOM     13  S   UNL     1      -3.349  12.096  18.807  0.00  0.00    +0.000 S 
BRANCH  13  14
ATOM     14  C   UNL     1      -4.971  11.528  18.950  0.00  0.00    +0.000 A 
ATOM     15  N   UNL     1      -5.629  10.762  18.111  0.00  0.00    +0.000 NA
ATOM     16  N   UNL     1      -6.929  10.669  18.565  0.00  0.00    +0.000 NA
ATOM     17  C   UNL     1      -7.013  11.364  19.677  0.00  0.00    +0.000 A 
ATOM     18  N   UNL     1      -5.792  11.886  19.981  0.00  0.00    +0.000 N 
ATOM     19  C   UNL     1      -5.468  12.661  21.147  0.00  0.00    +0.000 C 
ENDBRANCH  13  14
ENDBRANCH  12  13
ENDBRANCH   5  12
ENDBRANCH   1   9
BRANCH   2  20
ATOM     20  C   UNL     1       2.893   6.221  18.484  0.00  0.00    +0.000 A 
ATOM     21  C   UNL     1       4.229   6.272  18.095  0.00  0.00    +0.000 A 
ATOM     22  C   UNL     1       4.905   5.097  17.746  0.00  0.00    +0.000 A 
ATOM     23  C   UNL     1       4.142   3.915  17.814  0.00  0.00    +0.000 A 
ATOM     24  C   UNL     1       2.797   3.929  18.210  0.00  0.00    +0.000 A 
ATOM     25  N   UNL     1       2.158   5.085  18.540  0.00  0.00    +0.000 NA
BRANCH  22  26
ATOM     26  C   UNL     1       6.442   5.098  17.286  0.00  0.00    +0.000 C 
ATOM     27  C   UNL     1       6.750   4.946  15.763  0.00  0.00    +0.000 C 
ATOM     28  O   UNL     1       7.641   6.087  15.784  0.00  0.00    +0.000 OA
ATOM     29  C   UNL     1       7.099   6.494  17.063  0.00  0.00    +0.000 C 
BRANCH  26  30
ATOM     30  O   UNL     1       7.211   4.217  18.154  0.00  0.00    +0.000 OA
ATOM     31  H   UNL     1       7.796   4.806  18.660  0.00  0.00    +0.000 HD
ENDBRANCH  26  30
ENDBRANCH  22  26
BRANCH  24  32
ATOM     32  C   UNL     1       2.025   2.621  18.317  0.00  0.00    +0.000 C 
ATOM     33  F   UNL     1       0.670   2.788  18.294  0.00  0.00    +0.000 F 
ATOM     34  F   UNL     1       2.306   1.768  17.291  0.00  0.00    +0.000 F 
ATOM     35  F   UNL     1       2.293   1.936  19.464  0.00  0.00    +0.000 F 
ENDBRANCH  24  32
ENDBRANCH   2  20
TORSDOF 8
ENDMDL
MODEL 9
REMARK VINA RESULT:      -9.0      1.054      1.247
REMARK  Name = 
REMARK  10 active torsions:
REMARK  status: ('A' for Active; 'I' for Inactive)
REMARK    1  A    between atoms: C_1  and  C_2
REMARK    2  A    between atoms: C_2  and  S_3
REMARK    3  A    between atoms: C_2  and  C_10
REMARK    4  A    between atoms: S_3  and  C_4
REMARK    5  A    between atoms: N_8  and  C_9
REMARK    6  A    between atoms: C_14  and  N_15
REMARK    7  A    between atoms: C_16  and  C_18
REMARK    8  A    between atoms: C_20  and  C_21
REMARK    9  A    between atoms: C_21  and  O_22
REMARK   10  A    between atoms: C_27  and  C_28
REMARK                            x       y       z     vdW  Elec       q    Type
REMARK                         _______ _______ _______ _____ _____    ______ ____
ROOT
ATOM      1  N   UNL     1       1.909   7.633  20.592  0.00  0.00    +0.000 N 
ATOM      2  C   UNL     1       2.299   7.349  19.293  0.00  0.00    +0.000 C 
ATOM      3  O   UNL     1       2.073   8.030  18.294  0.00  0.00    +0.000 OA
ATOM      4  H   UNL     1       2.293   7.028  21.315  0.00  0.00    +0.000 HD
ENDROOT
BRANCH   1   9
ATOM      5  C   UNL     1       0.017  10.849  20.372  0.00  0.00    +0.000 A 
ATOM      6  C   UNL     1      -0.430  10.962  21.701  0.00  0.00    +0.000 A 
ATOM      7  C   UNL     1      -0.088  10.005  22.653  0.00  0.00    +0.000 A 
ATOM      8  C   UNL     1       0.686   8.906  22.296  0.00  0.00    +0.000 A 
ATOM      9  C   UNL     1       1.155   8.759  20.991  0.00  0.00    +0.000 A 
ATOM     10  C   UNL     1       0.847   9.748  20.047  0.00  0.00    +0.000 A 
BRANCH   5  12
ATOM     11  C   UNL     1       0.397  13.178  19.330  0.00  0.00    +0.000 C 
ATOM     12  C   UNL     1      -0.376  11.850  19.278  0.00  0.00    +0.000 C 
BRANCH  12  13
ATOM     13  S   UNL     1      -2.192  12.185  19.391  0.00  0.00    +0.000 S 
BRANCH  13  14
ATOM     14  C   UNL     1      -2.790  11.548  17.904  0.00  0.00    +0.000 A 
ATOM     15  N   UNL     1      -2.096  11.039  16.912  0.00  0.00    +0.000 NA
ATOM     16  N   UNL     1      -2.975  10.777  15.882  0.00  0.00    +0.000 NA
ATOM     17  C   UNL     1      -4.177  11.114  16.288  0.00  0.00    +0.000 A 
ATOM     18  N   UNL     1      -4.114  11.564  17.572  0.00  0.00    +0.000 N 
ATOM     19  C   UNL     1      -5.228  11.975  18.383  0.00  0.00    +0.000 C 
ENDBRANCH  13  14
ENDBRANCH  12  13
ENDBRANCH   5  12
ENDBRANCH   1   9
BRANCH   2  20
ATOM     20  C   UNL     1       3.125   6.125  19.124  0.00  0.00    +0.000 A 
ATOM     21  C   UNL     1       4.380   6.238  18.531  0.00  0.00    +0.000 A 
ATOM     22  C   UNL     1       5.219   5.121  18.445  0.00  0.00    +0.000 A 
ATOM     23  C   UNL     1       4.697   3.927  18.979  0.00  0.00    +0.000 A 
ATOM     24  C   UNL     1       3.422   3.876  19.559  0.00  0.00    +0.000 A 
ATOM     25  N   UNL     1       2.620   4.974  19.627  0.00  0.00    +0.000 NA
BRANCH  22  26
ATOM     26  C   UNL     1       6.673   5.193  17.770  0.00  0.00    +0.000 C 
ATOM     27  C   UNL     1       6.823   4.686  16.300  0.00  0.00    +0.000 C 
ATOM     28  O   UNL     1       7.516   5.895  15.907  0.00  0.00    +0.000 OA
ATOM     29  C   UNL     1       7.068   6.552  17.116  0.00  0.00    +0.000 C 
BRANCH  26  30
ATOM     30  O   UNL     1       7.667   4.674  18.697  0.00  0.00    +0.000 OA
ATOM     31  H   UNL     1       7.829   5.397  19.327  0.00  0.00    +0.000 HD
ENDBRANCH  26  30
ENDBRANCH  22  26
BRANCH  24  32
ATOM     32  C   UNL     1       2.918   2.574  20.168  0.00  0.00    +0.000 C 
ATOM     33  F   UNL     1       1.620   2.638  20.585  0.00  0.00    +0.000 F 
ATOM     34  F   UNL     1       2.969   1.536  19.286  0.00  0.00    +0.000 F 
ATOM     35  F   UNL     1       3.637   2.183  21.257  0.00  0.00    +0.000 F 
ENDBRANCH  24  32
ENDBRANCH   2  20
TORSDOF 8
ENDMDL
