MODEL 1
REMARK VINA RESULT:      -9.5      0.000      0.000
REMARK  Name = 
REMARK  9 active torsions:
REMARK  status: ('A' for Active; 'I' for Inactive)
REMARK    1  A    between atoms: C_1  and  N_2
REMARK    2  A    between atoms: C_6  and  C_7
REMARK    3  A    between atoms: C_7  and  C_8
REMARK    4  A    between atoms: C_8  and  C_9
REMARK    5  A    between atoms: C_13  and  N_14
REMARK    6  A    between atoms: C_19  and  C_20
REMARK    7  A    between atoms: C_20  and  O_21
REMARK    8  A    between atoms: C_20  and  C_22
REMARK    9  A    between atoms: C_29  and  C_30
REMARK                            x       y       z     vdW  Elec       q    Type
REMARK                         _______ _______ _______ _____ _____    ______ ____
ROOT
ATOM      1  N   UNL     1       2.365   7.414  19.307  0.00  0.00    +0.000 N 
ATOM      2  C   UNL     1       1.577   7.765  20.465  0.00  0.00    +0.000 C 
ATOM      3  C   UNL     1       1.014   9.088  20.147  0.00  0.00    +0.000 A 
ATOM      4  C   UNL     1       1.313   9.415  18.834  0.00  0.00    +0.000 A 
ATOM      5  C   UNL     1       0.806  10.580  18.270  0.00  0.00    +0.000 A 
ATOM      6  C   UNL     1      -0.026  11.403  19.071  0.00  0.00    +0.000 A 
ATOM      7  C   UNL     1      -0.269  11.055  20.426  0.00  0.00    +0.000 A 
ATOM      8  C   UNL     1       0.276   9.900  20.993  0.00  0.00    +0.000 A 
ATOM      9  C   UNL     1       2.226   8.367  18.285  0.00  0.00    +0.000 C 
ATOM     10  O   UNL     1       2.721   8.417  17.187  0.00  0.00    +0.000 OA
ENDROOT
BRANCH   1  15
ATOM     11  C   UNL     1       5.419   5.293  18.858  0.00  0.00    +0.000 A 
ATOM     12  C   UNL     1       4.929   4.065  19.321  0.00  0.00    +0.000 A 
ATOM     13  C   UNL     1       3.617   3.928  19.800  0.00  0.00    +0.000 A 
ATOM     14  C   UNL     1       2.736   5.019  19.817  0.00  0.00    +0.000 A 
ATOM     15  C   UNL     1       3.180   6.259  19.387  0.00  0.00    +0.000 A 
ATOM     16  C   UNL     1       4.520   6.362  18.953  0.00  0.00    +0.000 A 
BRANCH  11  17
ATOM     17  C   UNL     1       6.905   5.534  18.283  0.00  0.00    +0.000 C 
ATOM     18  C   UNL     1       7.948   5.876  19.394  0.00  0.00    +0.000 C 
ATOM     19  O   UNL     1       8.221   7.175  18.840  0.00  0.00    +0.000 OA
ATOM     20  C   UNL     1       7.265   6.969  17.779  0.00  0.00    +0.000 C 
BRANCH  17  21
ATOM     21  C   UNL     1       7.363   4.395  17.307  0.00  0.00    +0.000 C 
BRANCH  21  27
ATOM     22  C   UNL     1       4.420   3.541  15.999  0.00  0.00    +0.000 C 
ATOM     23  N   UNL     1       5.605   4.079  15.379  0.00  0.00    +0.000 N 
ATOM     24  C   UNL     1       5.653   4.311  14.029  0.00  0.00    +0.000 A 
ATOM     25  N   UNL     1       6.850   4.724  13.698  0.00  0.00    +0.000 NA
ATOM     26  N   UNL     1       7.603   4.780  14.840  0.00  0.00    +0.000 NA
ATOM     27  C   UNL     1       6.857   4.436  15.877  0.00  0.00    +0.000 A 
ENDBRANCH  21  27
ENDBRANCH  17  21
ENDBRANCH  11  17
ENDBRANCH   1  15
BRANCH   8  28
ATOM     28  C   UNL     1       0.105   9.588  22.461  0.00  0.00    +0.000 C 
ATOM     29  F   UNL     1       1.259   9.272  23.102  0.00  0.00    +0.000 F 
ATOM     30  F   UNL     1      -0.427  10.638  23.145  0.00  0.00    +0.000 F 
ATOM     31  F   UNL     1      -0.728   8.534  22.675  0.00  0.00    +0.000 F 
ENDBRANCH   8  28
BRANCH   6  32
ATOM     32  C   UNL     1      -0.669  12.668  18.520  0.00  0.00    +0.000 C 
BRANCH  32  33
ATOM     33  C   UNL     1       0.056  13.973  18.819  0.00  0.00    +0.000 A 
ATOM     34  C   UNL     1       1.428  14.142  18.564  0.00  0.00    +0.000 A 
ATOM     35  C   UNL     1       2.051  15.380  18.760  0.00  0.00    +0.000 A 
ATOM     36  C   UNL     1       1.309  16.476  19.189  0.00  0.00    +0.000 A 
ATOM     37  C   UNL     1      -0.051  16.333  19.443  0.00  0.00    +0.000 A 
ATOM     38  C   UNL     1      -0.670  15.094  19.264  0.00  0.00    +0.000 A 
ENDBRANCH  32  33
BRANCH  32  39
ATOM     39  O   UNL     1      -2.017  12.714  18.987  0.00  0.00    +0.000 OA
ATOM     40  H   UNL     1      -2.302  11.795  19.107  0.00  0.00    +0.000 HD
ENDBRANCH  32  39
ENDBRANCH   6  32
TORSDOF 8
ENDMDL
MODEL 2
REMARK VINA RESULT:      -9.5      1.221      1.943
REMARK  Name = 
REMARK  9 active torsions:
REMARK  status: ('A' for Active; 'I' for Inactive)
REMARK    1  A    between atoms: C_1  and  N_2
REMARK    2  A    between atoms: C_6  and  C_7
REMARK    3  A    between atoms: C_7  and  C_8
REMARK    4  A    between atoms: C_8  and  C_9
REMARK    5  A    between atoms: C_13  and  N_14
REMARK    6  A    between atoms: C_19  and  C_20
REMARK    7  A    between atoms: C_20  and  O_21
REMARK    8  A    between atoms: C_20  and  C_22
REMARK    9  A    between atoms: C_29  and  C_30
REMARK                            x       y       z     vdW  Elec       q    Type
REMARK                         _______ _______ _______ _____ _____    ______ ____
ROOT
ATOM      1  N   UNL     1       2.387   7.331  19.324  0.00  0.00    +0.000 N 
ATOM      2  C   UNL     1       1.628   7.639  20.513  0.00  0.00    +0.000 C 
ATOM      3  C   UNL     1       1.023   8.954  20.241  0.00  0.00    +0.000 A 
ATOM      4  C   UNL     1       1.274   9.315  18.926  0.00  0.00    +0.000 A 
ATOM      5  C   UNL     1       0.721  10.478  18.404  0.00  0.00    +0.000 A 
ATOM      6  C   UNL     1      -0.105  11.264  19.247  0.00  0.00    +0.000 A 
ATOM      7  C   UNL     1      -0.297  10.882  20.601  0.00  0.00    +0.000 A 
ATOM      8  C   UNL     1       0.293   9.730  21.126  0.00  0.00    +0.000 A 
ATOM      9  C   UNL     1       2.193   8.301  18.327  0.00  0.00    +0.000 C 
ATOM     10  O   UNL     1       2.652   8.386  17.216  0.00  0.00    +0.000 OA
ENDROOT
BRANCH   1  15
ATOM     11  C   UNL     1       5.495   5.311  18.788  0.00  0.00    +0.000 A 
ATOM     12  C   UNL     1       5.036   4.051  19.194  0.00  0.00    +0.000 A 
ATOM     13  C   UNL     1       3.728   3.860  19.663  0.00  0.00    +0.000 A 
ATOM     14  C   UNL     1       2.819   4.925  19.727  0.00  0.00    +0.000 A 
ATOM     15  C   UNL     1       3.232   6.195  19.354  0.00  0.00    +0.000 A 
ATOM     16  C   UNL     1       4.569   6.352  18.929  0.00  0.00    +0.000 A 
BRANCH  11  17
ATOM     17  C   UNL     1       6.975   5.616  18.228  0.00  0.00    +0.000 C 
ATOM     18  C   UNL     1       8.001   5.963  19.354  0.00  0.00    +0.000 C 
ATOM     19  O   UNL     1       8.233   7.284  18.835  0.00  0.00    +0.000 OA
ATOM     20  C   UNL     1       7.290   7.074  17.763  0.00  0.00    +0.000 C 
BRANCH  17  21
ATOM     21  C   UNL     1       7.476   4.518  17.226  0.00  0.00    +0.000 C 
BRANCH  21  27
ATOM     22  C   UNL     1       4.675   3.475  15.753  0.00  0.00    +0.000 C 
ATOM     23  N   UNL     1       5.821   4.165  15.214  0.00  0.00    +0.000 N 
ATOM     24  C   UNL     1       5.890   4.492  13.885  0.00  0.00    +0.000 A 
ATOM     25  N   UNL     1       7.050   5.040  13.628  0.00  0.00    +0.000 NA
ATOM     26  N   UNL     1       7.756   5.091  14.800  0.00  0.00    +0.000 NA
ATOM     27  C   UNL     1       7.015   4.607  15.783  0.00  0.00    +0.000 A 
ENDBRANCH  21  27
ENDBRANCH  17  21
ENDBRANCH  11  17
ENDBRANCH   1  15
BRANCH   8  28
ATOM     28  C   UNL     1       0.175   9.383  22.592  0.00  0.00    +0.000 C 
ATOM     29  F   UNL     1      -0.398  10.354  23.349  0.00  0.00    +0.000 F 
ATOM     30  F   UNL     1      -0.572   8.263  22.791  0.00  0.00    +0.000 F 
ATOM     31  F   UNL     1       1.384   9.141  23.167  0.00  0.00    +0.000 F 
ENDBRANCH   8  28
BRANCH   6  32
ATOM     32  C   UNL     1      -0.794  12.525  18.743  0.00  0.00    +0.000 C 
BRANCH  32  33
ATOM     33  C   UNL     1      -1.900  13.083  19.628  0.00  0.00    +0.000 A 
ATOM     34  C   UNL     1      -1.734  14.259  20.381  0.00  0.00    +0.000 A 
ATOM     35  C   UNL     1      -2.795  14.802  21.113  0.00  0.00    +0.000 A 
ATOM     36  C   UNL     1      -4.047  14.196  21.085  0.00  0.00    +0.000 A 
ATOM     37  C   UNL     1      -4.236  13.034  20.342  0.00  0.00    +0.000 A 
ATOM     38  C   UNL     1      -3.172  12.481  19.625  0.00  0.00    +0.000 A 
ENDBRANCH  32  33
BRANCH  32  39
ATOM     39  O   UNL     1      -1.277  12.263  17.426  0.00  0.00    +0.000 OA
ATOM     40  H   UNL     1      -1.658  11.371  17.440  0.00  0.00    +0.000 HD
ENDBRANCH  32  39
ENDBRANCH   6  32
TORSDOF 8
ENDMDL
MODEL 3
REMARK VINA RESULT:      -9.3      0.790      1.106
REMARK  Name = 
REMARK  9 active torsions:
REMARK  status: ('A' for Active; 'I' for Inactive)
REMARK    1  A    between atoms: C_1  and  N_2
REMARK    2  A    between atoms: C_6  and  C_7
REMARK    3  A    between atoms: C_7  and  C_8
REMARK    4  A    between atoms: C_8  and  C_9
REMARK    5  A    between atoms: C_13  and  N_14
REMARK    6  A    between atoms: C_19  and  C_20
REMARK    7  A    between atoms: C_20  and  O_21
REMARK    8  A    between atoms: C_20  and  C_22
REMARK    9  A    between atoms: C_29  and  C_30
REMARK                            x       y       z     vdW  Elec       q    Type
REMARK                         _______ _______ _______ _____ _____    ______ ____
ROOT
ATOM      1  N   UNL     1       1.990   7.681  19.318  0.00  0.00    +0.000 N 
ATOM      2  C   UNL     1       1.227   8.000  20.501  0.00  0.00    +0.000 C 
ATOM      3  C   UNL     1       0.749   9.375  20.279  0.00  0.00    +0.000 A 
ATOM      4  C   UNL     1       1.067   9.772  18.990  0.00  0.00    +0.000 A 
ATOM      5  C   UNL     1       0.635  11.003  18.510  0.00  0.00    +0.000 A 
ATOM      6  C   UNL     1      -0.143  11.820  19.370  0.00  0.00    +0.000 A 
ATOM      7  C   UNL     1      -0.406  11.395  20.699  0.00  0.00    +0.000 A 
ATOM      8  C   UNL     1       0.064  10.171  21.183  0.00  0.00    +0.000 A 
ATOM      9  C   UNL     1       1.911   8.709  18.365  0.00  0.00    +0.000 C 
ATOM     10  O   UNL     1       2.407   8.803  17.270  0.00  0.00    +0.000 OA
ENDROOT
BRANCH   1  15
ATOM     11  C   UNL     1       4.776   5.329  18.459  0.00  0.00    +0.000 A 
ATOM     12  C   UNL     1       4.295   4.157  19.058  0.00  0.00    +0.000 A 
ATOM     13  C   UNL     1       3.080   4.134  19.759  0.00  0.00    +0.000 A 
ATOM     14  C   UNL     1       2.288   5.285  19.873  0.00  0.00    +0.000 A 
ATOM     15  C   UNL     1       2.730   6.474  19.314  0.00  0.00    +0.000 A 
ATOM     16  C   UNL     1       3.978   6.463  18.654  0.00  0.00    +0.000 A 
BRANCH  11  17
ATOM     17  C   UNL     1       6.152   5.441  17.628  0.00  0.00    +0.000 C 
ATOM     18  C   UNL     1       7.412   5.587  18.540  0.00  0.00    +0.000 C 
ATOM     19  O   UNL     1       7.738   6.882  18.005  0.00  0.00    +0.000 OA
ATOM     20  C   UNL     1       6.589   6.857  17.133  0.00  0.00    +0.000 C 
BRANCH  17  21
ATOM     21  C   UNL     1       6.284   4.327  16.532  0.00  0.00    +0.000 C 
BRANCH  21  27
ATOM     22  C   UNL     1       5.264   3.600  13.444  0.00  0.00    +0.000 C 
ATOM     23  N   UNL     1       6.369   4.403  13.906  0.00  0.00    +0.000 N 
ATOM     24  C   UNL     1       7.220   5.012  13.020  0.00  0.00    +0.000 A 
ATOM     25  N   UNL     1       8.177   5.614  13.676  0.00  0.00    +0.000 NA
ATOM     26  N   UNL     1       7.956   5.417  15.013  0.00  0.00    +0.000 NA
ATOM     27  C   UNL     1       6.842   4.723  15.178  0.00  0.00    +0.000 A 
ENDBRANCH  21  27
ENDBRANCH  17  21
ENDBRANCH  11  17
ENDBRANCH   1  15
BRANCH   8  28
ATOM     28  C   UNL     1      -0.125   9.770  22.626  0.00  0.00    +0.000 C 
ATOM     29  F   UNL     1      -0.721  10.718  23.394  0.00  0.00    +0.000 F 
ATOM     30  F   UNL     1      -0.895   8.653  22.747  0.00  0.00    +0.000 F 
ATOM     31  F   UNL     1       1.052   9.489  23.247  0.00  0.00    +0.000 F 
ENDBRANCH   8  28
BRANCH   6  32
ATOM     32  C   UNL     1      -0.704  13.159  18.911  0.00  0.00    +0.000 C 
BRANCH  32  33
ATOM     33  C   UNL     1       0.241  14.349  19.003  0.00  0.00    +0.000 A 
ATOM     34  C   UNL     1       1.621  14.193  19.225  0.00  0.00    +0.000 A 
ATOM     35  C   UNL     1       2.482  15.296  19.212  0.00  0.00    +0.000 A 
ATOM     36  C   UNL     1       1.983  16.569  18.953  0.00  0.00    +0.000 A 
ATOM     37  C   UNL     1       0.622  16.746  18.727  0.00  0.00    +0.000 A 
ATOM     38  C   UNL     1      -0.241  15.648  18.756  0.00  0.00    +0.000 A 
ENDBRANCH  32  33
BRANCH  32  39
ATOM     39  O   UNL     1      -1.906  13.403  19.641  0.00  0.00    +0.000 OA
ATOM     40  H   UNL     1      -1.894  14.341  19.892  0.00  0.00    +0.000 HD
ENDBRANCH  32  39
ENDBRANCH   6  32
TORSDOF 8
ENDMDL
MODEL 4
REMARK VINA RESULT:      -9.2      1.505      2.150
REMARK  Name = 
REMARK  9 active torsions:
REMARK  status: ('A' for Active; 'I' for Inactive)
REMARK    1  A    between atoms: C_1  and  N_2
REMARK    2  A    between atoms: C_6  and  C_7
REMARK    3  A    between atoms: C_7  and  C_8
REMARK    4  A    between atoms: C_8  and  C_9
REMARK    5  A    between atoms: C_13  and  N_14
REMARK    6  A    between atoms: C_19  and  C_20
REMARK    7  A    between atoms: C_20  and  O_21
REMARK    8  A    between atoms: C_20  and  C_22
REMARK    9  A    between atoms: C_29  and  C_30
REMARK                            x       y       z     vdW  Elec       q    Type
REMARK                         _______ _______ _______ _____ _____    ______ ____
ROOT
ATOM      1  N   UNL     1       2.002   7.568  19.361  0.00  0.00    +0.000 N 
ATOM      2  C   UNL     1       1.280   7.850  20.579  0.00  0.00    +0.000 C 
ATOM      3  C   UNL     1       0.775   9.222  20.405  0.00  0.00    +0.000 A 
ATOM      4  C   UNL     1       1.039   9.652  19.114  0.00  0.00    +0.000 A 
ATOM      5  C   UNL     1       0.572  10.887  18.679  0.00  0.00    +0.000 A 
ATOM      6  C   UNL     1      -0.184  11.674  19.585  0.00  0.00    +0.000 A 
ATOM      7  C   UNL     1      -0.391  11.216  20.913  0.00  0.00    +0.000 A 
ATOM      8  C   UNL     1       0.114   9.989  21.351  0.00  0.00    +0.000 A 
ATOM      9  C   UNL     1       1.873   8.616  18.435  0.00  0.00    +0.000 C 
ATOM     10  O   UNL     1       2.327   8.741  17.325  0.00  0.00    +0.000 OA
ENDROOT
BRANCH   1  15
ATOM     11  C   UNL     1       4.788   5.278  18.350  0.00  0.00    +0.000 A 
ATOM     12  C   UNL     1       4.345   4.085  18.937  0.00  0.00    +0.000 A 
ATOM     13  C   UNL     1       3.155   4.028  19.679  0.00  0.00    +0.000 A 
ATOM     14  C   UNL     1       2.352   5.164  19.848  0.00  0.00    +0.000 A 
ATOM     15  C   UNL     1       2.759   6.372  19.303  0.00  0.00    +0.000 A 
ATOM     16  C   UNL     1       3.983   6.396  18.600  0.00  0.00    +0.000 A 
BRANCH  11  17
ATOM     17  C   UNL     1       6.134   5.429  17.475  0.00  0.00    +0.000 C 
ATOM     18  C   UNL     1       7.419   5.599  18.346  0.00  0.00    +0.000 C 
ATOM     19  O   UNL     1       7.696   6.906  17.812  0.00  0.00    +0.000 OA
ATOM     20  C   UNL     1       6.520   6.859  16.978  0.00  0.00    +0.000 C 
BRANCH  17  21
ATOM     21  C   UNL     1       6.256   4.326  16.366  0.00  0.00    +0.000 C 
BRANCH  21  27
ATOM     22  C   UNL     1       5.415   3.499  13.250  0.00  0.00    +0.000 C 
ATOM     23  N   UNL     1       6.461   4.359  13.746  0.00  0.00    +0.000 N 
ATOM     24  C   UNL     1       7.324   4.989  12.889  0.00  0.00    +0.000 A 
ATOM     25  N   UNL     1       8.222   5.646  13.576  0.00  0.00    +0.000 NA
ATOM     26  N   UNL     1       7.947   5.463  14.905  0.00  0.00    +0.000 NA
ATOM     27  C   UNL     1       6.859   4.723  15.032  0.00  0.00    +0.000 A 
ENDBRANCH  21  27
ENDBRANCH  17  21
ENDBRANCH  11  17
ENDBRANCH   1  15
BRANCH   8  28
ATOM     28  C   UNL     1      -0.015   9.554  22.792  0.00  0.00    +0.000 C 
ATOM     29  F   UNL     1       1.170   9.332  23.415  0.00  0.00    +0.000 F 
ATOM     30  F   UNL     1      -0.667  10.480  23.546  0.00  0.00    +0.000 F 
ATOM     31  F   UNL     1      -0.716   8.395  22.924  0.00  0.00    +0.000 F 
ENDBRANCH   8  28
BRANCH   6  32
ATOM     32  C   UNL     1      -0.780  13.014  19.177  0.00  0.00    +0.000 C 
BRANCH  32  33
ATOM     33  C   UNL     1      -2.057  13.426  19.896  0.00  0.00    +0.000 A 
ATOM     34  C   UNL     1      -3.213  12.626  19.886  0.00  0.00    +0.000 A 
ATOM     35  C   UNL     1      -4.343  12.982  20.631  0.00  0.00    +0.000 A 
ATOM     36  C   UNL     1      -4.328  14.129  21.419  0.00  0.00    +0.000 A 
ATOM     37  C   UNL     1      -3.193  14.933  21.449  0.00  0.00    +0.000 A 
ATOM     38  C   UNL     1      -2.071  14.587  20.692  0.00  0.00    +0.000 A 
ENDBRANCH  32  33
BRANCH  32  39
ATOM     39  O   UNL     1      -0.973  12.995  17.763  0.00  0.00    +0.000 OA
ATOM     40  H   UNL     1      -1.341  12.124  17.543  0.00  0.00    +0.000 HD
ENDBRANCH  32  39
ENDBRANCH   6  32
TORSDOF 8
ENDMDL
MODEL 5
REMARK VINA RESULT:      -9.2      1.422      2.126
REMARK  Name = 
REMARK  9 active torsions:
REMARK  status: ('A' for Active; 'I' for Inactive)
REMARK    1  A    between atoms: C_1  and  N_2
REMARK    2  A    between atoms: C_6  and  C_7
REMARK    3  A    between atoms: C_7  and  C_8
REMARK    4  A    between atoms: C_8  and  C_9
REMARK    5  A    between atoms: C_13  and  N_14
REMARK    6  A    between atoms: C_19  and  C_20
REMARK    7  A    between atoms: C_20  and  O_21
REMARK    8  A    between atoms: C_20  and  C_22
REMARK    9  A    between atoms: C_29  and  C_30
REMARK                            x       y       z     vdW  Elec       q    Type
REMARK                         _______ _______ _______ _____ _____    ______ ____
ROOT
ATOM      1  N   UNL     1       2.099   7.462  19.224  0.00  0.00    +0.000 N 
ATOM      2  C   UNL     1       1.381   7.763  20.440  0.00  0.00    +0.000 C 
ATOM      3  C   UNL     1       0.917   9.150  20.268  0.00  0.00    +0.000 A 
ATOM      4  C   UNL     1       1.199   9.575  18.979  0.00  0.00    +0.000 A 
ATOM      5  C   UNL     1       0.770  10.824  18.546  0.00  0.00    +0.000 A 
ATOM      6  C   UNL     1       0.035  11.630  19.451  0.00  0.00    +0.000 A 
ATOM      7  C   UNL     1      -0.191  11.176  20.777  0.00  0.00    +0.000 A 
ATOM      8  C   UNL     1       0.276   9.933  21.214  0.00  0.00    +0.000 A 
ATOM      9  C   UNL     1       2.004   8.516  18.301  0.00  0.00    +0.000 C 
ATOM     10  O   UNL     1       2.466   8.630  17.192  0.00  0.00    +0.000 OA
ENDROOT
BRANCH   1  15
ATOM     11  C   UNL     1       4.776   5.071  18.157  0.00  0.00    +0.000 A 
ATOM     12  C   UNL     1       4.326   3.906  18.793  0.00  0.00    +0.000 A 
ATOM     13  C   UNL     1       3.169   3.900  19.586  0.00  0.00    +0.000 A 
ATOM     14  C   UNL     1       2.405   5.063  19.759  0.00  0.00    +0.000 A 
ATOM     15  C   UNL     1       2.820   6.245  19.165  0.00  0.00    +0.000 A 
ATOM     16  C   UNL     1       4.013   6.216  18.411  0.00  0.00    +0.000 A 
BRANCH  11  17
ATOM     17  C   UNL     1       6.086   5.162  17.222  0.00  0.00    +0.000 C 
ATOM     18  C   UNL     1       7.422   5.011  18.017  0.00  0.00    +0.000 C 
ATOM     19  O   UNL     1       7.868   6.331  17.660  0.00  0.00    +0.000 OA
ATOM     20  C   UNL     1       6.660   6.582  16.912  0.00  0.00    +0.000 C 
BRANCH  17  21
ATOM     21  C   UNL     1       5.987   4.238  15.958  0.00  0.00    +0.000 C 
BRANCH  21  27
ATOM     22  C   UNL     1       5.614   3.324  12.776  0.00  0.00    +0.000 C 
ATOM     23  N   UNL     1       6.525   4.262  13.385  0.00  0.00    +0.000 N 
ATOM     24  C   UNL     1       7.444   4.946  12.633  0.00  0.00    +0.000 A 
ATOM     25  N   UNL     1       8.198   5.672  13.418  0.00  0.00    +0.000 NA
ATOM     26  N   UNL     1       7.768   5.481  14.704  0.00  0.00    +0.000 NA
ATOM     27  C   UNL     1       6.728   4.665  14.704  0.00  0.00    +0.000 A 
ENDBRANCH  21  27
ENDBRANCH  17  21
ENDBRANCH  11  17
ENDBRANCH   1  15
BRANCH   8  28
ATOM     28  C   UNL     1       0.129   9.498  22.653  0.00  0.00    +0.000 C 
ATOM     29  F   UNL     1      -0.629   8.384  22.823  0.00  0.00    +0.000 F 
ATOM     30  F   UNL     1       1.332   9.223  23.226  0.00  0.00    +0.000 F 
ATOM     31  F   UNL     1      -0.453  10.453  23.428  0.00  0.00    +0.000 F 
ENDBRANCH   8  28
BRANCH   6  32
ATOM     32  C   UNL     1      -0.520  12.989  19.045  0.00  0.00    +0.000 C 
BRANCH  32  33
ATOM     33  C   UNL     1      -1.644  13.540  19.911  0.00  0.00    +0.000 A 
ATOM     34  C   UNL     1      -1.559  14.797  20.536  0.00  0.00    +0.000 A 
ATOM     35  C   UNL     1      -2.642  15.322  21.250  0.00  0.00    +0.000 A 
ATOM     36  C   UNL     1      -3.836  14.612  21.331  0.00  0.00    +0.000 A 
ATOM     37  C   UNL     1      -3.944  13.368  20.717  0.00  0.00    +0.000 A 
ATOM     38  C   UNL     1      -2.858  12.836  20.018  0.00  0.00    +0.000 A 
ENDBRANCH  32  33
BRANCH  32  39
ATOM     39  O   UNL     1      -0.922  12.907  17.678  0.00  0.00    +0.000 OA
ATOM     40  H   UNL     1      -0.534  12.091  17.321  0.00  0.00    +0.000 HD
ENDBRANCH  32  39
ENDBRANCH   6  32
TORSDOF 8
ENDMDL
MODEL 6
REMARK VINA RESULT:      -9.0      1.736      2.631
REMARK  Name = 
REMARK  9 active torsions:
REMARK  status: ('A' for Active; 'I' for Inactive)
REMARK    1  A    between atoms: C_1  and  N_2
REMARK    2  A    between atoms: C_6  and  C_7
REMARK    3  A    between atoms: C_7  and  C_8
REMARK    4  A    between atoms: C_8  and  C_9
REMARK    5  A    between atoms: C_13  and  N_14
REMARK    6  A    between atoms: C_19  and  C_20
REMARK    7  A    between atoms: C_20  and  O_21
REMARK    8  A    between atoms: C_20  and  C_22
REMARK    9  A    between atoms: C_29  and  C_30
REMARK                            x       y       z     vdW  Elec       q    Type
REMARK                         _______ _______ _______ _____ _____    ______ ____
ROOT
ATOM      1  N   UNL     1       2.055   7.429  19.408  0.00  0.00    +0.000 N 
ATOM      2  C   UNL     1       1.362   7.715  20.642  0.00  0.00    +0.000 C 
ATOM      3  C   UNL     1       0.716   9.019  20.414  0.00  0.00    +0.000 A 
ATOM      4  C   UNL     1       0.880   9.391  19.090  0.00  0.00    +0.000 A 
ATOM      5  C   UNL     1       0.273  10.545  18.607  0.00  0.00    +0.000 A 
ATOM      6  C   UNL     1      -0.516  11.310  19.503  0.00  0.00    +0.000 A 
ATOM      7  C   UNL     1      -0.619  10.918  20.864  0.00  0.00    +0.000 A 
ATOM      8  C   UNL     1       0.024   9.775  21.346  0.00  0.00    +0.000 A 
ATOM      9  C   UNL     1       1.782   8.400  18.431  0.00  0.00    +0.000 C 
ATOM     10  O   UNL     1       2.173   8.498  17.294  0.00  0.00    +0.000 OA
ENDROOT
BRANCH   1  15
ATOM     11  C   UNL     1       4.925   5.298  18.290  0.00  0.00    +0.000 A 
ATOM     12  C   UNL     1       4.690   4.153  19.062  0.00  0.00    +0.000 A 
ATOM     13  C   UNL     1       3.615   4.079  19.961  0.00  0.00    +0.000 A 
ATOM     14  C   UNL     1       2.721   5.148  20.110  0.00  0.00    +0.000 A 
ATOM     15  C   UNL     1       2.923   6.310  19.382  0.00  0.00    +0.000 A 
ATOM     16  C   UNL     1       4.040   6.359  18.520  0.00  0.00    +0.000 A 
BRANCH  11  17
ATOM     17  C   UNL     1       6.126   5.462  17.228  0.00  0.00    +0.000 C 
ATOM     18  C   UNL     1       7.536   5.526  17.897  0.00  0.00    +0.000 C 
ATOM     19  O   UNL     1       7.787   6.856  17.410  0.00  0.00    +0.000 OA
ATOM     20  C   UNL     1       6.496   6.909  16.767  0.00  0.00    +0.000 C 
BRANCH  17  21
ATOM     21  C   UNL     1       6.027   4.435  16.046  0.00  0.00    +0.000 C 
BRANCH  21  27
ATOM     22  C   UNL     1       5.477   3.425  12.919  0.00  0.00    +0.000 C 
ATOM     23  N   UNL     1       6.462   4.331  13.456  0.00  0.00    +0.000 N 
ATOM     24  C   UNL     1       7.388   4.932  12.644  0.00  0.00    +0.000 A 
ATOM     25  N   UNL     1       8.212   5.643  13.369  0.00  0.00    +0.000 NA
ATOM     26  N   UNL     1       7.824   5.525  14.678  0.00  0.00    +0.000 NA
ATOM     27  C   UNL     1       6.740   4.771  14.749  0.00  0.00    +0.000 A 
ENDBRANCH  21  27
ENDBRANCH  17  21
ENDBRANCH  11  17
ENDBRANCH   1  15
BRANCH   8  28
ATOM     28  C   UNL     1       0.001   9.420  22.814  0.00  0.00    +0.000 C 
ATOM     29  F   UNL     1      -0.569  10.364  23.607  0.00  0.00    +0.000 F 
ATOM     30  F   UNL     1      -0.689   8.270  23.048  0.00  0.00    +0.000 F 
ATOM     31  F   UNL     1       1.248   9.225  23.321  0.00  0.00    +0.000 F 
ENDBRANCH   8  28
BRANCH   6  32
ATOM     32  C   UNL     1      -1.260  12.558  19.048  0.00  0.00    +0.000 C 
BRANCH  32  33
ATOM     33  C   UNL     1      -2.741  12.620  19.396  0.00  0.00    +0.000 A 
ATOM     34  C   UNL     1      -3.238  13.456  20.411  0.00  0.00    +0.000 A 
ATOM     35  C   UNL     1      -4.612  13.564  20.648  0.00  0.00    +0.000 A 
ATOM     36  C   UNL     1      -5.516  12.859  19.859  0.00  0.00    +0.000 A 
ATOM     37  C   UNL     1      -5.048  12.030  18.845  0.00  0.00    +0.000 A 
ATOM     38  C   UNL     1      -3.674  11.908  18.619  0.00  0.00    +0.000 A 
ENDBRANCH  32  33
BRANCH  32  39
ATOM     39  O   UNL     1      -1.059  12.701  17.643  0.00  0.00    +0.000 OA
ATOM     40  H   UNL     1      -1.859  13.119  17.287  0.00  0.00    +0.000 HD
ENDBRANCH  32  39
ENDBRANCH   6  32
TORSDOF 8
ENDMDL
MODEL 7
REMARK VINA RESULT:      -9.0      1.634      2.639
REMARK  Name = 
REMARK  9 active torsions:
REMARK  status: ('A' for Active; 'I' for Inactive)
REMARK    1  A    between atoms: C_1  and  N_2
REMARK    2  A    between atoms: C_6  and  C_7
REMARK    3  A    between atoms: C_7  and  C_8
REMARK    4  A    between atoms: C_8  and  C_9
REMARK    5  A    between atoms: C_13  and  N_14
REMARK    6  A    between atoms: C_19  and  C_20
REMARK    7  A    between atoms: C_20  and  O_21
REMARK    8  A    between atoms: C_20  and  C_22
REMARK    9  A    between atoms: C_29  and  C_30
REMARK                            x       y       z     vdW  Elec       q    Type
REMARK                         _______ _______ _______ _____ _____    ______ ____
ROOT
ATOM      1  N   UNL     1       2.309   7.354  19.311  0.00  0.00    +0.000 N 
ATOM      2  C   UNL     1       1.597   7.660  20.529  0.00  0.00    +0.000 C 
ATOM      3  C   UNL     1       0.903   8.928  20.248  0.00  0.00    +0.000 A 
ATOM      4  C   UNL     1       1.061   9.255  18.910  0.00  0.00    +0.000 A 
ATOM      5  C   UNL     1       0.415  10.365  18.381  0.00  0.00    +0.000 A 
ATOM      6  C   UNL     1      -0.410  11.133  19.242  0.00  0.00    +0.000 A 
ATOM      7  C   UNL     1      -0.508  10.790  20.616  0.00  0.00    +0.000 A 
ATOM      8  C   UNL     1       0.176   9.693  21.146  0.00  0.00    +0.000 A 
ATOM      9  C   UNL     1       2.006   8.275  18.296  0.00  0.00    +0.000 C 
ATOM     10  O   UNL     1       2.400   8.345  17.158  0.00  0.00    +0.000 OA
ENDROOT
BRANCH   1  15
ATOM     11  C   UNL     1       5.470   5.472  18.610  0.00  0.00    +0.000 A 
ATOM     12  C   UNL     1       5.127   4.220  19.137  0.00  0.00    +0.000 A 
ATOM     13  C   UNL     1       3.881   3.991  19.740  0.00  0.00    +0.000 A 
ATOM     14  C   UNL     1       2.920   5.008  19.823  0.00  0.00    +0.000 A 
ATOM     15  C   UNL     1       3.220   6.269  19.333  0.00  0.00    +0.000 A 
ATOM     16  C   UNL     1       4.500   6.468  18.772  0.00  0.00    +0.000 A 
BRANCH  11  17
ATOM     17  C   UNL     1       6.872   5.816  17.892  0.00  0.00    +0.000 C 
ATOM     18  C   UNL     1       7.949   6.369  18.879  0.00  0.00    +0.000 C 
ATOM     19  O   UNL     1       8.030   7.633  18.197  0.00  0.00    +0.000 OA
ATOM     20  C   UNL     1       7.027   7.228  17.242  0.00  0.00    +0.000 C 
BRANCH  17  21
ATOM     21  C   UNL     1       7.383   4.647  16.980  0.00  0.00    +0.000 C 
BRANCH  21  27
ATOM     22  C   UNL     1       8.094   5.474  13.832  0.00  0.00    +0.000 C 
ATOM     23  N   UNL     1       6.986   4.734  14.383  0.00  0.00    +0.000 N 
ATOM     24  C   UNL     1       5.989   4.248  13.578  0.00  0.00    +0.000 A 
ATOM     25  N   UNL     1       5.067   3.684  14.314  0.00  0.00    +0.000 NA
ATOM     26  N   UNL     1       5.458   3.784  15.623  0.00  0.00    +0.000 NA
ATOM     27  C   UNL     1       6.639   4.377  15.685  0.00  0.00    +0.000 A 
ENDBRANCH  21  27
ENDBRANCH  17  21
ENDBRANCH  11  17
ENDBRANCH   1  15
BRANCH   8  28
ATOM     28  C   UNL     1       0.157   9.393  22.626  0.00  0.00    +0.000 C 
ATOM     29  F   UNL     1       1.383   9.169  23.165  0.00  0.00    +0.000 F 
ATOM     30  F   UNL     1      -0.386  10.415  23.344  0.00  0.00    +0.000 F 
ATOM     31  F   UNL     1      -0.578   8.288  22.924  0.00  0.00    +0.000 F 
ENDBRANCH   8  28
BRANCH   6  32
ATOM     32  C   UNL     1      -1.198  12.333  18.735  0.00  0.00    +0.000 C 
BRANCH  32  33
ATOM     33  C   UNL     1      -2.714  12.193  18.746  0.00  0.00    +0.000 A 
ATOM     34  C   UNL     1      -3.408  11.489  17.745  0.00  0.00    +0.000 A 
ATOM     35  C   UNL     1      -4.791  11.295  17.827  0.00  0.00    +0.000 A 
ATOM     36  C   UNL     1      -5.501  11.778  18.922  0.00  0.00    +0.000 A 
ATOM     37  C   UNL     1      -4.835  12.472  19.927  0.00  0.00    +0.000 A 
ATOM     38  C   UNL     1      -3.457  12.682  19.837  0.00  0.00    +0.000 A 
ENDBRANCH  32  33
BRANCH  32  39
ATOM     39  O   UNL     1      -0.724  12.648  17.426  0.00  0.00    +0.000 OA
ATOM     40  H   UNL     1      -0.636  11.807  16.951  0.00  0.00    +0.000 HD
ENDBRANCH  32  39
ENDBRANCH   6  32
TORSDOF 8
ENDMDL
MODEL 8
REMARK VINA RESULT:      -9.0      3.254      9.913
REMARK  Name = 
REMARK  9 active torsions:
REMARK  status: ('A' for Active; 'I' for Inactive)
REMARK    1  A    between atoms: C_1  and  N_2
REMARK    2  A    between atoms: C_6  and  C_7
REMARK    3  A    between atoms: C_7  and  C_8
REMARK    4  A    between atoms: C_8  and  C_9
REMARK    5  A    between atoms: C_13  and  N_14
REMARK    6  A    between atoms: C_19  and  C_20
REMARK    7  A    between atoms: C_20  and  O_21
REMARK    8  A    between atoms: C_20  and  C_22
REMARK    9  A    between atoms: C_29  and  C_30
REMARK                            x       y       z     vdW  Elec       q    Type
REMARK                         _______ _______ _______ _____ _____    ______ ____
ROOT
ATOM      1  N   UNL     1       2.483   7.554  19.055  0.00  0.00    +0.000 N 
ATOM      2  C   UNL     1       2.764   6.172  19.362  0.00  0.00    +0.000 C 
ATOM      3  C   UNL     1       3.710   5.742  18.318  0.00  0.00    +0.000 A 
ATOM      4  C   UNL     1       4.085   6.836  17.555  0.00  0.00    +0.000 A 
ATOM      5  C   UNL     1       5.048   6.699  16.562  0.00  0.00    +0.000 A 
ATOM      6  C   UNL     1       5.633   5.422  16.370  0.00  0.00    +0.000 A 
ATOM      7  C   UNL     1       5.187   4.318  17.142  0.00  0.00    +0.000 A 
ATOM      8  C   UNL     1       4.192   4.459  18.113  0.00  0.00    +0.000 A 
ATOM      9  C   UNL     1       3.268   8.011  17.984  0.00  0.00    +0.000 C 
ATOM     10  O   UNL     1       3.314   9.091  17.451  0.00  0.00    +0.000 OA
ENDROOT
BRANCH   1  15
ATOM     11  C   UNL     1      -0.102  10.146  19.851  0.00  0.00    +0.000 A 
ATOM     12  C   UNL     1      -0.490   9.715  21.127  0.00  0.00    +0.000 A 
ATOM     13  C   UNL     1       0.069   8.572  21.720  0.00  0.00    +0.000 A 
ATOM     14  C   UNL     1       1.054   7.824  21.061  0.00  0.00    +0.000 A 
ATOM     15  C   UNL     1       1.458   8.199  19.789  0.00  0.00    +0.000 A 
ATOM     16  C   UNL     1       0.840   9.330  19.212  0.00  0.00    +0.000 A 
BRANCH  11  17
ATOM     17  C   UNL     1      -0.683  11.450  19.103  0.00  0.00    +0.000 C 
ATOM     18  C   UNL     1      -1.943  12.050  19.803  0.00  0.00    +0.000 C 
ATOM     19  O   UNL     1      -2.781  11.816  18.657  0.00  0.00    +0.000 OA
ATOM     20  C   UNL     1      -1.686  11.225  17.926  0.00  0.00    +0.000 C 
BRANCH  17  21
ATOM     21  C   UNL     1       0.433  12.505  18.782  0.00  0.00    +0.000 C 
BRANCH  21  27
ATOM     22  C   UNL     1       0.411  15.793  19.320  0.00  0.00    +0.000 C 
ATOM     23  N   UNL     1       0.935  14.712  20.118  0.00  0.00    +0.000 N 
ATOM     24  C   UNL     1       1.561  14.954  21.313  0.00  0.00    +0.000 A 
ATOM     25  N   UNL     1       2.012  13.830  21.807  0.00  0.00    +0.000 NA
ATOM     26  N   UNL     1       1.672  12.827  20.939  0.00  0.00    +0.000 NA
ATOM     27  C   UNL     1       0.981  13.332  19.931  0.00  0.00    +0.000 A 
ENDBRANCH  21  27
ENDBRANCH  17  21
ENDBRANCH  11  17
ENDBRANCH   1  15
BRANCH   8  28
ATOM     28  C   UNL     1       3.643   3.265  18.857  0.00  0.00    +0.000 C 
ATOM     29  F   UNL     1       4.112   2.069  18.416  0.00  0.00    +0.000 F 
ATOM     30  F   UNL     1       3.937   3.315  20.185  0.00  0.00    +0.000 F 
ATOM     31  F   UNL     1       2.288   3.176  18.771  0.00  0.00    +0.000 F 
ENDBRANCH   8  28
BRANCH   6  32
ATOM     32  C   UNL     1       6.734   5.192  15.343  0.00  0.00    +0.000 C 
BRANCH  32  33
ATOM     33  C   UNL     1       6.336   4.414  14.096  0.00  0.00    +0.000 A 
ATOM     34  C   UNL     1       5.024   3.953  13.889  0.00  0.00    +0.000 A 
ATOM     35  C   UNL     1       4.661   3.322  12.694  0.00  0.00    +0.000 A 
ATOM     36  C   UNL     1       5.596   3.163  11.676  0.00  0.00    +0.000 A 
ATOM     37  C   UNL     1       6.899   3.616  11.857  0.00  0.00    +0.000 A 
ATOM     38  C   UNL     1       7.266   4.231  13.057  0.00  0.00    +0.000 A 
ENDBRANCH  32  33
BRANCH  32  39
ATOM     39  O   UNL     1       7.830   4.565  16.008  0.00  0.00    +0.000 OA
ATOM     40  H   UNL     1       8.599   4.654  15.423  0.00  0.00    +0.000 HD
ENDBRANCH  32  39
ENDBRANCH   6  32
TORSDOF 8
ENDMDL
MODEL 9
REMARK VINA RESULT:      -9.0      3.284      9.949
REMARK  Name = 
REMARK  9 active torsions:
REMARK  status: ('A' for Active; 'I' for Inactive)
REMARK    1  A    between atoms: C_1  and  N_2
REMARK    2  A    between atoms: C_6  and  C_7
REMARK    3  A    between atoms: C_7  and  C_8
REMARK    4  A    between atoms: C_8  and  C_9
REMARK    5  A    between atoms: C_13  and  N_14
REMARK    6  A    between atoms: C_19  and  C_20
REMARK    7  A    between atoms: C_20  and  O_21
REMARK    8  A    between atoms: C_20  and  C_22
REMARK    9  A    between atoms: C_29  and  C_30
REMARK                            x       y       z     vdW  Elec       q    Type
REMARK                         _______ _______ _______ _____ _____    ______ ____
ROOT
ATOM      1  N   UNL     1       2.501   7.554  19.062  0.00  0.00    +0.000 N 
ATOM      2  C   UNL     1       2.783   6.169  19.357  0.00  0.00    +0.000 C 
ATOM      3  C   UNL     1       3.736   5.751  18.315  0.00  0.00    +0.000 A 
ATOM      4  C   UNL     1       4.113   6.853  17.564  0.00  0.00    +0.000 A 
ATOM      5  C   UNL     1       5.082   6.727  16.576  0.00  0.00    +0.000 A 
ATOM      6  C   UNL     1       5.671   5.453  16.375  0.00  0.00    +0.000 A 
ATOM      7  C   UNL     1       5.222   4.341  17.135  0.00  0.00    +0.000 A 
ATOM      8  C   UNL     1       4.221   4.471  18.101  0.00  0.00    +0.000 A 
ATOM      9  C   UNL     1       3.291   8.022  18.000  0.00  0.00    +0.000 C 
ATOM     10  O   UNL     1       3.338   9.108  17.477  0.00  0.00    +0.000 OA
ENDROOT
BRANCH   1  15
ATOM     11  C   UNL     1      -0.056  10.161  19.895  0.00  0.00    +0.000 A 
ATOM     12  C   UNL     1      -0.481   9.691  21.144  0.00  0.00    +0.000 A 
ATOM     13  C   UNL     1       0.044   8.518  21.707  0.00  0.00    +0.000 A 
ATOM     14  C   UNL     1       1.031   7.776  21.043  0.00  0.00    +0.000 A 
ATOM     15  C   UNL     1       1.471   8.190  19.796  0.00  0.00    +0.000 A 
ATOM     16  C   UNL     1       0.886   9.353  19.248  0.00  0.00    +0.000 A 
BRANCH  11  17
ATOM     17  C   UNL     1      -0.596  11.502  19.182  0.00  0.00    +0.000 C 
ATOM     18  C   UNL     1      -1.855  12.107  19.883  0.00  0.00    +0.000 C 
ATOM     19  O   UNL     1      -2.678  11.930  18.716  0.00  0.00    +0.000 OA
ATOM     20  C   UNL     1      -1.584  11.340  17.983  0.00  0.00    +0.000 C 
BRANCH  17  21
ATOM     21  C   UNL     1       0.547  12.543  18.916  0.00  0.00    +0.000 C 
BRANCH  21  27
ATOM     22  C   UNL     1       0.441  15.870  19.076  0.00  0.00    +0.000 C 
ATOM     23  N   UNL     1       0.838  14.892  20.059  0.00  0.00    +0.000 N 
ATOM     24  C   UNL     1       1.274  15.274  21.301  0.00  0.00    +0.000 A 
ATOM     25  N   UNL     1       1.645  14.219  21.979  0.00  0.00    +0.000 NA
ATOM     26  N   UNL     1       1.443  13.121  21.186  0.00  0.00    +0.000 NA
ATOM     27  C   UNL     1       0.913  13.500  20.035  0.00  0.00    +0.000 A 
ENDBRANCH  21  27
ENDBRANCH  17  21
ENDBRANCH  11  17
ENDBRANCH   1  15
BRANCH   8  28
ATOM     28  C   UNL     1       3.670   3.269  18.831  0.00  0.00    +0.000 C 
ATOM     29  F   UNL     1       2.317   3.254  18.939  0.00  0.00    +0.000 F 
ATOM     30  F   UNL     1       4.009   2.102  18.217  0.00  0.00    +0.000 F 
ATOM     31  F   UNL     1       4.136   3.177  20.106  0.00  0.00    +0.000 F 
ENDBRANCH   8  28
BRANCH   6  32
ATOM     32  C   UNL     1       6.778   5.235  15.353  0.00  0.00    +0.000 C 
BRANCH  32  33
ATOM     33  C   UNL     1       6.368   4.550  14.056  0.00  0.00    +0.000 A 
ATOM     34  C   UNL     1       7.296   4.241  13.047  0.00  0.00    +0.000 A 
ATOM     35  C   UNL     1       6.911   3.528  11.906  0.00  0.00    +0.000 A 
ATOM     36  C   UNL     1       5.597   3.090  11.766  0.00  0.00    +0.000 A 
ATOM     37  C   UNL     1       4.663   3.380  12.755  0.00  0.00    +0.000 A 
ATOM     38  C   UNL     1       5.043   4.106  13.886  0.00  0.00    +0.000 A 
ENDBRANCH  32  33
BRANCH  32  39
ATOM     39  O   UNL     1       7.834   4.521  15.995  0.00  0.00    +0.000 OA
ATOM     40  H   UNL     1       7.853   3.635  15.600  0.00  0.00    +0.000 HD
ENDBRANCH  32  39
ENDBRANCH   6  32
TORSDOF 8
ENDMDL
