MODEL 1
REMARK VINA RESULT:      -9.5      0.000      0.000
REMARK  Name = 
REMARK  10 active torsions:
REMARK  status: ('A' for Active; 'I' for Inactive)
REMARK    1  A    between atoms: C_1  and  N_2
REMARK    2  A    between atoms: C_6  and  C_7
REMARK    3  A    between atoms: C_7  and  C_8
REMARK    4  A    between atoms: C_8  and  C_9
REMARK    5  A    between atoms: C_13  and  N_14
REMARK    6  A    between atoms: C_19  and  C_20
REMARK    7  A    between atoms: C_20  and  N_21
REMARK    8  A    between atoms: C_25  and  C_26
REMARK    9  A    between atoms: C_26  and  C_27
REMARK   10  A    between atoms: C_31  and  C_32
REMARK                            x       y       z     vdW  Elec       q    Type
REMARK                         _______ _______ _______ _____ _____    ______ ____
ROOT
ATOM      1  N   UNL     1       1.305   8.412  20.344  0.00  0.00    +0.000 N 
ATOM      2  C   UNL     1       1.468   7.075  20.860  0.00  0.00    +0.000 C 
ATOM      3  C   UNL     1       2.087   6.336  19.740  0.00  0.00    +0.000 A 
ATOM      4  C   UNL     1       2.487   7.214  18.728  0.00  0.00    +0.000 A 
ATOM      5  C   UNL     1       3.292   6.774  17.675  0.00  0.00    +0.000 A 
ATOM      6  C   UNL     1       3.628   5.404  17.628  0.00  0.00    +0.000 A 
ATOM      7  C   UNL     1       3.072   4.521  18.601  0.00  0.00    +0.000 A 
ATOM      8  C   UNL     1       2.326   4.975  19.682  0.00  0.00    +0.000 A 
ATOM      9  C   UNL     1       1.909   8.553  19.089  0.00  0.00    +0.000 C 
ATOM     10  O   UNL     1       1.963   9.526  18.354  0.00  0.00    +0.000 OA
ENDROOT
BRANCH   1  15
ATOM     11  C   UNL     1      -1.079  11.258  20.831  0.00  0.00    +0.000 A 
ATOM     12  C   UNL     1      -1.075  11.316  22.235  0.00  0.00    +0.000 A 
ATOM     13  C   UNL     1      -0.404  10.363  23.013  0.00  0.00    +0.000 A 
ATOM     14  C   UNL     1       0.329   9.330  22.413  0.00  0.00    +0.000 A 
ATOM     15  C   UNL     1       0.409   9.266  21.032  0.00  0.00    +0.000 A 
ATOM     16  C   UNL     1      -0.338  10.203  20.277  0.00  0.00    +0.000 A 
BRANCH  11  17
ATOM     17  C   UNL     1      -1.856  12.312  19.881  0.00  0.00    +0.000 C 
ATOM     18  C   UNL     1      -3.359  12.522  20.225  0.00  0.00    +0.000 C 
ATOM     19  O   UNL     1      -3.792  12.052  18.937  0.00  0.00    +0.000 OA
ATOM     20  C   UNL     1      -2.432  11.801  18.525  0.00  0.00    +0.000 C 
BRANCH  17  21
ATOM     21  C   UNL     1      -1.073  13.642  19.759  0.00  0.00    +0.000 C 
BRANCH  21  27
ATOM     22  C   UNL     1       1.342  14.399  21.696  0.00  0.00    +0.000 C 
ATOM     23  N   UNL     1       1.418  13.855  20.366  0.00  0.00    +0.000 N 
ATOM     24  C   UNL     1       2.580  13.632  19.687  0.00  0.00    +0.000 A 
ATOM     25  N   UNL     1       2.307  13.137  18.507  0.00  0.00    +0.000 NA
ATOM     26  N   UNL     1       0.943  13.040  18.401  0.00  0.00    +0.000 NA
ATOM     27  C   UNL     1       0.400  13.484  19.519  0.00  0.00    +0.000 A 
ENDBRANCH  21  27
ENDBRANCH  17  21
ENDBRANCH  11  17
ENDBRANCH   1  15
BRANCH   8  28
ATOM     28  C   UNL     1       1.847   4.023  20.750  0.00  0.00    +0.000 C 
ATOM     29  F   UNL     1       2.297   4.327  21.993  0.00  0.00    +0.000 F 
ATOM     30  F   UNL     1       0.490   3.992  20.838  0.00  0.00    +0.000 F 
ATOM     31  F   UNL     1       2.244   2.743  20.517  0.00  0.00    +0.000 F 
ENDBRANCH   8  28
BRANCH   6  32
ATOM     32  C   UNL     1       4.772   4.801  16.822  0.00  0.00    +0.000 C 
BRANCH  32  33
ATOM     33  N   UNL     1       6.007   4.359  17.474  0.00  0.00    +0.000 NA
ATOM     34  C   UNL     1       6.643   5.432  18.250  0.00  0.00    +0.000 C 
ATOM     35  C   UNL     1       7.396   6.531  17.461  0.00  0.00    +0.000 C 
ATOM     36  O   UNL     1       7.560   6.383  16.048  0.00  0.00    +0.000 OA
ATOM     37  C   UNL     1       7.504   5.075  15.479  0.00  0.00    +0.000 C 
ATOM     38  C   UNL     1       7.015   3.963  16.455  0.00  0.00    +0.000 C 
BRANCH  37  39
ATOM     39  C   UNL     1       6.628   5.158  14.213  0.00  0.00    +0.000 C 
BRANCH  39  40
ATOM     40  C   UNL     1       6.215   3.822  13.618  0.00  0.00    +0.000 C 
ATOM     41  F   UNL     1       6.645   3.805  12.321  0.00  0.00    +0.000 F 
ENDBRANCH  39  40
ENDBRANCH  37  39
ENDBRANCH  32  33
ENDBRANCH   6  32
TORSDOF 9
ENDMDL
MODEL 2
REMARK VINA RESULT:      -9.4      2.004      2.821
REMARK  Name = 
REMARK  10 active torsions:
REMARK  status: ('A' for Active; 'I' for Inactive)
REMARK    1  A    between atoms: C_1  and  N_2
REMARK    2  A    between atoms: C_6  and  C_7
REMARK    3  A    between atoms: C_7  and  C_8
REMARK    4  A    between atoms: C_8  and  C_9
REMARK    5  A    between atoms: C_13  and  N_14
REMARK    6  A    between atoms: C_19  and  C_20
REMARK    7  A    between atoms: C_20  and  N_21
REMARK    8  A    between atoms: C_25  and  C_26
REMARK    9  A    between atoms: C_26  and  C_27
REMARK   10  A    between atoms: C_31  and  C_32
REMARK                            x       y       z     vdW  Elec       q    Type
REMARK                         _______ _______ _______ _____ _____    ______ ____
ROOT
ATOM      1  N   UNL     1       1.296   8.305  20.534  0.00  0.00    +0.000 N 
ATOM      2  C   UNL     1       1.465   6.946  20.990  0.00  0.00    +0.000 C 
ATOM      3  C   UNL     1       2.066   6.255  19.832  0.00  0.00    +0.000 A 
ATOM      4  C   UNL     1       2.453   7.175  18.852  0.00  0.00    +0.000 A 
ATOM      5  C   UNL     1       3.243   6.779  17.770  0.00  0.00    +0.000 A 
ATOM      6  C   UNL     1       3.575   5.411  17.660  0.00  0.00    +0.000 A 
ATOM      7  C   UNL     1       3.031   4.488  18.603  0.00  0.00    +0.000 A 
ATOM      8  C   UNL     1       2.302   4.897  19.712  0.00  0.00    +0.000 A 
ATOM      9  C   UNL     1       1.884   8.497  19.278  0.00  0.00    +0.000 C 
ATOM     10  O   UNL     1       1.929   9.501  18.584  0.00  0.00    +0.000 OA
ENDROOT
BRANCH   1  15
ATOM     11  C   UNL     1      -0.960  11.212  21.221  0.00  0.00    +0.000 A 
ATOM     12  C   UNL     1      -1.023  11.121  22.622  0.00  0.00    +0.000 A 
ATOM     13  C   UNL     1      -0.440  10.055  23.322  0.00  0.00    +0.000 A 
ATOM     14  C   UNL     1       0.267   9.052  22.646  0.00  0.00    +0.000 A 
ATOM     15  C   UNL     1       0.413   9.130  21.271  0.00  0.00    +0.000 A 
ATOM     16  C   UNL     1      -0.247  10.181  20.589  0.00  0.00    +0.000 A 
BRANCH  11  17
ATOM     17  C   UNL     1      -1.635  12.402  20.358  0.00  0.00    +0.000 C 
ATOM     18  C   UNL     1      -2.601  11.931  19.233  0.00  0.00    +0.000 C 
ATOM     19  O   UNL     1      -1.800  12.529  18.198  0.00  0.00    +0.000 OA
ATOM     20  C   UNL     1      -0.830  12.994  19.160  0.00  0.00    +0.000 C 
BRANCH  17  21
ATOM     21  C   UNL     1      -2.258  13.480  21.278  0.00  0.00    +0.000 C 
BRANCH  21  27
ATOM     22  C   UNL     1      -4.727  15.282  20.378  0.00  0.00    +0.000 C 
ATOM     23  N   UNL     1      -4.753  14.103  21.202  0.00  0.00    +0.000 N 
ATOM     24  C   UNL     1      -5.873  13.598  21.794  0.00  0.00    +0.000 A 
ATOM     25  N   UNL     1      -5.560  12.526  22.477  0.00  0.00    +0.000 NA
ATOM     26  N   UNL     1      -4.210  12.324  22.339  0.00  0.00    +0.000 NA
ATOM     27  C   UNL     1      -3.715  13.283  21.580  0.00  0.00    +0.000 A 
ENDBRANCH  21  27
ENDBRANCH  17  21
ENDBRANCH  11  17
ENDBRANCH   1  15
BRANCH   8  28
ATOM     28  C   UNL     1       1.836   3.901  20.745  0.00  0.00    +0.000 C 
ATOM     29  F   UNL     1       0.487   3.839  20.872  0.00  0.00    +0.000 F 
ATOM     30  F   UNL     1       2.245   2.636  20.459  0.00  0.00    +0.000 F 
ATOM     31  F   UNL     1       2.310   4.185  21.988  0.00  0.00    +0.000 F 
ENDBRANCH   8  28
BRANCH   6  32
ATOM     32  C   UNL     1       4.707   4.842  16.813  0.00  0.00    +0.000 C 
BRANCH  32  33
ATOM     33  N   UNL     1       5.936   4.342  17.430  0.00  0.00    +0.000 NA
ATOM     34  C   UNL     1       6.645   5.383  18.185  0.00  0.00    +0.000 C 
ATOM     35  C   UNL     1       7.427   6.444  17.373  0.00  0.00    +0.000 C 
ATOM     36  O   UNL     1       7.544   6.287  15.957  0.00  0.00    +0.000 OA
ATOM     37  C   UNL     1       7.409   4.983  15.392  0.00  0.00    +0.000 C 
ATOM     38  C   UNL     1       6.895   3.897  16.384  0.00  0.00    +0.000 C 
BRANCH  37  39
ATOM     39  C   UNL     1       6.502   5.106  14.152  0.00  0.00    +0.000 C 
BRANCH  39  40
ATOM     40  C   UNL     1       6.209   3.804  13.426  0.00  0.00    +0.000 C 
ATOM     41  F   UNL     1       6.670   3.939  12.147  0.00  0.00    +0.000 F 
ENDBRANCH  39  40
ENDBRANCH  37  39
ENDBRANCH  32  33
ENDBRANCH   6  32
TORSDOF 9
ENDMDL
MODEL 3
REMARK VINA RESULT:      -9.4      0.657      1.052
REMARK  Name = 
REMARK  10 active torsions:
REMARK  status: ('A' for Active; 'I' for Inactive)
REMARK    1  A    between atoms: C_1  and  N_2
REMARK    2  A    between atoms: C_6  and  C_7
REMARK    3  A    between atoms: C_7  and  C_8
REMARK    4  A    between atoms: C_8  and  C_9
REMARK    5  A    between atoms: C_13  and  N_14
REMARK    6  A    between atoms: C_19  and  C_20
REMARK    7  A    between atoms: C_20  and  N_21
REMARK    8  A    between atoms: C_25  and  C_26
REMARK    9  A    between atoms: C_26  and  C_27
REMARK   10  A    between atoms: C_31  and  C_32
REMARK                            x       y       z     vdW  Elec       q    Type
REMARK                         _______ _______ _______ _____ _____    ______ ____
ROOT
ATOM      1  N   UNL     1       1.396   8.209  20.374  0.00  0.00    +0.000 N 
ATOM      2  C   UNL     1       1.533   6.863  20.875  0.00  0.00    +0.000 C 
ATOM      3  C   UNL     1       2.118   6.120  19.740  0.00  0.00    +0.000 A 
ATOM      4  C   UNL     1       2.526   6.999  18.731  0.00  0.00    +0.000 A 
ATOM      5  C   UNL     1       3.306   6.549  17.663  0.00  0.00    +0.000 A 
ATOM      6  C   UNL     1       3.607   5.172  17.598  0.00  0.00    +0.000 A 
ATOM      7  C   UNL     1       3.043   4.293  18.570  0.00  0.00    +0.000 A 
ATOM      8  C   UNL     1       2.323   4.754  19.666  0.00  0.00    +0.000 A 
ATOM      9  C   UNL     1       1.987   8.347  19.112  0.00  0.00    +0.000 C 
ATOM     10  O   UNL     1       2.055   9.326  18.386  0.00  0.00    +0.000 OA
ENDROOT
BRANCH   1  15
ATOM     11  C   UNL     1      -0.800  11.184  20.962  0.00  0.00    +0.000 A 
ATOM     12  C   UNL     1      -0.860  11.145  22.365  0.00  0.00    +0.000 A 
ATOM     13  C   UNL     1      -0.296  10.094  23.101  0.00  0.00    +0.000 A 
ATOM     14  C   UNL     1       0.389   9.053  22.460  0.00  0.00    +0.000 A 
ATOM     15  C   UNL     1       0.531   9.078  21.083  0.00  0.00    +0.000 A 
ATOM     16  C   UNL     1      -0.110  10.117  20.365  0.00  0.00    +0.000 A 
BRANCH  11  17
ATOM     17  C   UNL     1      -1.454  12.355  20.058  0.00  0.00    +0.000 C 
ATOM     18  C   UNL     1      -3.008  12.338  19.985  0.00  0.00    +0.000 C 
ATOM     19  O   UNL     1      -3.010  12.147  18.560  0.00  0.00    +0.000 OA
ATOM     20  C   UNL     1      -1.568  12.126  18.519  0.00  0.00    +0.000 C 
BRANCH  17  21
ATOM     21  C   UNL     1      -0.882  13.743  20.436  0.00  0.00    +0.000 C 
BRANCH  21  27
ATOM     22  C   UNL     1       1.454  13.465  18.287  0.00  0.00    +0.000 C 
ATOM     23  N   UNL     1       1.583  13.612  19.713  0.00  0.00    +0.000 N 
ATOM     24  C   UNL     1       2.769  13.592  20.388  0.00  0.00    +0.000 A 
ATOM     25  N   UNL     1       2.543  13.748  21.668  0.00  0.00    +0.000 NA
ATOM     26  N   UNL     1       1.187  13.865  21.841  0.00  0.00    +0.000 NA
ATOM     27  C   UNL     1       0.602  13.771  20.662  0.00  0.00    +0.000 A 
ENDBRANCH  21  27
ENDBRANCH  17  21
ENDBRANCH  11  17
ENDBRANCH   1  15
BRANCH   8  28
ATOM     28  C   UNL     1       1.835   3.804  20.730  0.00  0.00    +0.000 C 
ATOM     29  F   UNL     1       2.295   4.095  21.973  0.00  0.00    +0.000 F 
ATOM     30  F   UNL     1       0.478   3.792  20.824  0.00  0.00    +0.000 F 
ATOM     31  F   UNL     1       2.213   2.519  20.489  0.00  0.00    +0.000 F 
ENDBRANCH   8  28
BRANCH   6  32
ATOM     32  C   UNL     1       4.725   4.549  16.770  0.00  0.00    +0.000 C 
BRANCH  32  33
ATOM     33  N   UNL     1       6.000   4.171  17.384  0.00  0.00    +0.000 NA
ATOM     34  C   UNL     1       6.574   5.254  18.192  0.00  0.00    +0.000 C 
ATOM     35  C   UNL     1       7.233   6.434  17.437  0.00  0.00    +0.000 C 
ATOM     36  O   UNL     1       7.380   6.354  16.017  0.00  0.00    +0.000 OA
ATOM     37  C   UNL     1       7.405   5.069  15.396  0.00  0.00    +0.000 C 
ATOM     38  C   UNL     1       7.014   3.887  16.333  0.00  0.00    +0.000 C 
BRANCH  37  39
ATOM     39  C   UNL     1       6.501   5.139  14.149  0.00  0.00    +0.000 C 
BRANCH  39  40
ATOM     40  C   UNL     1       6.234   3.810  13.461  0.00  0.00    +0.000 C 
ATOM     41  F   UNL     1       4.947   3.842  13.004  0.00  0.00    +0.000 F 
ENDBRANCH  39  40
ENDBRANCH  37  39
ENDBRANCH  32  33
ENDBRANCH   6  32
TORSDOF 9
ENDMDL
MODEL 4
REMARK VINA RESULT:      -9.3      2.450      3.488
REMARK  Name = 
REMARK  10 active torsions:
REMARK  status: ('A' for Active; 'I' for Inactive)
REMARK    1  A    between atoms: C_1  and  N_2
REMARK    2  A    between atoms: C_6  and  C_7
REMARK    3  A    between atoms: C_7  and  C_8
REMARK    4  A    between atoms: C_8  and  C_9
REMARK    5  A    between atoms: C_13  and  N_14
REMARK    6  A    between atoms: C_19  and  C_20
REMARK    7  A    between atoms: C_20  and  N_21
REMARK    8  A    between atoms: C_25  and  C_26
REMARK    9  A    between atoms: C_26  and  C_27
REMARK   10  A    between atoms: C_31  and  C_32
REMARK                            x       y       z     vdW  Elec       q    Type
REMARK                         _______ _______ _______ _____ _____    ______ ____
ROOT
ATOM      1  N   UNL     1       1.242   8.375  20.566  0.00  0.00    +0.000 N 
ATOM      2  C   UNL     1       1.490   7.028  21.019  0.00  0.00    +0.000 C 
ATOM      3  C   UNL     1       2.036   6.347  19.827  0.00  0.00    +0.000 A 
ATOM      4  C   UNL     1       2.321   7.271  18.817  0.00  0.00    +0.000 A 
ATOM      5  C   UNL     1       3.049   6.892  17.686  0.00  0.00    +0.000 A 
ATOM      6  C   UNL     1       3.422   5.537  17.564  0.00  0.00    +0.000 A 
ATOM      7  C   UNL     1       2.978   4.604  18.548  0.00  0.00    +0.000 A 
ATOM      8  C   UNL     1       2.312   4.997  19.702  0.00  0.00    +0.000 A 
ATOM      9  C   UNL     1       1.735   8.577  19.271  0.00  0.00    +0.000 C 
ATOM     10  O   UNL     1       1.697   9.574  18.568  0.00  0.00    +0.000 OA
ENDROOT
BRANCH   1  15
ATOM     11  C   UNL     1      -0.947  11.286  21.435  0.00  0.00    +0.000 A 
ATOM     12  C   UNL     1      -1.001  11.117  22.829  0.00  0.00    +0.000 A 
ATOM     13  C   UNL     1      -0.437  10.001  23.462  0.00  0.00    +0.000 A 
ATOM     14  C   UNL     1       0.244   9.023  22.725  0.00  0.00    +0.000 A 
ATOM     15  C   UNL     1       0.382   9.176  21.355  0.00  0.00    +0.000 A 
ATOM     16  C   UNL     1      -0.260  10.278  20.740  0.00  0.00    +0.000 A 
BRANCH  11  17
ATOM     17  C   UNL     1      -1.601  12.537  20.646  0.00  0.00    +0.000 C 
ATOM     18  C   UNL     1      -2.513  12.152  19.446  0.00  0.00    +0.000 C 
ATOM     19  O   UNL     1      -1.680  12.843  18.499  0.00  0.00    +0.000 OA
ATOM     20  C   UNL     1      -0.756  13.236  19.536  0.00  0.00    +0.000 C 
BRANCH  17  21
ATOM     21  C   UNL     1      -2.276  13.528  21.626  0.00  0.00    +0.000 C 
BRANCH  21  27
ATOM     22  C   UNL     1      -4.656  15.411  20.654  0.00  0.00    +0.000 C 
ATOM     23  N   UNL     1      -4.753  14.183  21.398  0.00  0.00    +0.000 N 
ATOM     24  C   UNL     1      -5.920  13.655  21.870  0.00  0.00    +0.000 A 
ATOM     25  N   UNL     1      -5.667  12.539  22.505  0.00  0.00    +0.000 NA
ATOM     26  N   UNL     1      -4.312  12.331  22.459  0.00  0.00    +0.000 NA
ATOM     27  C   UNL     1      -3.754  13.330  21.802  0.00  0.00    +0.000 A 
ENDBRANCH  21  27
ENDBRANCH  17  21
ENDBRANCH  11  17
ENDBRANCH   1  15
BRANCH   8  28
ATOM     28  C   UNL     1       1.954   3.996  20.772  0.00  0.00    +0.000 C 
ATOM     29  F   UNL     1       0.617   3.832  20.938  0.00  0.00    +0.000 F 
ATOM     30  F   UNL     1       2.454   2.760  20.505  0.00  0.00    +0.000 F 
ATOM     31  F   UNL     1       2.437   4.349  21.993  0.00  0.00    +0.000 F 
ENDBRANCH   8  28
BRANCH   6  32
ATOM     32  C   UNL     1       4.513   4.999  16.645  0.00  0.00    +0.000 C 
BRANCH  32  33
ATOM     33  N   UNL     1       5.247   5.888  15.742  0.00  0.00    +0.000 NA
ATOM     34  C   UNL     1       5.855   5.164  14.618  0.00  0.00    +0.000 C 
ATOM     35  C   UNL     1       7.127   4.333  14.911  0.00  0.00    +0.000 C 
ATOM     36  O   UNL     1       7.728   4.416  16.206  0.00  0.00    +0.000 OA
ATOM     37  C   UNL     1       7.493   5.576  17.004  0.00  0.00    +0.000 C 
ATOM     38  C   UNL     1       6.385   6.525  16.457  0.00  0.00    +0.000 C 
BRANCH  37  39
ATOM     39  C   UNL     1       7.187   5.098  18.437  0.00  0.00    +0.000 C 
BRANCH  39  40
ATOM     40  C   UNL     1       7.916   5.844  19.543  0.00  0.00    +0.000 C 
ATOM     41  F   UNL     1       8.515   6.931  18.972  0.00  0.00    +0.000 F 
ENDBRANCH  39  40
ENDBRANCH  37  39
ENDBRANCH  32  33
ENDBRANCH   6  32
TORSDOF 9
ENDMDL
MODEL 5
REMARK VINA RESULT:      -9.2      1.463      2.491
REMARK  Name = 
REMARK  10 active torsions:
REMARK  status: ('A' for Active; 'I' for Inactive)
REMARK    1  A    between atoms: C_1  and  N_2
REMARK    2  A    between atoms: C_6  and  C_7
REMARK    3  A    between atoms: C_7  and  C_8
REMARK    4  A    between atoms: C_8  and  C_9
REMARK    5  A    between atoms: C_13  and  N_14
REMARK    6  A    between atoms: C_19  and  C_20
REMARK    7  A    between atoms: C_20  and  N_21
REMARK    8  A    between atoms: C_25  and  C_26
REMARK    9  A    between atoms: C_26  and  C_27
REMARK   10  A    between atoms: C_31  and  C_32
REMARK                            x       y       z     vdW  Elec       q    Type
REMARK                         _______ _______ _______ _____ _____    ______ ____
ROOT
ATOM      1  N   UNL     1       1.463   8.478  20.240  0.00  0.00    +0.000 N 
ATOM      2  C   UNL     1       1.581   7.142  20.774  0.00  0.00    +0.000 C 
ATOM      3  C   UNL     1       2.134   6.359  19.650  0.00  0.00    +0.000 A 
ATOM      4  C   UNL     1       2.544   7.202  18.613  0.00  0.00    +0.000 A 
ATOM      5  C   UNL     1       3.299   6.710  17.546  0.00  0.00    +0.000 A 
ATOM      6  C   UNL     1       3.571   5.325  17.512  0.00  0.00    +0.000 A 
ATOM      7  C   UNL     1       3.004   4.484  18.515  0.00  0.00    +0.000 A 
ATOM      8  C   UNL     1       2.311   4.987  19.609  0.00  0.00    +0.000 A 
ATOM      9  C   UNL     1       2.038   8.571  18.967  0.00  0.00    +0.000 C 
ATOM     10  O   UNL     1       2.114   9.529  18.214  0.00  0.00    +0.000 OA
ENDROOT
BRANCH   1  15
ATOM     11  C   UNL     1       0.091  11.787  21.329  0.00  0.00    +0.000 A 
ATOM     12  C   UNL     1      -0.611  11.373  22.474  0.00  0.00    +0.000 A 
ATOM     13  C   UNL     1      -0.738  10.019  22.815  0.00  0.00    +0.000 A 
ATOM     14  C   UNL     1      -0.130   9.022  22.041  0.00  0.00    +0.000 A 
ATOM     15  C   UNL     1       0.627   9.382  20.939  0.00  0.00    +0.000 A 
ATOM     16  C   UNL     1       0.677  10.752  20.583  0.00  0.00    +0.000 A 
BRANCH  11  17
ATOM     17  C   UNL     1       0.250  13.330  20.870  0.00  0.00    +0.000 C 
ATOM     18  C   UNL     1       1.483  13.623  19.969  0.00  0.00    +0.000 C 
ATOM     19  O   UNL     1       2.051  14.539  20.923  0.00  0.00    +0.000 OA
ATOM     20  C   UNL     1       0.961  14.321  21.843  0.00  0.00    +0.000 C 
BRANCH  17  21
ATOM     21  C   UNL     1      -1.073  13.880  20.283  0.00  0.00    +0.000 C 
BRANCH  21  27
ATOM     22  C   UNL     1      -3.959  12.560  20.568  0.00  0.00    +0.000 C 
ATOM     23  N   UNL     1      -3.007  12.374  19.504  0.00  0.00    +0.000 N 
ATOM     24  C   UNL     1      -3.180  11.524  18.451  0.00  0.00    +0.000 A 
ATOM     25  N   UNL     1      -2.135  11.585  17.666  0.00  0.00    +0.000 NA
ATOM     26  N   UNL     1      -1.254  12.483  18.213  0.00  0.00    +0.000 NA
ATOM     27  C   UNL     1      -1.772  12.953  19.332  0.00  0.00    +0.000 A 
ENDBRANCH  21  27
ENDBRANCH  17  21
ENDBRANCH  11  17
ENDBRANCH   1  15
BRANCH   8  28
ATOM     28  C   UNL     1       1.820   4.075  20.705  0.00  0.00    +0.000 C 
ATOM     29  F   UNL     1       0.481   4.145  20.913  0.00  0.00    +0.000 F 
ATOM     30  F   UNL     1       2.092   2.768  20.445  0.00  0.00    +0.000 F 
ATOM     31  F   UNL     1       2.395   4.354  21.906  0.00  0.00    +0.000 F 
ENDBRANCH   8  28
BRANCH   6  32
ATOM     32  C   UNL     1       4.664   4.659  16.685  0.00  0.00    +0.000 C 
BRANCH  32  33
ATOM     33  N   UNL     1       5.907   4.196  17.306  0.00  0.00    +0.000 NA
ATOM     34  C   UNL     1       6.560   5.245  18.098  0.00  0.00    +0.000 C 
ATOM     35  C   UNL     1       7.306   6.361  17.325  0.00  0.00    +0.000 C 
ATOM     36  O   UNL     1       7.446   6.248  15.907  0.00  0.00    +0.000 OA
ATOM     37  C   UNL     1       7.375   4.955  15.305  0.00  0.00    +0.000 C 
ATOM     38  C   UNL     1       6.897   3.821  16.261  0.00  0.00    +0.000 C 
BRANCH  37  39
ATOM     39  C   UNL     1       6.479   5.073  14.057  0.00  0.00    +0.000 C 
BRANCH  39  40
ATOM     40  C   UNL     1       6.151   3.762  13.363  0.00  0.00    +0.000 C 
ATOM     41  F   UNL     1       4.835   3.812  13.001  0.00  0.00    +0.000 F 
ENDBRANCH  39  40
ENDBRANCH  37  39
ENDBRANCH  32  33
ENDBRANCH   6  32
TORSDOF 9
ENDMDL
MODEL 6
REMARK VINA RESULT:      -9.2      0.846      1.142
REMARK  Name = 
REMARK  10 active torsions:
REMARK  status: ('A' for Active; 'I' for Inactive)
REMARK    1  A    between atoms: C_1  and  N_2
REMARK    2  A    between atoms: C_6  and  C_7
REMARK    3  A    between atoms: C_7  and  C_8
REMARK    4  A    between atoms: C_8  and  C_9
REMARK    5  A    between atoms: C_13  and  N_14
REMARK    6  A    between atoms: C_19  and  C_20
REMARK    7  A    between atoms: C_20  and  N_21
REMARK    8  A    between atoms: C_25  and  C_26
REMARK    9  A    between atoms: C_26  and  C_27
REMARK   10  A    between atoms: C_31  and  C_32
REMARK                            x       y       z     vdW  Elec       q    Type
REMARK                         _______ _______ _______ _____ _____    ______ ____
ROOT
ATOM      1  N   UNL     1       1.372   8.321  20.341  0.00  0.00    +0.000 N 
ATOM      2  C   UNL     1       1.529   6.982  20.854  0.00  0.00    +0.000 C 
ATOM      3  C   UNL     1       2.138   6.241  19.730  0.00  0.00    +0.000 A 
ATOM      4  C   UNL     1       2.539   7.118  18.718  0.00  0.00    +0.000 A 
ATOM      5  C   UNL     1       3.337   6.675  17.661  0.00  0.00    +0.000 A 
ATOM      6  C   UNL     1       3.663   5.303  17.610  0.00  0.00    +0.000 A 
ATOM      7  C   UNL     1       3.106   4.421  18.584  0.00  0.00    +0.000 A 
ATOM      8  C   UNL     1       2.368   4.878  19.669  0.00  0.00    +0.000 A 
ATOM      9  C   UNL     1       1.972   8.460  19.084  0.00  0.00    +0.000 C 
ATOM     10  O   UNL     1       2.029   9.434  18.350  0.00  0.00    +0.000 OA
ENDROOT
BRANCH   1  15
ATOM     11  C   UNL     1      -0.907  11.243  20.874  0.00  0.00    +0.000 A 
ATOM     12  C   UNL     1      -0.960  11.233  22.278  0.00  0.00    +0.000 A 
ATOM     13  C   UNL     1      -0.363  10.214  23.035  0.00  0.00    +0.000 A 
ATOM     14  C   UNL     1       0.349   9.180  22.413  0.00  0.00    +0.000 A 
ATOM     15  C   UNL     1       0.485   9.180  21.035  0.00  0.00    +0.000 A 
ATOM     16  C   UNL     1      -0.188  10.184  20.298  0.00  0.00    +0.000 A 
BRANCH  11  17
ATOM     17  C   UNL     1      -1.598  12.376  19.948  0.00  0.00    +0.000 C 
ATOM     18  C   UNL     1      -2.273  13.540  20.729  0.00  0.00    +0.000 C 
ATOM     19  O   UNL     1      -3.572  13.245  20.187  0.00  0.00    +0.000 OA
ATOM     20  C   UNL     1      -3.051  12.127  19.437  0.00  0.00    +0.000 C 
BRANCH  17  21
ATOM     21  C   UNL     1      -0.629  12.868  18.847  0.00  0.00    +0.000 C 
BRANCH  21  27
ATOM     22  C   UNL     1       2.064  13.188  20.520  0.00  0.00    +0.000 C 
ATOM     23  N   UNL     1       1.260  14.231  19.938  0.00  0.00    +0.000 N 
ATOM     24  C   UNL     1       1.509  15.565  20.074  0.00  0.00    +0.000 A 
ATOM     25  N   UNL     1       0.595  16.246  19.429  0.00  0.00    +0.000 NA
ATOM     26  N   UNL     1      -0.275  15.347  18.866  0.00  0.00    +0.000 NA
ATOM     27  C   UNL     1       0.117  14.127  19.182  0.00  0.00    +0.000 A 
ENDBRANCH  21  27
ENDBRANCH  17  21
ENDBRANCH  11  17
ENDBRANCH   1  15
BRANCH   8  28
ATOM     28  C   UNL     1       1.887   3.927  20.736  0.00  0.00    +0.000 C 
ATOM     29  F   UNL     1       0.536   3.877  20.852  0.00  0.00    +0.000 F 
ATOM     30  F   UNL     1       2.293   2.650  20.506  0.00  0.00    +0.000 F 
ATOM     31  F   UNL     1       2.351   4.260  21.971  0.00  0.00    +0.000 F 
ENDBRANCH   8  28
BRANCH   6  32
ATOM     32  C   UNL     1       4.800   4.694  16.797  0.00  0.00    +0.000 C 
BRANCH  32  33
ATOM     33  N   UNL     1       6.072   4.334  17.427  0.00  0.00    +0.000 NA
ATOM     34  C   UNL     1       6.673   5.460  18.153  0.00  0.00    +0.000 C 
ATOM     35  C   UNL     1       7.349   6.571  17.312  0.00  0.00    +0.000 C 
ATOM     36  O   UNL     1       7.483   6.389  15.901  0.00  0.00    +0.000 OA
ATOM     37  C   UNL     1       7.478   5.063  15.371  0.00  0.00    +0.000 C 
ATOM     38  C   UNL     1       7.072   3.958  16.392  0.00  0.00    +0.000 C 
BRANCH  37  39
ATOM     39  C   UNL     1       6.566   5.063  14.129  0.00  0.00    +0.000 C 
BRANCH  39  40
ATOM     40  C   UNL     1       6.232   3.692  13.565  0.00  0.00    +0.000 C 
ATOM     41  F   UNL     1       5.968   3.854  12.234  0.00  0.00    +0.000 F 
ENDBRANCH  39  40
ENDBRANCH  37  39
ENDBRANCH  32  33
ENDBRANCH   6  32
TORSDOF 9
ENDMDL
MODEL 7
REMARK VINA RESULT:      -9.2      2.197      3.407
REMARK  Name = 
REMARK  10 active torsions:
REMARK  status: ('A' for Active; 'I' for Inactive)
REMARK    1  A    between atoms: C_1  and  N_2
REMARK    2  A    between atoms: C_6  and  C_7
REMARK    3  A    between atoms: C_7  and  C_8
REMARK    4  A    between atoms: C_8  and  C_9
REMARK    5  A    between atoms: C_13  and  N_14
REMARK    6  A    between atoms: C_19  and  C_20
REMARK    7  A    between atoms: C_20  and  N_21
REMARK    8  A    between atoms: C_25  and  C_26
REMARK    9  A    between atoms: C_26  and  C_27
REMARK   10  A    between atoms: C_31  and  C_32
REMARK                            x       y       z     vdW  Elec       q    Type
REMARK                         _______ _______ _______ _____ _____    ______ ____
ROOT
ATOM      1  N   UNL     1       1.278   8.645  20.448  0.00  0.00    +0.000 N 
ATOM      2  C   UNL     1       1.505   7.297  20.910  0.00  0.00    +0.000 C 
ATOM      3  C   UNL     1       2.061   6.606  19.729  0.00  0.00    +0.000 A 
ATOM      4  C   UNL     1       2.372   7.523  18.720  0.00  0.00    +0.000 A 
ATOM      5  C   UNL     1       3.113   7.134  17.602  0.00  0.00    +0.000 A 
ATOM      6  C   UNL     1       3.474   5.774  17.489  0.00  0.00    +0.000 A 
ATOM      7  C   UNL     1       3.005   4.849  18.470  0.00  0.00    +0.000 A 
ATOM      8  C   UNL     1       2.325   5.253  19.612  0.00  0.00    +0.000 A 
ATOM      9  C   UNL     1       1.793   8.837  19.160  0.00  0.00    +0.000 C 
ATOM     10  O   UNL     1       1.776   9.832  18.454  0.00  0.00    +0.000 OA
ENDROOT
BRANCH   1  15
ATOM     11  C   UNL     1      -0.236  11.800  21.779  0.00  0.00    +0.000 A 
ATOM     12  C   UNL     1      -0.887  11.278  22.909  0.00  0.00    +0.000 A 
ATOM     13  C   UNL     1      -0.936   9.900  23.164  0.00  0.00    +0.000 A 
ATOM     14  C   UNL     1      -0.296   8.987  22.314  0.00  0.00    +0.000 A 
ATOM     15  C   UNL     1       0.414   9.457  21.222  0.00  0.00    +0.000 A 
ATOM     16  C   UNL     1       0.384  10.848  20.955  0.00  0.00    +0.000 A 
BRANCH  11  17
ATOM     17  C   UNL     1      -0.168  13.376  21.419  0.00  0.00    +0.000 C 
ATOM     18  C   UNL     1       1.266  13.976  21.363  0.00  0.00    +0.000 C 
ATOM     19  O   UNL     1       0.994  14.907  22.426  0.00  0.00    +0.000 OA
ATOM     20  C   UNL     1      -0.352  14.408  22.574  0.00  0.00    +0.000 C 
BRANCH  17  21
ATOM     21  C   UNL     1      -1.009  13.700  20.160  0.00  0.00    +0.000 C 
BRANCH  21  27
ATOM     22  C   UNL     1      -2.397  11.436  18.400  0.00  0.00    +0.000 C 
ATOM     23  N   UNL     1      -3.005  12.262  19.410  0.00  0.00    +0.000 N 
ATOM     24  C   UNL     1      -4.330  12.239  19.733  0.00  0.00    +0.000 A 
ATOM     25  N   UNL     1      -4.561  13.109  20.683  0.00  0.00    +0.000 NA
ATOM     26  N   UNL     1      -3.372  13.720  20.987  0.00  0.00    +0.000 NA
ATOM     27  C   UNL     1      -2.430  13.220  20.211  0.00  0.00    +0.000 A 
ENDBRANCH  21  27
ENDBRANCH  17  21
ENDBRANCH  11  17
ENDBRANCH   1  15
BRANCH   8  28
ATOM     28  C   UNL     1       1.940   4.260  20.679  0.00  0.00    +0.000 C 
ATOM     29  F   UNL     1       2.389   3.002  20.439  0.00  0.00    +0.000 F 
ATOM     30  F   UNL     1       2.425   4.605  21.902  0.00  0.00    +0.000 F 
ATOM     31  F   UNL     1       0.591   4.149  20.820  0.00  0.00    +0.000 F 
ENDBRANCH   8  28
BRANCH   6  32
ATOM     32  C   UNL     1       4.573   5.222  16.589  0.00  0.00    +0.000 C 
BRANCH  32  33
ATOM     33  N   UNL     1       5.410   6.114  15.783  0.00  0.00    +0.000 NA
ATOM     34  C   UNL     1       5.878   5.474  14.547  0.00  0.00    +0.000 C 
ATOM     35  C   UNL     1       7.020   4.436  14.671  0.00  0.00    +0.000 C 
ATOM     36  O   UNL     1       7.656   4.251  15.938  0.00  0.00    +0.000 OA
ATOM     37  C   UNL     1       7.613   5.310  16.895  0.00  0.00    +0.000 C 
ATOM     38  C   UNL     1       6.645   6.475  16.529  0.00  0.00    +0.000 C 
BRANCH  37  39
ATOM     39  C   UNL     1       7.273   4.686  18.262  0.00  0.00    +0.000 C 
BRANCH  39  40
ATOM     40  C   UNL     1       7.122   5.671  19.410  0.00  0.00    +0.000 C 
ATOM     41  F   UNL     1       5.810   5.653  19.791  0.00  0.00    +0.000 F 
ENDBRANCH  39  40
ENDBRANCH  37  39
ENDBRANCH  32  33
ENDBRANCH   6  32
TORSDOF 9
ENDMDL
MODEL 8
REMARK VINA RESULT:      -9.2      1.109      1.664
REMARK  Name = 
REMARK  10 active torsions:
REMARK  status: ('A' for Active; 'I' for Inactive)
REMARK    1  A    between atoms: C_1  and  N_2
REMARK    2  A    between atoms: C_6  and  C_7
REMARK    3  A    between atoms: C_7  and  C_8
REMARK    4  A    between atoms: C_8  and  C_9
REMARK    5  A    between atoms: C_13  and  N_14
REMARK    6  A    between atoms: C_19  and  C_20
REMARK    7  A    between atoms: C_20  and  N_21
REMARK    8  A    between atoms: C_25  and  C_26
REMARK    9  A    between atoms: C_26  and  C_27
REMARK   10  A    between atoms: C_31  and  C_32
REMARK                            x       y       z     vdW  Elec       q    Type
REMARK                         _______ _______ _______ _____ _____    ______ ____
ROOT
ATOM      1  N   UNL     1       1.391   8.424  20.365  0.00  0.00    +0.000 N 
ATOM      2  C   UNL     1       1.554   7.087  20.884  0.00  0.00    +0.000 C 
ATOM      3  C   UNL     1       2.118   6.332  19.747  0.00  0.00    +0.000 A 
ATOM      4  C   UNL     1       2.491   7.197  18.714  0.00  0.00    +0.000 A 
ATOM      5  C   UNL     1       3.249   6.737  17.634  0.00  0.00    +0.000 A 
ATOM      6  C   UNL     1       3.562   5.362  17.584  0.00  0.00    +0.000 A 
ATOM      7  C   UNL     1       3.031   4.494  18.584  0.00  0.00    +0.000 A 
ATOM      8  C   UNL     1       2.334   4.966  19.690  0.00  0.00    +0.000 A 
ATOM      9  C   UNL     1       1.949   8.547  19.087  0.00  0.00    +0.000 C 
ATOM     10  O   UNL     1       1.989   9.514  18.343  0.00  0.00    +0.000 OA
ENDROOT
BRANCH   1  15
ATOM     11  C   UNL     1      -0.101  11.678  21.462  0.00  0.00    +0.000 A 
ATOM     12  C   UNL     1      -0.745  11.246  22.634  0.00  0.00    +0.000 A 
ATOM     13  C   UNL     1      -0.797   9.891  22.994  0.00  0.00    +0.000 A 
ATOM     14  C   UNL     1      -0.167   8.914  22.211  0.00  0.00    +0.000 A 
ATOM     15  C   UNL     1       0.536   9.296  21.081  0.00  0.00    +0.000 A 
ATOM     16  C   UNL     1       0.509  10.663  20.709  0.00  0.00    +0.000 A 
BRANCH  11  17
ATOM     17  C   UNL     1      -0.031  13.221  20.982  0.00  0.00    +0.000 C 
ATOM     18  C   UNL     1      -1.084  14.160  21.636  0.00  0.00    +0.000 C 
ATOM     19  O   UNL     1      -1.686  14.484  20.371  0.00  0.00    +0.000 OA
ATOM     20  C   UNL     1      -0.769  13.620  19.667  0.00  0.00    +0.000 C 
BRANCH  17  21
ATOM     21  C   UNL     1       1.412  13.773  21.074  0.00  0.00    +0.000 C 
BRANCH  21  27
ATOM     22  C   UNL     1       2.650  13.003  18.241  0.00  0.00    +0.000 C 
ATOM     23  N   UNL     1       2.375  14.320  18.752  0.00  0.00    +0.000 N 
ATOM     24  C   UNL     1       2.671  15.481  18.100  0.00  0.00    +0.000 A 
ATOM     25  N   UNL     1       2.298  16.500  18.832  0.00  0.00    +0.000 NA
ATOM     26  N   UNL     1       1.754  16.004  19.989  0.00  0.00    +0.000 NA
ATOM     27  C   UNL     1       1.810  14.686  19.951  0.00  0.00    +0.000 A 
ENDBRANCH  21  27
ENDBRANCH  17  21
ENDBRANCH  11  17
ENDBRANCH   1  15
BRANCH   8  28
ATOM     28  C   UNL     1       1.882   4.029  20.782  0.00  0.00    +0.000 C 
ATOM     29  F   UNL     1       0.535   3.989  20.941  0.00  0.00    +0.000 F 
ATOM     30  F   UNL     1       2.272   2.747  20.551  0.00  0.00    +0.000 F 
ATOM     31  F   UNL     1       2.387   4.370  21.998  0.00  0.00    +0.000 F 
ENDBRANCH   8  28
BRANCH   6  32
ATOM     32  C   UNL     1       4.665   4.736  16.739  0.00  0.00    +0.000 C 
BRANCH  32  33
ATOM     33  N   UNL     1       5.904   4.250  17.351  0.00  0.00    +0.000 NA
ATOM     34  C   UNL     1       6.588   5.292  18.128  0.00  0.00    +0.000 C 
ATOM     35  C   UNL     1       7.350   6.385  17.339  0.00  0.00    +0.000 C 
ATOM     36  O   UNL     1       7.473   6.258  15.921  0.00  0.00    +0.000 OA
ATOM     37  C   UNL     1       7.368   4.962  15.330  0.00  0.00    +0.000 C 
ATOM     38  C   UNL     1       6.875   3.846  16.299  0.00  0.00    +0.000 C 
BRANCH  37  39
ATOM     39  C   UNL     1       6.462   5.090  14.090  0.00  0.00    +0.000 C 
BRANCH  39  40
ATOM     40  C   UNL     1       6.138   3.786  13.381  0.00  0.00    +0.000 C 
ATOM     41  F   UNL     1       6.613   3.889  12.104  0.00  0.00    +0.000 F 
ENDBRANCH  39  40
ENDBRANCH  37  39
ENDBRANCH  32  33
ENDBRANCH   6  32
TORSDOF 9
ENDMDL
MODEL 9
REMARK VINA RESULT:      -9.2      1.715      2.410
REMARK  Name = 
REMARK  10 active torsions:
REMARK  status: ('A' for Active; 'I' for Inactive)
REMARK    1  A    between atoms: C_1  and  N_2
REMARK    2  A    between atoms: C_6  and  C_7
REMARK    3  A    between atoms: C_7  and  C_8
REMARK    4  A    between atoms: C_8  and  C_9
REMARK    5  A    between atoms: C_13  and  N_14
REMARK    6  A    between atoms: C_19  and  C_20
REMARK    7  A    between atoms: C_20  and  N_21
REMARK    8  A    between atoms: C_25  and  C_26
REMARK    9  A    between atoms: C_26  and  C_27
REMARK   10  A    between atoms: C_31  and  C_32
REMARK                            x       y       z     vdW  Elec       q    Type
REMARK                         _______ _______ _______ _____ _____    ______ ____
ROOT
ATOM      1  N   UNL     1       1.213   8.459  20.552  0.00  0.00    +0.000 N 
ATOM      2  C   UNL     1       1.465   7.114  21.010  0.00  0.00    +0.000 C 
ATOM      3  C   UNL     1       2.035   6.437  19.827  0.00  0.00    +0.000 A 
ATOM      4  C   UNL     1       2.330   7.363  18.822  0.00  0.00    +0.000 A 
ATOM      5  C   UNL     1       3.078   6.990  17.703  0.00  0.00    +0.000 A 
ATOM      6  C   UNL     1       3.465   5.637  17.587  0.00  0.00    +0.000 A 
ATOM      7  C   UNL     1       3.012   4.702  18.564  0.00  0.00    +0.000 A 
ATOM      8  C   UNL     1       2.324   5.090  19.707  0.00  0.00    +0.000 A 
ATOM      9  C   UNL     1       1.725   8.664  19.265  0.00  0.00    +0.000 C 
ATOM     10  O   UNL     1       1.690   9.661  18.562  0.00  0.00    +0.000 OA
ENDROOT
BRANCH   1  15
ATOM     11  C   UNL     1      -0.955  11.387  21.415  0.00  0.00    +0.000 A 
ATOM     12  C   UNL     1      -1.076  11.176  22.799  0.00  0.00    +0.000 A 
ATOM     13  C   UNL     1      -0.564  10.028  23.421  0.00  0.00    +0.000 A 
ATOM     14  C   UNL     1       0.131   9.060  22.684  0.00  0.00    +0.000 A 
ATOM     15  C   UNL     1       0.334   9.252  21.328  0.00  0.00    +0.000 A 
ATOM     16  C   UNL     1      -0.257  10.387  20.719  0.00  0.00    +0.000 A 
BRANCH  11  17
ATOM     17  C   UNL     1      -1.547  12.676  20.638  0.00  0.00    +0.000 C 
ATOM     18  C   UNL     1      -2.457  13.599  21.499  0.00  0.00    +0.000 C 
ATOM     19  O   UNL     1      -3.597  13.389  20.647  0.00  0.00    +0.000 OA
ATOM     20  C   UNL     1      -2.848  12.498  19.795  0.00  0.00    +0.000 C 
BRANCH  17  21
ATOM     21  C   UNL     1      -0.429  13.448  19.897  0.00  0.00    +0.000 C 
BRANCH  21  27
ATOM     22  C   UNL     1      -0.168  16.601  20.281  0.00  0.00    +0.000 C 
ATOM     23  N   UNL     1       0.619  15.570  20.905  0.00  0.00    +0.000 N 
ATOM     24  C   UNL     1       1.676  15.801  21.737  0.00  0.00    +0.000 A 
ATOM     25  N   UNL     1       2.178  14.658  22.130  0.00  0.00    +0.000 NA
ATOM     26  N   UNL     1       1.447  13.657  21.542  0.00  0.00    +0.000 NA
ATOM     27  C   UNL     1       0.511  14.205  20.790  0.00  0.00    +0.000 A 
ENDBRANCH  21  27
ENDBRANCH  17  21
ENDBRANCH  11  17
ENDBRANCH   1  15
BRANCH   8  28
ATOM     28  C   UNL     1       1.957   4.086  20.771  0.00  0.00    +0.000 C 
ATOM     29  F   UNL     1       2.418   2.834  20.521  0.00  0.00    +0.000 F 
ATOM     30  F   UNL     1       2.447   4.430  21.992  0.00  0.00    +0.000 F 
ATOM     31  F   UNL     1       0.611   3.959  20.921  0.00  0.00    +0.000 F 
ENDBRANCH   8  28
BRANCH   6  32
ATOM     32  C   UNL     1       4.574   5.109  16.686  0.00  0.00    +0.000 C 
BRANCH  32  33
ATOM     33  N   UNL     1       5.330   6.007  15.810  0.00  0.00    +0.000 NA
ATOM     34  C   UNL     1       5.742   5.354  14.561  0.00  0.00    +0.000 C 
ATOM     35  C   UNL     1       6.923   4.354  14.636  0.00  0.00    +0.000 C 
ATOM     36  O   UNL     1       7.641   4.219  15.865  0.00  0.00    +0.000 OA
ATOM     37  C   UNL     1       7.623   5.299  16.799  0.00  0.00    +0.000 C 
ATOM     38  C   UNL     1       6.597   6.424  16.469  0.00  0.00    +0.000 C 
BRANCH  37  39
ATOM     39  C   UNL     1       7.388   4.696  18.198  0.00  0.00    +0.000 C 
BRANCH  39  40
ATOM     40  C   UNL     1       7.211   5.705  19.321  0.00  0.00    +0.000 C 
ATOM     41  F   UNL     1       5.925   5.592  19.769  0.00  0.00    +0.000 F 
ENDBRANCH  39  40
ENDBRANCH  37  39
ENDBRANCH  32  33
ENDBRANCH   6  32
TORSDOF 9
ENDMDL
