MODEL 1
REMARK VINA RESULT:      -9.9      0.000      0.000
REMARK  Name = 
REMARK  7 active torsions:
REMARK  status: ('A' for Active; 'I' for Inactive)
REMARK    1  A    between atoms: C_1  and  C_2
REMARK    2  A    between atoms: C_2  and  S_3
REMARK    3  A    between atoms: C_2  and  C_10
REMARK    4  A    between atoms: S_3  and  C_4
REMARK    5  A    between atoms: N_8  and  C_9
REMARK    6  A    between atoms: C_15  and  N_16
REMARK    7  A    between atoms: C_23  and  C_24
REMARK                            x       y       z     vdW  Elec       q    Type
REMARK                         _______ _______ _______ _____ _____    ______ ____
ROOT
ATOM      1  C   UNL     1       4.899   5.040  18.103  0.00  0.00    +0.000 A 
ATOM      2  C   UNL     1       4.589   3.911  18.884  0.00  0.00    +0.000 A 
ATOM      3  C   UNL     1       3.511   3.910  19.765  0.00  0.00    +0.000 A 
ATOM      4  C   UNL     1       2.703   5.032  19.868  0.00  0.00    +0.000 A 
ATOM      5  F   UNL     1       1.712   4.988  20.771  0.00  0.00    +0.000 F 
ATOM      6  C   UNL     1       2.976   6.195  19.137  0.00  0.00    +0.000 A 
ATOM      7  C   UNL     1       4.082   6.186  18.262  0.00  0.00    +0.000 A 
ENDROOT
BRANCH   6   8
ATOM      8  N   UNL     1       2.191   7.364  19.312  0.00  0.00    +0.000 N 
ATOM      9  C   UNL     1       1.565   7.728  20.576  0.00  0.00    +0.000 C 
ATOM     10  C   UNL     1       1.044   9.108  20.315  0.00  0.00    +0.000 A 
ATOM     11  C   UNL     1       1.394   9.497  19.024  0.00  0.00    +0.000 A 
ATOM     12  C   UNL     1       1.150  10.766  18.534  0.00  0.00    +0.000 A 
ATOM     13  C   UNL     1       0.496  11.667  19.373  0.00  0.00    +0.000 A 
ATOM     14  C   UNL     1       0.101  11.278  20.667  0.00  0.00    +0.000 A 
ATOM     15  C   UNL     1       0.373   9.987  21.165  0.00  0.00    +0.000 A 
ATOM     16  C   UNL     1       2.094   8.384  18.368  0.00  0.00    +0.000 C 
ATOM     17  O   UNL     1       2.527   8.446  17.231  0.00  0.00    +0.000 OA
BRANCH  15  18
ATOM     18  C   UNL     1      -0.047   9.618  22.565  0.00  0.00    +0.000 C 
ATOM     19  F   UNL     1      -0.711  10.610  23.218  0.00  0.00    +0.000 F 
ATOM     20  F   UNL     1      -0.871   8.536  22.593  0.00  0.00    +0.000 F 
ATOM     21  F   UNL     1       1.015   9.300  23.356  0.00  0.00    +0.000 F 
ENDBRANCH  15  18
ENDBRANCH   6   8
BRANCH   1  23
ATOM     22  C   UNL     1       7.429   4.737  17.873  0.00  0.00    +0.000 C 
ATOM     23  C   UNL     1       6.109   5.061  17.150  0.00  0.00    +0.000 C 
BRANCH  23  24
ATOM     24  S   UNL     1       5.857   3.893  15.740  0.00  0.00    +0.000 S 
BRANCH  24  25
ATOM     25  C   UNL     1       6.788   4.620  14.469  0.00  0.00    +0.000 A 
ATOM     26  N   UNL     1       7.718   5.533  14.590  0.00  0.00    +0.000 NA
ATOM     27  N   UNL     1       8.299   5.719  13.356  0.00  0.00    +0.000 NA
ATOM     28  C   UNL     1       7.673   4.944  12.506  0.00  0.00    +0.000 A 
ATOM     29  N   UNL     1       6.683   4.260  13.152  0.00  0.00    +0.000 N 
ATOM     30  C   UNL     1       5.732   3.380  12.534  0.00  0.00    +0.000 C 
ENDBRANCH  24  25
ENDBRANCH  23  24
ENDBRANCH   1  23
TORSDOF 5
ENDMDL
MODEL 2
REMARK VINA RESULT:      -9.0      1.705      2.577
REMARK  Name = 
REMARK  7 active torsions:
REMARK  status: ('A' for Active; 'I' for Inactive)
REMARK    1  A    between atoms: C_1  and  C_2
REMARK    2  A    between atoms: C_2  and  S_3
REMARK    3  A    between atoms: C_2  and  C_10
REMARK    4  A    between atoms: S_3  and  C_4
REMARK    5  A    between atoms: N_8  and  C_9
REMARK    6  A    between atoms: C_15  and  N_16
REMARK    7  A    between atoms: C_23  and  C_24
REMARK                            x       y       z     vdW  Elec       q    Type
REMARK                         _______ _______ _______ _____ _____    ______ ____
ROOT
ATOM      1  C   UNL     1       4.282   4.964  17.674  0.00  0.00    +0.000 A 
ATOM      2  C   UNL     1       4.264   3.970  18.672  0.00  0.00    +0.000 A 
ATOM      3  C   UNL     1       3.517   4.123  19.836  0.00  0.00    +0.000 A 
ATOM      4  C   UNL     1       2.751   5.264  20.020  0.00  0.00    +0.000 A 
ATOM      5  F   UNL     1       2.095   5.376  21.184  0.00  0.00    +0.000 F 
ATOM      6  C   UNL     1       2.748   6.299  19.076  0.00  0.00    +0.000 A 
ATOM      7  C   UNL     1       3.524   6.137  17.909  0.00  0.00    +0.000 A 
ENDROOT
BRANCH   6   8
ATOM      8  N   UNL     1       2.025   7.497  19.312  0.00  0.00    +0.000 N 
ATOM      9  C   UNL     1       1.415   7.826  20.593  0.00  0.00    +0.000 C 
ATOM     10  C   UNL     1       0.968   9.242  20.407  0.00  0.00    +0.000 A 
ATOM     11  C   UNL     1       1.342   9.681  19.138  0.00  0.00    +0.000 A 
ATOM     12  C   UNL     1       1.166  10.985  18.716  0.00  0.00    +0.000 A 
ATOM     13  C   UNL     1       0.558  11.873  19.603  0.00  0.00    +0.000 A 
ATOM     14  C   UNL     1       0.139  11.438  20.873  0.00  0.00    +0.000 A 
ATOM     15  C   UNL     1       0.341  10.108  21.302  0.00  0.00    +0.000 A 
ATOM     16  C   UNL     1       1.985   8.569  18.424  0.00  0.00    +0.000 C 
ATOM     17  O   UNL     1       2.425   8.669  17.293  0.00  0.00    +0.000 OA
BRANCH  15  18
ATOM     18  C   UNL     1      -0.103   9.688  22.680  0.00  0.00    +0.000 C 
ATOM     19  F   UNL     1      -0.781  10.654  23.357  0.00  0.00    +0.000 F 
ATOM     20  F   UNL     1      -0.924   8.604  22.653  0.00  0.00    +0.000 F 
ATOM     21  F   UNL     1       0.947   9.344  23.478  0.00  0.00    +0.000 F 
ENDBRANCH  15  18
ENDBRANCH   6   8
BRANCH   1  23
ATOM     22  C   UNL     1       5.033   6.052  15.484  0.00  0.00    +0.000 C 
ATOM     23  C   UNL     1       5.131   4.817  16.397  0.00  0.00    +0.000 C 
BRANCH  23  24
ATOM     24  S   UNL     1       6.900   4.480  16.817  0.00  0.00    +0.000 S 
BRANCH  24  25
ATOM     25  C   UNL     1       7.484   6.043  17.293  0.00  0.00    +0.000 A 
ATOM     26  N   UNL     1       7.652   7.093  16.530  0.00  0.00    +0.000 NA
ATOM     27  N   UNL     1       7.992   8.157  17.334  0.00  0.00    +0.000 NA
ATOM     28  C   UNL     1       8.066   7.714  18.563  0.00  0.00    +0.000 A 
ATOM     29  N   UNL     1       7.794   6.375  18.585  0.00  0.00    +0.000 N 
ATOM     30  C   UNL     1       7.862   5.525  19.740  0.00  0.00    +0.000 C 
ENDBRANCH  24  25
ENDBRANCH  23  24
ENDBRANCH   1  23
TORSDOF 5
ENDMDL
MODEL 3
REMARK VINA RESULT:      -9.0      3.052      4.417
REMARK  Name = 
REMARK  7 active torsions:
REMARK  status: ('A' for Active; 'I' for Inactive)
REMARK    1  A    between atoms: C_1  and  C_2
REMARK    2  A    between atoms: C_2  and  S_3
REMARK    3  A    between atoms: C_2  and  C_10
REMARK    4  A    between atoms: S_3  and  C_4
REMARK    5  A    between atoms: N_8  and  C_9
REMARK    6  A    between atoms: C_15  and  N_16
REMARK    7  A    between atoms: C_23  and  C_24
REMARK                            x       y       z     vdW  Elec       q    Type
REMARK                         _______ _______ _______ _____ _____    ______ ____
ROOT
ATOM      1  C   UNL     1       2.829   6.287  19.319  0.00  0.00    +0.000 A 
ATOM      2  C   UNL     1       3.264   6.624  18.023  0.00  0.00    +0.000 A 
ATOM      3  C   UNL     1       2.964   7.858  17.454  0.00  0.00    +0.000 A 
ATOM      4  C   UNL     1       2.240   8.794  18.176  0.00  0.00    +0.000 A 
ATOM      5  F   UNL     1       1.939   9.944  17.555  0.00  0.00    +0.000 F 
ATOM      6  C   UNL     1       1.758   8.507  19.460  0.00  0.00    +0.000 A 
ATOM      7  C   UNL     1       2.055   7.246  20.016  0.00  0.00    +0.000 A 
ENDROOT
BRANCH   6   8
ATOM      8  N   UNL     1       0.949   9.442  20.158  0.00  0.00    +0.000 N 
ATOM      9  C   UNL     1      -0.078  10.250  19.516  0.00  0.00    +0.000 C 
ATOM     10  C   UNL     1      -0.776  10.899  20.671  0.00  0.00    +0.000 A 
ATOM     11  C   UNL     1      -0.210  10.450  21.863  0.00  0.00    +0.000 A 
ATOM     12  C   UNL     1      -0.717  10.786  23.104  0.00  0.00    +0.000 A 
ATOM     13  C   UNL     1      -1.821  11.636  23.141  0.00  0.00    +0.000 A 
ATOM     14  C   UNL     1      -2.381  12.130  21.948  0.00  0.00    +0.000 A 
ATOM     15  C   UNL     1      -1.869  11.765  20.685  0.00  0.00    +0.000 A 
ATOM     16  C   UNL     1       0.907   9.549  21.546  0.00  0.00    +0.000 C 
ATOM     17  O   UNL     1       1.580   8.997  22.397  0.00  0.00    +0.000 OA
BRANCH  15  18
ATOM     18  C   UNL     1      -2.512  12.298  19.431  0.00  0.00    +0.000 C 
ATOM     19  F   UNL     1      -3.003  11.329  18.611  0.00  0.00    +0.000 F 
ATOM     20  F   UNL     1      -3.557  13.129  19.694  0.00  0.00    +0.000 F 
ATOM     21  F   UNL     1      -1.642  13.019  18.670  0.00  0.00    +0.000 F 
ENDBRANCH  15  18
ENDBRANCH   6   8
BRANCH   1  23
ATOM     22  C   UNL     1       1.859   4.222  20.477  0.00  0.00    +0.000 C 
ATOM     23  C   UNL     1       3.128   4.910  19.944  0.00  0.00    +0.000 C 
BRANCH  23  24
ATOM     24  S   UNL     1       3.984   3.809  18.731  0.00  0.00    +0.000 S 
BRANCH  24  25
ATOM     25  C   UNL     1       5.587   4.468  18.679  0.00  0.00    +0.000 A 
ATOM     26  N   UNL     1       6.273   4.968  19.675  0.00  0.00    +0.000 NA
ATOM     27  N   UNL     1       7.545   5.241  19.227  0.00  0.00    +0.000 NA
ATOM     28  C   UNL     1       7.586   4.941  17.953  0.00  0.00    +0.000 A 
ATOM     29  N   UNL     1       6.362   4.487  17.549  0.00  0.00    +0.000 N 
ATOM     30  C   UNL     1       5.999   4.143  16.204  0.00  0.00    +0.000 C 
ENDBRANCH  24  25
ENDBRANCH  23  24
ENDBRANCH   1  23
TORSDOF 5
ENDMDL
MODEL 4
REMARK VINA RESULT:      -8.9      1.019      1.381
REMARK  Name = 
REMARK  7 active torsions:
REMARK  status: ('A' for Active; 'I' for Inactive)
REMARK    1  A    between atoms: C_1  and  C_2
REMARK    2  A    between atoms: C_2  and  S_3
REMARK    3  A    between atoms: C_2  and  C_10
REMARK    4  A    between atoms: S_3  and  C_4
REMARK    5  A    between atoms: N_8  and  C_9
REMARK    6  A    between atoms: C_15  and  N_16
REMARK    7  A    between atoms: C_23  and  C_24
REMARK                            x       y       z     vdW  Elec       q    Type
REMARK                         _______ _______ _______ _____ _____    ______ ____
ROOT
ATOM      1  C   UNL     1       5.421   5.537  18.766  0.00  0.00    +0.000 A 
ATOM      2  C   UNL     1       4.979   4.250  19.127  0.00  0.00    +0.000 A 
ATOM      3  C   UNL     1       3.673   4.022  19.548  0.00  0.00    +0.000 A 
ATOM      4  C   UNL     1       2.770   5.073  19.598  0.00  0.00    +0.000 A 
ATOM      5  F   UNL     1       1.541   4.800  20.062  0.00  0.00    +0.000 F 
ATOM      6  C   UNL     1       3.157   6.380  19.277  0.00  0.00    +0.000 A 
ATOM      7  C   UNL     1       4.489   6.598  18.868  0.00  0.00    +0.000 A 
ENDROOT
BRANCH   6   8
ATOM      8  N   UNL     1       2.247   7.461  19.409  0.00  0.00    +0.000 N 
ATOM      9  C   UNL     1       1.592   7.810  20.663  0.00  0.00    +0.000 C 
ATOM     10  C   UNL     1       0.918   9.109  20.348  0.00  0.00    +0.000 A 
ATOM     11  C   UNL     1       1.214   9.477  19.037  0.00  0.00    +0.000 A 
ATOM     12  C   UNL     1       0.826  10.687  18.494  0.00  0.00    +0.000 A 
ATOM     13  C   UNL     1       0.081  11.546  19.301  0.00  0.00    +0.000 A 
ATOM     14  C   UNL     1      -0.260  11.174  20.615  0.00  0.00    +0.000 A 
ATOM     15  C   UNL     1       0.158   9.945  21.166  0.00  0.00    +0.000 A 
ATOM     16  C   UNL     1       2.030   8.420  18.422  0.00  0.00    +0.000 C 
ATOM     17  O   UNL     1       2.446   8.479  17.279  0.00  0.00    +0.000 OA
BRANCH  15  18
ATOM     18  C   UNL     1      -0.208   9.594  22.586  0.00  0.00    +0.000 C 
ATOM     19  F   UNL     1      -0.959   8.464  22.695  0.00  0.00    +0.000 F 
ATOM     20  F   UNL     1       0.884   9.394  23.371  0.00  0.00    +0.000 F 
ATOM     21  F   UNL     1      -0.930  10.578  23.191  0.00  0.00    +0.000 F 
ENDBRANCH  15  18
ENDBRANCH   6   8
BRANCH   1  23
ATOM     22  C   UNL     1       7.784   6.168  19.516  0.00  0.00    +0.000 C 
ATOM     23  C   UNL     1       6.874   5.804  18.329  0.00  0.00    +0.000 C 
BRANCH  23  24
ATOM     24  S   UNL     1       7.568   4.348  17.424  0.00  0.00    +0.000 S 
BRANCH  24  25
ATOM     25  C   UNL     1       7.074   4.644  15.788  0.00  0.00    +0.000 A 
ATOM     26  N   UNL     1       7.707   5.344  14.882  0.00  0.00    +0.000 NA
ATOM     27  N   UNL     1       7.042   5.200  13.686  0.00  0.00    +0.000 NA
ATOM     28  C   UNL     1       5.992   4.449  13.907  0.00  0.00    +0.000 A 
ATOM     29  N   UNL     1       5.945   4.106  15.229  0.00  0.00    +0.000 N 
ATOM     30  C   UNL     1       4.894   3.362  15.863  0.00  0.00    +0.000 C 
ENDBRANCH  24  25
ENDBRANCH  23  24
ENDBRANCH   1  23
TORSDOF 5
ENDMDL
MODEL 5
REMARK VINA RESULT:      -8.8      2.108      2.612
REMARK  Name = 
REMARK  7 active torsions:
REMARK  status: ('A' for Active; 'I' for Inactive)
REMARK    1  A    between atoms: C_1  and  C_2
REMARK    2  A    between atoms: C_2  and  S_3
REMARK    3  A    between atoms: C_2  and  C_10
REMARK    4  A    between atoms: S_3  and  C_4
REMARK    5  A    between atoms: N_8  and  C_9
REMARK    6  A    between atoms: C_15  and  N_16
REMARK    7  A    between atoms: C_23  and  C_24
REMARK                            x       y       z     vdW  Elec       q    Type
REMARK                         _______ _______ _______ _____ _____    ______ ____
ROOT
ATOM      1  C   UNL     1       4.625   4.892  17.178  0.00  0.00    +0.000 A 
ATOM      2  C   UNL     1       3.820   3.750  17.009  0.00  0.00    +0.000 A 
ATOM      3  C   UNL     1       2.538   3.679  17.547  0.00  0.00    +0.000 A 
ATOM      4  C   UNL     1       2.023   4.758  18.248  0.00  0.00    +0.000 A 
ATOM      5  F   UNL     1       0.803   4.610  18.786  0.00  0.00    +0.000 F 
ATOM      6  C   UNL     1       2.785   5.912  18.471  0.00  0.00    +0.000 A 
ATOM      7  C   UNL     1       4.089   5.962  17.935  0.00  0.00    +0.000 A 
ENDROOT
BRANCH   6   8
ATOM      8  N   UNL     1       2.277   6.978  19.259  0.00  0.00    +0.000 N 
ATOM      9  C   UNL     1       1.903   8.274  18.708  0.00  0.00    +0.000 C 
ATOM     10  C   UNL     1       1.243   8.960  19.864  0.00  0.00    +0.000 A 
ATOM     11  C   UNL     1       1.213   8.096  20.957  0.00  0.00    +0.000 A 
ATOM     12  C   UNL     1       0.566   8.407  22.138  0.00  0.00    +0.000 A 
ATOM     13  C   UNL     1      -0.048   9.656  22.227  0.00  0.00    +0.000 A 
ATOM     14  C   UNL     1       0.006  10.556  21.147  0.00  0.00    +0.000 A 
ATOM     15  C   UNL     1       0.653  10.221  19.938  0.00  0.00    +0.000 A 
ATOM     16  C   UNL     1       1.896   6.847  20.592  0.00  0.00    +0.000 C 
ATOM     17  O   UNL     1       2.012   5.903  21.352  0.00  0.00    +0.000 OA
BRANCH  15  18
ATOM     18  C   UNL     1       0.668  11.205  18.796  0.00  0.00    +0.000 C 
ATOM     19  F   UNL     1       0.200  12.439  19.129  0.00  0.00    +0.000 F 
ATOM     20  F   UNL     1       1.918  11.402  18.297  0.00  0.00    +0.000 F 
ATOM     21  F   UNL     1      -0.094  10.790  17.747  0.00  0.00    +0.000 F 
ENDBRANCH  15  18
ENDBRANCH   6   8
BRANCH   1  23
ATOM     22  C   UNL     1       7.126   4.892  17.719  0.00  0.00    +0.000 C 
ATOM     23  C   UNL     1       6.057   4.967  16.613  0.00  0.00    +0.000 C 
BRANCH  23  24
ATOM     24  S   UNL     1       6.343   3.632  15.366  0.00  0.00    +0.000 S 
BRANCH  24  25
ATOM     25  C   UNL     1       7.003   4.503  14.018  0.00  0.00    +0.000 A 
ATOM     26  N   UNL     1       7.834   5.513  14.056  0.00  0.00    +0.000 NA
ATOM     27  N   UNL     1       8.213   5.806  12.766  0.00  0.00    +0.000 NA
ATOM     28  C   UNL     1       7.565   4.992  11.971  0.00  0.00    +0.000 A 
ATOM     29  N   UNL     1       6.756   4.176  12.712  0.00  0.00    +0.000 N 
ATOM     30  C   UNL     1       5.831   3.213  12.185  0.00  0.00    +0.000 C 
ENDBRANCH  24  25
ENDBRANCH  23  24
ENDBRANCH   1  23
TORSDOF 5
ENDMDL
MODEL 6
REMARK VINA RESULT:      -8.8      3.083      4.717
REMARK  Name = 
REMARK  7 active torsions:
REMARK  status: ('A' for Active; 'I' for Inactive)
REMARK    1  A    between atoms: C_1  and  C_2
REMARK    2  A    between atoms: C_2  and  S_3
REMARK    3  A    between atoms: C_2  and  C_10
REMARK    4  A    between atoms: S_3  and  C_4
REMARK    5  A    between atoms: N_8  and  C_9
REMARK    6  A    between atoms: C_15  and  N_16
REMARK    7  A    between atoms: C_23  and  C_24
REMARK                            x       y       z     vdW  Elec       q    Type
REMARK                         _______ _______ _______ _____ _____    ______ ____
ROOT
ATOM      1  C   UNL     1       2.452   6.860  19.474  0.00  0.00    +0.000 A 
ATOM      2  C   UNL     1       2.443   7.164  18.100  0.00  0.00    +0.000 A 
ATOM      3  C   UNL     1       1.927   8.366  17.626  0.00  0.00    +0.000 A 
ATOM      4  C   UNL     1       1.427   9.303  18.517  0.00  0.00    +0.000 A 
ATOM      5  F   UNL     1       0.897  10.419  17.995  0.00  0.00    +0.000 F 
ATOM      6  C   UNL     1       1.385   9.047  19.894  0.00  0.00    +0.000 A 
ATOM      7  C   UNL     1       1.896   7.817  20.357  0.00  0.00    +0.000 A 
ENDROOT
BRANCH   6   8
ATOM      8  N   UNL     1       0.798   9.979  20.789  0.00  0.00    +0.000 N 
ATOM      9  C   UNL     1       1.038  11.414  20.724  0.00  0.00    +0.000 C 
ATOM     10  C   UNL     1       0.058  11.971  21.709  0.00  0.00    +0.000 A 
ATOM     11  C   UNL     1      -0.699  10.931  22.245  0.00  0.00    +0.000 A 
ATOM     12  C   UNL     1      -1.762  11.144  23.101  0.00  0.00    +0.000 A 
ATOM     13  C   UNL     1      -2.052  12.462  23.454  0.00  0.00    +0.000 A 
ATOM     14  C   UNL     1      -1.273  13.522  22.953  0.00  0.00    +0.000 A 
ATOM     15  C   UNL     1      -0.201  13.295  22.063  0.00  0.00    +0.000 A 
ATOM     16  C   UNL     1      -0.214   9.659  21.691  0.00  0.00    +0.000 C 
ATOM     17  O   UNL     1      -0.701   8.579  21.975  0.00  0.00    +0.000 OA
BRANCH  15  18
ATOM     18  C   UNL     1       0.593  14.460  21.531  0.00  0.00    +0.000 C 
ATOM     19  F   UNL     1       0.206  15.663  22.034  0.00  0.00    +0.000 F 
ATOM     20  F   UNL     1       1.921  14.351  21.804  0.00  0.00    +0.000 F 
ATOM     21  F   UNL     1       0.496  14.576  20.178  0.00  0.00    +0.000 F 
ENDBRANCH  15  18
ENDBRANCH   6   8
BRANCH   1  23
ATOM     22  C   UNL     1       1.953   4.764  20.855  0.00  0.00    +0.000 C 
ATOM     23  C   UNL     1       2.992   5.518  20.005  0.00  0.00    +0.000 C 
BRANCH  23  24
ATOM     24  S   UNL     1       3.571   4.445  18.615  0.00  0.00    +0.000 S 
BRANCH  24  25
ATOM     25  C   UNL     1       5.283   4.726  18.602  0.00  0.00    +0.000 A 
ATOM     26  N   UNL     1       6.037   5.082  19.612  0.00  0.00    +0.000 NA
ATOM     27  N   UNL     1       7.349   5.051  19.199  0.00  0.00    +0.000 NA
ATOM     28  C   UNL     1       7.355   4.719  17.932  0.00  0.00    +0.000 A 
ATOM     29  N   UNL     1       6.072   4.544  17.498  0.00  0.00    +0.000 N 
ATOM     30  C   UNL     1       5.676   4.259  16.147  0.00  0.00    +0.000 C 
ENDBRANCH  24  25
ENDBRANCH  23  24
ENDBRANCH   1  23
TORSDOF 5
ENDMDL
MODEL 7
REMARK VINA RESULT:      -8.7      2.813      3.911
REMARK  Name = 
REMARK  7 active torsions:
REMARK  status: ('A' for Active; 'I' for Inactive)
REMARK    1  A    between atoms: C_1  and  C_2
REMARK    2  A    between atoms: C_2  and  S_3
REMARK    3  A    between atoms: C_2  and  C_10
REMARK    4  A    between atoms: S_3  and  C_4
REMARK    5  A    between atoms: N_8  and  C_9
REMARK    6  A    between atoms: C_15  and  N_16
REMARK    7  A    between atoms: C_23  and  C_24
REMARK                            x       y       z     vdW  Elec       q    Type
REMARK                         _______ _______ _______ _____ _____    ______ ____
ROOT
ATOM      1  C   UNL     1       4.453   4.123  16.650  0.00  0.00    +0.000 A 
ATOM      2  C   UNL     1       3.609   2.996  16.664  0.00  0.00    +0.000 A 
ATOM      3  C   UNL     1       2.409   2.996  17.368  0.00  0.00    +0.000 A 
ATOM      4  C   UNL     1       2.012   4.132  18.057  0.00  0.00    +0.000 A 
ATOM      5  F   UNL     1       0.871   4.052  18.758  0.00  0.00    +0.000 F 
ATOM      6  C   UNL     1       2.820   5.275  18.102  0.00  0.00    +0.000 A 
ATOM      7  C   UNL     1       4.043   5.253  17.398  0.00  0.00    +0.000 A 
ENDROOT
BRANCH   6   8
ATOM      8  N   UNL     1       2.443   6.403  18.876  0.00  0.00    +0.000 N 
ATOM      9  C   UNL     1       2.085   7.690  18.296  0.00  0.00    +0.000 C 
ATOM     10  C   UNL     1       1.572   8.465  19.470  0.00  0.00    +0.000 A 
ATOM     11  C   UNL     1       1.599   7.655  20.604  0.00  0.00    +0.000 A 
ATOM     12  C   UNL     1       1.080   8.055  21.821  0.00  0.00    +0.000 A 
ATOM     13  C   UNL     1       0.542   9.339  21.901  0.00  0.00    +0.000 A 
ATOM     14  C   UNL     1       0.542  10.184  20.776  0.00  0.00    +0.000 A 
ATOM     15  C   UNL     1       1.056   9.759  19.533  0.00  0.00    +0.000 A 
ATOM     16  C   UNL     1       2.180   6.354  20.243  0.00  0.00    +0.000 C 
ATOM     17  O   UNL     1       2.317   5.441  21.038  0.00  0.00    +0.000 OA
BRANCH  15  18
ATOM     18  C   UNL     1       1.016  10.687  18.346  0.00  0.00    +0.000 C 
ATOM     19  F   UNL     1       0.587  11.943  18.646  0.00  0.00    +0.000 F 
ATOM     20  F   UNL     1       2.236  10.838  17.763  0.00  0.00    +0.000 F 
ATOM     21  F   UNL     1       0.185  10.236  17.366  0.00  0.00    +0.000 F 
ENDBRANCH  15  18
ENDBRANCH   6   8
BRANCH   1  23
ATOM     22  C   UNL     1       5.645   3.710  14.424  0.00  0.00    +0.000 C 
ATOM     23  C   UNL     1       5.799   4.121  15.900  0.00  0.00    +0.000 C 
BRANCH  23  24
ATOM     24  S   UNL     1       6.619   5.773  16.014  0.00  0.00    +0.000 S 
BRANCH  24  25
ATOM     25  C   UNL     1       7.276   5.765  17.619  0.00  0.00    +0.000 A 
ATOM     26  N   UNL     1       7.406   4.736  18.419  0.00  0.00    +0.000 NA
ATOM     27  N   UNL     1       8.104   5.144  19.532  0.00  0.00    +0.000 NA
ATOM     28  C   UNL     1       8.342   6.425  19.401  0.00  0.00    +0.000 A 
ATOM     29  N   UNL     1       7.803   6.873  18.228  0.00  0.00    +0.000 N 
ATOM     30  C   UNL     1       7.788   8.237  17.781  0.00  0.00    +0.000 C 
ENDBRANCH  24  25
ENDBRANCH  23  24
ENDBRANCH   1  23
TORSDOF 5
ENDMDL
MODEL 8
REMARK VINA RESULT:      -8.6      4.135      8.687
REMARK  Name = 
REMARK  7 active torsions:
REMARK  status: ('A' for Active; 'I' for Inactive)
REMARK    1  A    between atoms: C_1  and  C_2
REMARK    2  A    between atoms: C_2  and  S_3
REMARK    3  A    between atoms: C_2  and  C_10
REMARK    4  A    between atoms: S_3  and  C_4
REMARK    5  A    between atoms: N_8  and  C_9
REMARK    6  A    between atoms: C_15  and  N_16
REMARK    7  A    between atoms: C_23  and  C_24
REMARK                            x       y       z     vdW  Elec       q    Type
REMARK                         _______ _______ _______ _____ _____    ______ ____
ROOT
ATOM      1  C   UNL     1      -0.300  10.994  19.999  0.00  0.00    +0.000 A 
ATOM      2  C   UNL     1      -0.309  11.264  21.381  0.00  0.00    +0.000 A 
ATOM      3  C   UNL     1       0.363  10.447  22.285  0.00  0.00    +0.000 A 
ATOM      4  C   UNL     1       1.079   9.352  21.826  0.00  0.00    +0.000 A 
ATOM      5  F   UNL     1       1.662   8.574  22.751  0.00  0.00    +0.000 F 
ATOM      6  C   UNL     1       1.103   9.017  20.467  0.00  0.00    +0.000 A 
ATOM      7  C   UNL     1       0.403   9.844  19.565  0.00  0.00    +0.000 A 
ENDROOT
BRANCH   6   8
ATOM      8  N   UNL     1       1.772   7.848  20.018  0.00  0.00    +0.000 N 
ATOM      9  C   UNL     1       1.599   6.539  20.635  0.00  0.00    +0.000 C 
ATOM     10  C   UNL     1       2.324   5.621  19.699  0.00  0.00    +0.000 A 
ATOM     11  C   UNL     1       2.820   6.356  18.624  0.00  0.00    +0.000 A 
ATOM     12  C   UNL     1       3.439   5.767  17.539  0.00  0.00    +0.000 A 
ATOM     13  C   UNL     1       3.591   4.381  17.557  0.00  0.00    +0.000 A 
ATOM     14  C   UNL     1       3.131   3.627  18.652  0.00  0.00    +0.000 A 
ATOM     15  C   UNL     1       2.482   4.237  19.747  0.00  0.00    +0.000 A 
ATOM     16  C   UNL     1       2.502   7.776  18.834  0.00  0.00    +0.000 C 
ATOM     17  O   UNL     1       2.805   8.651  18.044  0.00  0.00    +0.000 OA
BRANCH  15  18
ATOM     18  C   UNL     1       1.984   3.391  20.891  0.00  0.00    +0.000 C 
ATOM     19  F   UNL     1       2.375   2.089  20.822  0.00  0.00    +0.000 F 
ATOM     20  F   UNL     1       2.412   3.846  22.099  0.00  0.00    +0.000 F 
ATOM     21  F   UNL     1       0.624   3.366  20.960  0.00  0.00    +0.000 F 
ENDBRANCH  15  18
ENDBRANCH   6   8
BRANCH   1  23
ATOM     22  C   UNL     1      -0.185  12.983  18.394  0.00  0.00    +0.000 C 
ATOM     23  C   UNL     1      -1.068  11.875  18.995  0.00  0.00    +0.000 C 
BRANCH  23  24
ATOM     24  S   UNL     1      -1.800  10.847  17.643  0.00  0.00    +0.000 S 
BRANCH  24  25
ATOM     25  C   UNL     1      -3.463  11.343  17.643  0.00  0.00    +0.000 A 
ATOM     26  N   UNL     1      -4.141  11.845  18.643  0.00  0.00    +0.000 NA
ATOM     27  N   UNL     1      -5.375  12.233  18.173  0.00  0.00    +0.000 NA
ATOM     28  C   UNL     1      -5.431  11.913  16.904  0.00  0.00    +0.000 A 
ATOM     29  N   UNL     1      -4.262  11.311  16.532  0.00  0.00    +0.000 N 
ATOM     30  C   UNL     1      -3.985  10.747  15.241  0.00  0.00    +0.000 C 
ENDBRANCH  24  25
ENDBRANCH  23  24
ENDBRANCH   1  23
TORSDOF 5
ENDMDL
MODEL 9
REMARK VINA RESULT:      -8.6      4.627      9.899
REMARK  Name = 
REMARK  7 active torsions:
REMARK  status: ('A' for Active; 'I' for Inactive)
REMARK    1  A    between atoms: C_1  and  C_2
REMARK    2  A    between atoms: C_2  and  S_3
REMARK    3  A    between atoms: C_2  and  C_10
REMARK    4  A    between atoms: S_3  and  C_4
REMARK    5  A    between atoms: N_8  and  C_9
REMARK    6  A    between atoms: C_15  and  N_16
REMARK    7  A    between atoms: C_23  and  C_24
REMARK                            x       y       z     vdW  Elec       q    Type
REMARK                         _______ _______ _______ _____ _____    ______ ____
ROOT
ATOM      1  C   UNL     1       0.033  10.164  20.895  0.00  0.00    +0.000 A 
ATOM      2  C   UNL     1       0.065  11.218  19.962  0.00  0.00    +0.000 A 
ATOM      3  C   UNL     1       0.760  11.106  18.762  0.00  0.00    +0.000 A 
ATOM      4  C   UNL     1       1.422   9.927  18.456  0.00  0.00    +0.000 A 
ATOM      5  F   UNL     1       2.117   9.898  17.308  0.00  0.00    +0.000 F 
ATOM      6  C   UNL     1       1.449   8.853  19.354  0.00  0.00    +0.000 A 
ATOM      7  C   UNL     1       0.755   8.989  20.574  0.00  0.00    +0.000 A 
ENDROOT
BRANCH   6   8
ATOM      8  N   UNL     1       2.197   7.682  19.065  0.00  0.00    +0.000 N 
ATOM      9  C   UNL     1       3.265   7.636  18.075  0.00  0.00    +0.000 C 
ATOM     10  C   UNL     1       3.871   6.283  18.286  0.00  0.00    +0.000 A 
ATOM     11  C   UNL     1       3.221   5.646  19.342  0.00  0.00    +0.000 A 
ATOM     12  C   UNL     1       3.632   4.427  19.845  0.00  0.00    +0.000 A 
ATOM     13  C   UNL     1       4.725   3.813  19.235  0.00  0.00    +0.000 A 
ATOM     14  C   UNL     1       5.369   4.423  18.144  0.00  0.00    +0.000 A 
ATOM     15  C   UNL     1       4.954   5.678  17.649  0.00  0.00    +0.000 A 
ATOM     16  C   UNL     1       2.136   6.514  19.822  0.00  0.00    +0.000 C 
ATOM     17  O   UNL     1       1.405   6.216  20.749  0.00  0.00    +0.000 OA
BRANCH  15  18
ATOM     18  C   UNL     1       5.685   6.309  16.492  0.00  0.00    +0.000 C 
ATOM     19  F   UNL     1       6.640   5.509  15.945  0.00  0.00    +0.000 F 
ATOM     20  F   UNL     1       4.852   6.647  15.472  0.00  0.00    +0.000 F 
ATOM     21  F   UNL     1       6.325   7.457  16.850  0.00  0.00    +0.000 F 
ENDBRANCH  15  18
ENDBRANCH   6   8
BRANCH   1  23
ATOM     22  C   UNL     1       0.014   9.547  23.378  0.00  0.00    +0.000 C 
ATOM     23  C   UNL     1      -0.707  10.292  22.240  0.00  0.00    +0.000 C 
BRANCH  23  24
ATOM     24  S   UNL     1      -0.941  12.068  22.697  0.00  0.00    +0.000 S 
BRANCH  24  25
ATOM     25  C   UNL     1      -2.667  12.219  22.777  0.00  0.00    +0.000 A 
ATOM     26  N   UNL     1      -3.440  11.959  23.802  0.00  0.00    +0.000 NA
ATOM     27  N   UNL     1      -4.719  12.352  23.484  0.00  0.00    +0.000 NA
ATOM     28  C   UNL     1      -4.700  12.801  22.255  0.00  0.00    +0.000 A 
ATOM     29  N   UNL     1      -3.434  12.699  21.750  0.00  0.00    +0.000 N 
ATOM     30  C   UNL     1      -3.042  13.013  20.405  0.00  0.00    +0.000 C 
ENDBRANCH  24  25
ENDBRANCH  23  24
ENDBRANCH   1  23
TORSDOF 5
ENDMDL
