MODEL 1
REMARK VINA RESULT:      -9.2      0.000      0.000
REMARK  Name = 
REMARK  7 active torsions:
REMARK  status: ('A' for Active; 'I' for Inactive)
REMARK    1  A    between atoms: C_1  and  C_2
REMARK    2  A    between atoms: C_6  and  C_7
REMARK    3  A    between atoms: C_7  and  C_8
REMARK    4  A    between atoms: C_8  and  C_9
REMARK    5  A    between atoms: C_8  and  C_10
REMARK    6  A    between atoms: C_14  and  N_15
REMARK    7  A    between atoms: C_22  and  C_23
REMARK                            x       y       z     vdW  Elec       q    Type
REMARK                         _______ _______ _______ _____ _____    ______ ____
ROOT
ATOM      1  C   UNL     1       4.561   5.451  17.776  0.00  0.00    +0.000 A 
ATOM      2  C   UNL     1       4.407   4.333  18.592  0.00  0.00    +0.000 A 
ATOM      3  C   UNL     1       3.510   4.372  19.674  0.00  0.00    +0.000 A 
ATOM      4  C   UNL     1       2.731   5.512  19.936  0.00  0.00    +0.000 A 
ATOM      5  C   UNL     1       2.868   6.643  19.136  0.00  0.00    +0.000 A 
ATOM      6  C   UNL     1       3.817   6.594  18.099  0.00  0.00    +0.000 A 
ENDROOT
BRANCH   5   7
ATOM      7  N   UNL     1       2.069   7.807  19.269  0.00  0.00    +0.000 N 
ATOM      8  C   UNL     1       1.425   8.075  20.539  0.00  0.00    +0.000 C 
ATOM      9  C   UNL     1       0.785   9.398  20.360  0.00  0.00    +0.000 A 
ATOM     10  C   UNL     1       1.038   9.866  19.077  0.00  0.00    +0.000 A 
ATOM     11  C   UNL     1       0.571  11.101  18.665  0.00  0.00    +0.000 A 
ATOM     12  C   UNL     1      -0.168  11.857  19.587  0.00  0.00    +0.000 A 
ATOM     13  C   UNL     1      -0.423  11.375  20.888  0.00  0.00    +0.000 A 
ATOM     14  C   UNL     1       0.057  10.122  21.300  0.00  0.00    +0.000 A 
ATOM     15  C   UNL     1       1.862   8.855  18.361  0.00  0.00    +0.000 C 
ATOM     16  O   UNL     1       2.251   9.001  17.222  0.00  0.00    +0.000 OA
BRANCH  14  17
ATOM     17  C   UNL     1      -0.198   9.605  22.693  0.00  0.00    +0.000 C 
ATOM     18  F   UNL     1      -0.912  10.463  23.475  0.00  0.00    +0.000 F 
ATOM     19  F   UNL     1      -0.900   8.439  22.698  0.00  0.00    +0.000 F 
ATOM     20  F   UNL     1       0.953   9.360  23.378  0.00  0.00    +0.000 F 
ENDBRANCH  14  17
ENDBRANCH   5   7
BRANCH   1  21
ATOM     21  C   UNL     1       5.359   5.497  16.474  0.00  0.00    +0.000 C 
ATOM     22  C   UNL     1       4.782   4.423  15.532  0.00  0.00    +0.000 C 
BRANCH  21  23
ATOM     23  C   UNL     1       6.889   5.393  16.607  0.00  0.00    +0.000 C 
BRANCH  23  29
ATOM     24  C   UNL     1       8.095   5.403  19.729  0.00  0.00    +0.000 C 
ATOM     25  C   UNL     1       7.967   6.481  18.725  0.00  0.00    +0.000 A 
ATOM     26  N   UNL     1       8.383   7.768  18.967  0.00  0.00    +0.000 N 
ATOM     27  C   UNL     1       8.148   8.500  17.841  0.00  0.00    +0.000 A 
ATOM     28  N   UNL     1       7.596   7.771  16.902  0.00  0.00    +0.000 NA
ATOM     29  C   UNL     1       7.471   6.505  17.433  0.00  0.00    +0.000 A 
ATOM     30  H   UNL     1       8.796   8.115  19.822  0.00  0.00    +0.000 HD
ENDBRANCH  23  29
ENDBRANCH  21  23
ENDBRANCH   1  21
TORSDOF 5
ENDMDL
MODEL 2
REMARK VINA RESULT:      -8.9      1.371      2.462
REMARK  Name = 
REMARK  7 active torsions:
REMARK  status: ('A' for Active; 'I' for Inactive)
REMARK    1  A    between atoms: C_1  and  C_2
REMARK    2  A    between atoms: C_6  and  C_7
REMARK    3  A    between atoms: C_7  and  C_8
REMARK    4  A    between atoms: C_8  and  C_9
REMARK    5  A    between atoms: C_8  and  C_10
REMARK    6  A    between atoms: C_14  and  N_15
REMARK    7  A    between atoms: C_22  and  C_23
REMARK                            x       y       z     vdW  Elec       q    Type
REMARK                         _______ _______ _______ _____ _____    ______ ____
ROOT
ATOM      1  C   UNL     1       5.141   5.020  19.111  0.00  0.00    +0.000 A 
ATOM      2  C   UNL     1       4.580   3.796  19.468  0.00  0.00    +0.000 A 
ATOM      3  C   UNL     1       3.244   3.737  19.903  0.00  0.00    +0.000 A 
ATOM      4  C   UNL     1       2.441   4.889  19.955  0.00  0.00    +0.000 A 
ATOM      5  C   UNL     1       2.980   6.124  19.605  0.00  0.00    +0.000 A 
ATOM      6  C   UNL     1       4.335   6.160  19.232  0.00  0.00    +0.000 A 
ENDROOT
BRANCH   5   7
ATOM      7  N   UNL     1       2.228   7.327  19.545  0.00  0.00    +0.000 N 
ATOM      8  C   UNL     1       1.509   7.764  20.725  0.00  0.00    +0.000 C 
ATOM      9  C   UNL     1       0.946   9.080  20.350  0.00  0.00    +0.000 A 
ATOM     10  C   UNL     1       1.312   9.388  19.046  0.00  0.00    +0.000 A 
ATOM     11  C   UNL     1       0.934  10.584  18.464  0.00  0.00    +0.000 A 
ATOM     12  C   UNL     1       0.167  11.469  19.236  0.00  0.00    +0.000 A 
ATOM     13  C   UNL     1      -0.203  11.150  20.560  0.00  0.00    +0.000 A 
ATOM     14  C   UNL     1       0.188   9.936  21.144  0.00  0.00    +0.000 A 
ATOM     15  C   UNL     1       2.137   8.270  18.512  0.00  0.00    +0.000 C 
ATOM     16  O   UNL     1       2.612   8.268  17.397  0.00  0.00    +0.000 OA
BRANCH  14  17
ATOM     17  C   UNL     1      -0.190   9.592  22.563  0.00  0.00    +0.000 C 
ATOM     18  F   UNL     1      -0.917  10.562  23.188  0.00  0.00    +0.000 F 
ATOM     19  F   UNL     1      -0.945   8.463  22.645  0.00  0.00    +0.000 F 
ATOM     20  F   UNL     1       0.896   9.383  23.357  0.00  0.00    +0.000 F 
ENDBRANCH  14  17
ENDBRANCH   5   7
BRANCH   1  21
ATOM     21  C   UNL     1       6.510   5.212  18.460  0.00  0.00    +0.000 C 
ATOM     22  C   UNL     1       7.495   5.651  19.560  0.00  0.00    +0.000 C 
BRANCH  21  23
ATOM     23  C   UNL     1       6.556   6.140  17.233  0.00  0.00    +0.000 C 
BRANCH  23  29
ATOM     24  C   UNL     1       4.301   4.004  15.987  0.00  0.00    +0.000 C 
ATOM     25  C   UNL     1       5.582   4.504  15.442  0.00  0.00    +0.000 A 
ATOM     26  N   UNL     1       6.061   4.122  14.213  0.00  0.00    +0.000 N 
ATOM     27  C   UNL     1       7.239   4.775  14.003  0.00  0.00    +0.000 A 
ATOM     28  N   UNL     1       7.552   5.537  15.023  0.00  0.00    +0.000 NA
ATOM     29  C   UNL     1       6.532   5.382  15.936  0.00  0.00    +0.000 A 
ATOM     30  H   UNL     1       5.620   3.477  13.570  0.00  0.00    +0.000 HD
ENDBRANCH  23  29
ENDBRANCH  21  23
ENDBRANCH   1  21
TORSDOF 5
ENDMDL
MODEL 3
REMARK VINA RESULT:      -8.8      1.844      2.937
REMARK  Name = 
REMARK  7 active torsions:
REMARK  status: ('A' for Active; 'I' for Inactive)
REMARK    1  A    between atoms: C_1  and  C_2
REMARK    2  A    between atoms: C_6  and  C_7
REMARK    3  A    between atoms: C_7  and  C_8
REMARK    4  A    between atoms: C_8  and  C_9
REMARK    5  A    between atoms: C_8  and  C_10
REMARK    6  A    between atoms: C_14  and  N_15
REMARK    7  A    between atoms: C_22  and  C_23
REMARK                            x       y       z     vdW  Elec       q    Type
REMARK                         _______ _______ _______ _____ _____    ______ ____
ROOT
ATOM      1  C   UNL     1       4.491   5.390  17.628  0.00  0.00    +0.000 A 
ATOM      2  C   UNL     1       4.192   4.214  18.310  0.00  0.00    +0.000 A 
ATOM      3  C   UNL     1       3.210   4.217  19.317  0.00  0.00    +0.000 A 
ATOM      4  C   UNL     1       2.491   5.382  19.633  0.00  0.00    +0.000 A 
ATOM      5  C   UNL     1       2.773   6.571  18.965  0.00  0.00    +0.000 A 
ATOM      6  C   UNL     1       3.801   6.551  18.007  0.00  0.00    +0.000 A 
ENDROOT
BRANCH   5   7
ATOM      7  N   UNL     1       2.046   7.775  19.154  0.00  0.00    +0.000 N 
ATOM      8  C   UNL     1       1.420   8.023  20.437  0.00  0.00    +0.000 C 
ATOM      9  C   UNL     1       0.862   9.389  20.320  0.00  0.00    +0.000 A 
ATOM     10  C   UNL     1       1.143   9.900  19.059  0.00  0.00    +0.000 A 
ATOM     11  C   UNL     1       0.752  11.178  18.705  0.00  0.00    +0.000 A 
ATOM     12  C   UNL     1       0.061  11.935  19.663  0.00  0.00    +0.000 A 
ATOM     13  C   UNL     1      -0.223  11.410  20.942  0.00  0.00    +0.000 A 
ATOM     14  C   UNL     1       0.179  10.113  21.294  0.00  0.00    +0.000 A 
ATOM     15  C   UNL     1       1.904   8.874  18.295  0.00  0.00    +0.000 C 
ATOM     16  O   UNL     1       2.301   9.048  17.163  0.00  0.00    +0.000 OA
BRANCH  14  17
ATOM     17  C   UNL     1      -0.107   9.548  22.662  0.00  0.00    +0.000 C 
ATOM     18  F   UNL     1      -0.851   8.406  22.641  0.00  0.00    +0.000 F 
ATOM     19  F   UNL     1       1.028   9.230  23.344  0.00  0.00    +0.000 F 
ATOM     20  F   UNL     1      -0.796  10.417  23.452  0.00  0.00    +0.000 F 
ENDBRANCH  14  17
ENDBRANCH   5   7
BRANCH   1  21
ATOM     21  C   UNL     1       5.398   5.501  16.403  0.00  0.00    +0.000 C 
ATOM     22  C   UNL     1       4.999   6.775  15.636  0.00  0.00    +0.000 C 
BRANCH  21  23
ATOM     23  C   UNL     1       5.460   4.265  15.487  0.00  0.00    +0.000 C 
BRANCH  23  29
ATOM     24  C   UNL     1       5.207   3.166  12.336  0.00  0.00    +0.000 C 
ATOM     25  C   UNL     1       6.224   4.010  13.000  0.00  0.00    +0.000 A 
ATOM     26  N   UNL     1       7.313   4.516  12.334  0.00  0.00    +0.000 N 
ATOM     27  C   UNL     1       8.034   5.263  13.218  0.00  0.00    +0.000 A 
ATOM     28  N   UNL     1       7.485   5.254  14.409  0.00  0.00    +0.000 NA
ATOM     29  C   UNL     1       6.354   4.475  14.298  0.00  0.00    +0.000 A 
ATOM     30  H   UNL     1       7.543   4.371  11.359  0.00  0.00    +0.000 HD
ENDBRANCH  23  29
ENDBRANCH  21  23
ENDBRANCH   1  21
TORSDOF 5
ENDMDL
MODEL 4
REMARK VINA RESULT:      -8.8      0.764      1.426
REMARK  Name = 
REMARK  7 active torsions:
REMARK  status: ('A' for Active; 'I' for Inactive)
REMARK    1  A    between atoms: C_1  and  C_2
REMARK    2  A    between atoms: C_6  and  C_7
REMARK    3  A    between atoms: C_7  and  C_8
REMARK    4  A    between atoms: C_8  and  C_9
REMARK    5  A    between atoms: C_8  and  C_10
REMARK    6  A    between atoms: C_14  and  N_15
REMARK    7  A    between atoms: C_22  and  C_23
REMARK                            x       y       z     vdW  Elec       q    Type
REMARK                         _______ _______ _______ _____ _____    ______ ____
ROOT
ATOM      1  C   UNL     1       4.470   5.394  17.419  0.00  0.00    +0.000 A 
ATOM      2  C   UNL     1       4.097   4.194  18.019  0.00  0.00    +0.000 A 
ATOM      3  C   UNL     1       3.082   4.182  18.992  0.00  0.00    +0.000 A 
ATOM      4  C   UNL     1       2.404   5.358  19.355  0.00  0.00    +0.000 A 
ATOM      5  C   UNL     1       2.760   6.570  18.770  0.00  0.00    +0.000 A 
ATOM      6  C   UNL     1       3.819   6.560  17.846  0.00  0.00    +0.000 A 
ENDROOT
BRANCH   5   7
ATOM      7  N   UNL     1       2.081   7.793  19.009  0.00  0.00    +0.000 N 
ATOM      8  C   UNL     1       1.452   8.007  20.297  0.00  0.00    +0.000 C 
ATOM      9  C   UNL     1       0.951   9.399  20.239  0.00  0.00    +0.000 A 
ATOM     10  C   UNL     1       1.267   9.955  19.006  0.00  0.00    +0.000 A 
ATOM     11  C   UNL     1       0.932  11.264  18.709  0.00  0.00    +0.000 A 
ATOM     12  C   UNL     1       0.262  12.003  19.695  0.00  0.00    +0.000 A 
ATOM     13  C   UNL     1      -0.057  11.431  20.945  0.00  0.00    +0.000 A 
ATOM     14  C   UNL     1       0.288  10.104  21.240  0.00  0.00    +0.000 A 
ATOM     15  C   UNL     1       1.993   8.936  18.201  0.00  0.00    +0.000 C 
ATOM     16  O   UNL     1       2.409   9.146  17.082  0.00  0.00    +0.000 OA
BRANCH  14  17
ATOM     17  C   UNL     1      -0.035   9.489  22.578  0.00  0.00    +0.000 C 
ATOM     18  F   UNL     1      -0.829   8.384  22.497  0.00  0.00    +0.000 F 
ATOM     19  F   UNL     1       1.078   9.087  23.251  0.00  0.00    +0.000 F 
ATOM     20  F   UNL     1      -0.690  10.349  23.404  0.00  0.00    +0.000 F 
ENDBRANCH  14  17
ENDBRANCH   5   7
BRANCH   1  21
ATOM     21  C   UNL     1       5.423   5.534  16.232  0.00  0.00    +0.000 C 
ATOM     22  C   UNL     1       4.762   4.858  15.016  0.00  0.00    +0.000 C 
BRANCH  21  23
ATOM     23  C   UNL     1       6.866   5.048  16.455  0.00  0.00    +0.000 C 
BRANCH  23  29
ATOM     24  C   UNL     1       7.666   8.161  17.390  0.00  0.00    +0.000 C 
ATOM     25  C   UNL     1       7.777   6.867  18.097  0.00  0.00    +0.000 A 
ATOM     26  N   UNL     1       8.269   6.764  19.375  0.00  0.00    +0.000 N 
ATOM     27  C   UNL     1       8.215   5.451  19.738  0.00  0.00    +0.000 A 
ATOM     28  N   UNL     1       7.737   4.706  18.771  0.00  0.00    +0.000 NA
ATOM     29  C   UNL     1       7.458   5.569  17.734  0.00  0.00    +0.000 A 
ATOM     30  H   UNL     1       8.606   7.523  19.953  0.00  0.00    +0.000 HD
ENDBRANCH  23  29
ENDBRANCH  21  23
ENDBRANCH   1  21
TORSDOF 5
ENDMDL
MODEL 5
REMARK VINA RESULT:      -8.7      3.403      8.299
REMARK  Name = 
REMARK  7 active torsions:
REMARK  status: ('A' for Active; 'I' for Inactive)
REMARK    1  A    between atoms: C_1  and  C_2
REMARK    2  A    between atoms: C_6  and  C_7
REMARK    3  A    between atoms: C_7  and  C_8
REMARK    4  A    between atoms: C_8  and  C_9
REMARK    5  A    between atoms: C_8  and  C_10
REMARK    6  A    between atoms: C_14  and  N_15
REMARK    7  A    between atoms: C_22  and  C_23
REMARK                            x       y       z     vdW  Elec       q    Type
REMARK                         _______ _______ _______ _____ _____    ______ ____
ROOT
ATOM      1  C   UNL     1      -0.396  10.822  19.819  0.00  0.00    +0.000 A 
ATOM      2  C   UNL     1      -0.378  11.173  21.166  0.00  0.00    +0.000 A 
ATOM      3  C   UNL     1       0.310  10.369  22.092  0.00  0.00    +0.000 A 
ATOM      4  C   UNL     1       1.014   9.224  21.684  0.00  0.00    +0.000 A 
ATOM      5  C   UNL     1       1.010   8.851  20.342  0.00  0.00    +0.000 A 
ATOM      6  C   UNL     1       0.263   9.641  19.450  0.00  0.00    +0.000 A 
ENDROOT
BRANCH   5   7
ATOM      7  N   UNL     1       1.757   7.763  19.821  0.00  0.00    +0.000 N 
ATOM      8  C   UNL     1       1.685   6.479  20.488  0.00  0.00    +0.000 C 
ATOM      9  C   UNL     1       2.476   5.569  19.629  0.00  0.00    +0.000 A 
ATOM     10  C   UNL     1       2.972   6.274  18.540  0.00  0.00    +0.000 A 
ATOM     11  C   UNL     1       3.725   5.642  17.567  0.00  0.00    +0.000 A 
ATOM     12  C   UNL     1       3.970   4.269  17.723  0.00  0.00    +0.000 A 
ATOM     13  C   UNL     1       3.464   3.560  18.833  0.00  0.00    +0.000 A 
ATOM     14  C   UNL     1       2.699   4.208  19.814  0.00  0.00    +0.000 A 
ATOM     15  C   UNL     1       2.520   7.687  18.648  0.00  0.00    +0.000 C 
ATOM     16  O   UNL     1       2.790   8.535  17.825  0.00  0.00    +0.000 OA
BRANCH  14  17
ATOM     17  C   UNL     1       2.141   3.455  20.996  0.00  0.00    +0.000 C 
ATOM     18  F   UNL     1       2.421   4.035  22.198  0.00  0.00    +0.000 F 
ATOM     19  F   UNL     1       0.786   3.344  20.953  0.00  0.00    +0.000 F 
ATOM     20  F   UNL     1       2.625   2.186  21.083  0.00  0.00    +0.000 F 
ENDBRANCH  14  17
ENDBRANCH   5   7
BRANCH   1  21
ATOM     21  C   UNL     1      -0.947  11.684  18.684  0.00  0.00    +0.000 C 
ATOM     22  C   UNL     1      -0.286  13.071  18.785  0.00  0.00    +0.000 C 
BRANCH  21  23
ATOM     23  C   UNL     1      -2.480  11.775  18.579  0.00  0.00    +0.000 C 
BRANCH  23  29
ATOM     24  C   UNL     1      -5.449  12.127  17.075  0.00  0.00    +0.000 C 
ATOM     25  C   UNL     1      -4.240  11.368  16.689  0.00  0.00    +0.000 A 
ATOM     26  N   UNL     1      -4.166  10.635  15.530  0.00  0.00    +0.000 N 
ATOM     27  C   UNL     1      -2.921  10.084  15.464  0.00  0.00    +0.000 A 
ATOM     28  N   UNL     1      -2.200  10.403  16.511  0.00  0.00    +0.000 NA
ATOM     29  C   UNL     1      -3.004  11.204  17.293  0.00  0.00    +0.000 A 
ATOM     30  H   UNL     1      -4.898  10.526  14.841  0.00  0.00    +0.000 HD
ENDBRANCH  23  29
ENDBRANCH  21  23
ENDBRANCH   1  21
TORSDOF 5
ENDMDL
MODEL 6
REMARK VINA RESULT:      -8.4      2.329      2.894
REMARK  Name = 
REMARK  7 active torsions:
REMARK  status: ('A' for Active; 'I' for Inactive)
REMARK    1  A    between atoms: C_1  and  C_2
REMARK    2  A    between atoms: C_6  and  C_7
REMARK    3  A    between atoms: C_7  and  C_8
REMARK    4  A    between atoms: C_8  and  C_9
REMARK    5  A    between atoms: C_8  and  C_10
REMARK    6  A    between atoms: C_14  and  N_15
REMARK    7  A    between atoms: C_22  and  C_23
REMARK                            x       y       z     vdW  Elec       q    Type
REMARK                         _______ _______ _______ _____ _____    ______ ____
ROOT
ATOM      1  C   UNL     1       4.496   4.688  16.808  0.00  0.00    +0.000 A 
ATOM      2  C   UNL     1       3.765   3.525  16.582  0.00  0.00    +0.000 A 
ATOM      3  C   UNL     1       2.558   3.309  17.270  0.00  0.00    +0.000 A 
ATOM      4  C   UNL     1       2.048   4.263  18.166  0.00  0.00    +0.000 A 
ATOM      5  C   UNL     1       2.760   5.434  18.410  0.00  0.00    +0.000 A 
ATOM      6  C   UNL     1       3.993   5.594  17.753  0.00  0.00    +0.000 A 
ENDROOT
BRANCH   5   7
ATOM      7  N   UNL     1       2.288   6.491  19.231  0.00  0.00    +0.000 N 
ATOM      8  C   UNL     1       2.075   7.797  18.639  0.00  0.00    +0.000 C 
ATOM      9  C   UNL     1       1.484   8.606  19.729  0.00  0.00    +0.000 A 
ATOM     10  C   UNL     1       1.361   7.827  20.872  0.00  0.00    +0.000 A 
ATOM     11  C   UNL     1       0.808   8.343  22.029  0.00  0.00    +0.000 A 
ATOM     12  C   UNL     1       0.379   9.679  22.006  0.00  0.00    +0.000 A 
ATOM     13  C   UNL     1       0.508  10.466  20.841  0.00  0.00    +0.000 A 
ATOM     14  C   UNL     1       1.068   9.933  19.670  0.00  0.00    +0.000 A 
ATOM     15  C   UNL     1       1.875   6.463  20.570  0.00  0.00    +0.000 C 
ATOM     16  O   UNL     1       1.879   5.561  21.379  0.00  0.00    +0.000 OA
BRANCH  14  17
ATOM     17  C   UNL     1       1.196  10.761  18.416  0.00  0.00    +0.000 C 
ATOM     18  F   UNL     1       0.444  10.301  17.376  0.00  0.00    +0.000 F 
ATOM     19  F   UNL     1       0.808  12.053  18.601  0.00  0.00    +0.000 F 
ATOM     20  F   UNL     1       2.473  10.810  17.950  0.00  0.00    +0.000 F 
ENDBRANCH  14  17
ENDBRANCH   5   7
BRANCH   1  21
ATOM     21  C   UNL     1       5.721   5.137  16.013  0.00  0.00    +0.000 C 
ATOM     22  C   UNL     1       5.659   4.457  14.632  0.00  0.00    +0.000 C 
BRANCH  21  23
ATOM     23  C   UNL     1       7.087   4.942  16.696  0.00  0.00    +0.000 C 
BRANCH  23  29
ATOM     24  C   UNL     1       8.106   5.343  19.859  0.00  0.00    +0.000 C 
ATOM     25  C   UNL     1       7.962   6.307  18.746  0.00  0.00    +0.000 A 
ATOM     26  N   UNL     1       8.272   7.639  18.878  0.00  0.00    +0.000 N 
ATOM     27  C   UNL     1       8.053   8.239  17.674  0.00  0.00    +0.000 A 
ATOM     28  N   UNL     1       7.608   7.383  16.786  0.00  0.00    +0.000 NA
ATOM     29  C   UNL     1       7.541   6.168  17.434  0.00  0.00    +0.000 A 
ATOM     30  H   UNL     1       8.610   8.097  19.714  0.00  0.00    +0.000 HD
ENDBRANCH  23  29
ENDBRANCH  21  23
ENDBRANCH   1  21
TORSDOF 5
ENDMDL
MODEL 7
REMARK VINA RESULT:      -8.4      3.517      8.581
REMARK  Name = 
REMARK  7 active torsions:
REMARK  status: ('A' for Active; 'I' for Inactive)
REMARK    1  A    between atoms: C_1  and  C_2
REMARK    2  A    between atoms: C_6  and  C_7
REMARK    3  A    between atoms: C_7  and  C_8
REMARK    4  A    between atoms: C_8  and  C_9
REMARK    5  A    between atoms: C_8  and  C_10
REMARK    6  A    between atoms: C_14  and  N_15
REMARK    7  A    between atoms: C_22  and  C_23
REMARK                            x       y       z     vdW  Elec       q    Type
REMARK                         _______ _______ _______ _____ _____    ______ ____
ROOT
ATOM      1  C   UNL     1      -0.560  10.811  20.192  0.00  0.00    +0.000 A 
ATOM      2  C   UNL     1      -0.504  11.106  21.552  0.00  0.00    +0.000 A 
ATOM      3  C   UNL     1       0.230  10.279  22.420  0.00  0.00    +0.000 A 
ATOM      4  C   UNL     1       0.943   9.167  21.941  0.00  0.00    +0.000 A 
ATOM      5  C   UNL     1       0.902   8.851  20.585  0.00  0.00    +0.000 A 
ATOM      6  C   UNL     1       0.111   9.661  19.752  0.00  0.00    +0.000 A 
ENDROOT
BRANCH   5   7
ATOM      7  N   UNL     1       1.653   7.802  19.995  0.00  0.00    +0.000 N 
ATOM      8  C   UNL     1       1.598   6.480  20.586  0.00  0.00    +0.000 C 
ATOM      9  C   UNL     1       2.389   5.629  19.668  0.00  0.00    +0.000 A 
ATOM     10  C   UNL     1       2.869   6.401  18.617  0.00  0.00    +0.000 A 
ATOM     11  C   UNL     1       3.617   5.834  17.602  0.00  0.00    +0.000 A 
ATOM     12  C   UNL     1       3.875   4.457  17.675  0.00  0.00    +0.000 A 
ATOM     13  C   UNL     1       3.386   3.679  18.746  0.00  0.00    +0.000 A 
ATOM     14  C   UNL     1       2.625   4.262  19.771  0.00  0.00    +0.000 A 
ATOM     15  C   UNL     1       2.406   7.802  18.812  0.00  0.00    +0.000 C 
ATOM     16  O   UNL     1       2.661   8.699  18.038  0.00  0.00    +0.000 OA
BRANCH  14  17
ATOM     17  C   UNL     1       2.085   3.436  20.911  0.00  0.00    +0.000 C 
ATOM     18  F   UNL     1       2.479   2.131  20.879  0.00  0.00    +0.000 F 
ATOM     19  F   UNL     1       2.477   3.904  22.127  0.00  0.00    +0.000 F 
ATOM     20  F   UNL     1       0.724   3.404  20.936  0.00  0.00    +0.000 F 
ENDBRANCH  14  17
ENDBRANCH   5   7
BRANCH   1  21
ATOM     21  C   UNL     1      -1.165  11.708  19.113  0.00  0.00    +0.000 C 
ATOM     22  C   UNL     1      -0.222  12.910  18.918  0.00  0.00    +0.000 C 
BRANCH  21  23
ATOM     23  C   UNL     1      -2.626  12.144  19.328  0.00  0.00    +0.000 C 
BRANCH  23  29
ATOM     24  C   UNL     1      -5.961  11.941  19.149  0.00  0.00    +0.000 C 
ATOM     25  C   UNL     1      -4.907  11.644  18.155  0.00  0.00    +0.000 A 
ATOM     26  N   UNL     1      -5.193  11.207  16.884  0.00  0.00    +0.000 N 
ATOM     27  C   UNL     1      -4.011  11.052  16.222  0.00  0.00    +0.000 A 
ATOM     28  N   UNL     1      -2.990  11.345  16.990  0.00  0.00    +0.000 NA
ATOM     29  C   UNL     1      -3.525  11.716  18.204  0.00  0.00    +0.000 A 
ATOM     30  H   UNL     1      -6.112  11.036  16.500  0.00  0.00    +0.000 HD
ENDBRANCH  23  29
ENDBRANCH  21  23
ENDBRANCH   1  21
TORSDOF 5
ENDMDL
MODEL 8
REMARK VINA RESULT:      -8.3      1.083      1.789
REMARK  Name = 
REMARK  7 active torsions:
REMARK  status: ('A' for Active; 'I' for Inactive)
REMARK    1  A    between atoms: C_1  and  C_2
REMARK    2  A    between atoms: C_6  and  C_7
REMARK    3  A    between atoms: C_7  and  C_8
REMARK    4  A    between atoms: C_8  and  C_9
REMARK    5  A    between atoms: C_8  and  C_10
REMARK    6  A    between atoms: C_14  and  N_15
REMARK    7  A    between atoms: C_22  and  C_23
REMARK                            x       y       z     vdW  Elec       q    Type
REMARK                         _______ _______ _______ _____ _____    ______ ____
ROOT
ATOM      1  C   UNL     1       3.750   4.388  18.889  0.00  0.00    +0.000 A 
ATOM      2  C   UNL     1       3.313   3.438  19.808  0.00  0.00    +0.000 A 
ATOM      3  C   UNL     1       2.400   3.802  20.813  0.00  0.00    +0.000 A 
ATOM      4  C   UNL     1       1.886   5.107  20.895  0.00  0.00    +0.000 A 
ATOM      5  C   UNL     1       2.308   6.075  19.988  0.00  0.00    +0.000 A 
ATOM      6  C   UNL     1       3.268   5.696  19.032  0.00  0.00    +0.000 A 
ENDROOT
BRANCH   5   7
ATOM      7  N   UNL     1       1.786   7.393  19.937  0.00  0.00    +0.000 N 
ATOM      8  C   UNL     1       1.090   7.917  21.095  0.00  0.00    +0.000 C 
ATOM      9  C   UNL     1       0.790   9.324  20.744  0.00  0.00    +0.000 A 
ATOM     10  C   UNL     1       1.277   9.598  19.472  0.00  0.00    +0.000 A 
ATOM     11  C   UNL     1       1.149  10.859  18.918  0.00  0.00    +0.000 A 
ATOM     12  C   UNL     1       0.508  11.844  19.685  0.00  0.00    +0.000 A 
ATOM     13  C   UNL     1       0.015  11.558  20.976  0.00  0.00    +0.000 A 
ATOM     14  C   UNL     1       0.151  10.277  21.532  0.00  0.00    +0.000 A 
ATOM     15  C   UNL     1       1.920   8.367  18.938  0.00  0.00    +0.000 C 
ATOM     16  O   UNL     1       2.448   8.313  17.849  0.00  0.00    +0.000 OA
BRANCH  14  17
ATOM     17  C   UNL     1      -0.359   9.966  22.916  0.00  0.00    +0.000 C 
ATOM     18  F   UNL     1      -1.213   8.903  22.960  0.00  0.00    +0.000 F 
ATOM     19  F   UNL     1       0.642   9.664  23.787  0.00  0.00    +0.000 F 
ATOM     20  F   UNL     1      -1.043  11.005  23.467  0.00  0.00    +0.000 F 
ENDBRANCH  14  17
ENDBRANCH   5   7
BRANCH   1  21
ATOM     21  C   UNL     1       4.595   4.100  17.648  0.00  0.00    +0.000 C 
ATOM     22  C   UNL     1       4.148   2.740  17.080  0.00  0.00    +0.000 C 
BRANCH  21  23
ATOM     23  C   UNL     1       6.122   4.182  17.829  0.00  0.00    +0.000 C 
BRANCH  23  29
ATOM     24  C   UNL     1       5.158   6.672  15.812  0.00  0.00    +0.000 C 
ATOM     25  C   UNL     1       6.226   6.596  16.832  0.00  0.00    +0.000 A 
ATOM     26  N   UNL     1       7.046   7.658  17.123  0.00  0.00    +0.000 N 
ATOM     27  C   UNL     1       7.897   7.269  18.114  0.00  0.00    +0.000 A 
ATOM     28  N   UNL     1       7.685   6.023  18.465  0.00  0.00    +0.000 NA
ATOM     29  C   UNL     1       6.646   5.581  17.674  0.00  0.00    +0.000 A 
ATOM     30  H   UNL     1       7.023   8.571  16.689  0.00  0.00    +0.000 HD
ENDBRANCH  23  29
ENDBRANCH  21  23
ENDBRANCH   1  21
TORSDOF 5
ENDMDL
MODEL 9
REMARK VINA RESULT:      -8.3      1.522      2.323
REMARK  Name = 
REMARK  7 active torsions:
REMARK  status: ('A' for Active; 'I' for Inactive)
REMARK    1  A    between atoms: C_1  and  C_2
REMARK    2  A    between atoms: C_6  and  C_7
REMARK    3  A    between atoms: C_7  and  C_8
REMARK    4  A    between atoms: C_8  and  C_9
REMARK    5  A    between atoms: C_8  and  C_10
REMARK    6  A    between atoms: C_14  and  N_15
REMARK    7  A    between atoms: C_22  and  C_23
REMARK                            x       y       z     vdW  Elec       q    Type
REMARK                         _______ _______ _______ _____ _____    ______ ____
ROOT
ATOM      1  C   UNL     1       3.398   4.224  18.886  0.00  0.00    +0.000 A 
ATOM      2  C   UNL     1       3.039   3.358  19.915  0.00  0.00    +0.000 A 
ATOM      3  C   UNL     1       2.275   3.831  20.997  0.00  0.00    +0.000 A 
ATOM      4  C   UNL     1       1.832   5.163  21.051  0.00  0.00    +0.000 A 
ATOM      5  C   UNL     1       2.179   6.050  20.035  0.00  0.00    +0.000 A 
ATOM      6  C   UNL     1       2.994   5.562  18.998  0.00  0.00    +0.000 A 
ENDROOT
BRANCH   5   7
ATOM      7  N   UNL     1       1.712   7.387  19.958  0.00  0.00    +0.000 N 
ATOM      8  C   UNL     1       1.032   7.959  21.102  0.00  0.00    +0.000 C 
ATOM      9  C   UNL     1       0.792   9.371  20.725  0.00  0.00    +0.000 A 
ATOM     10  C   UNL     1       1.297   9.603  19.452  0.00  0.00    +0.000 A 
ATOM     11  C   UNL     1       1.225  10.858  18.876  0.00  0.00    +0.000 A 
ATOM     12  C   UNL     1       0.621  11.882  19.621  0.00  0.00    +0.000 A 
ATOM     13  C   UNL     1       0.108  11.639  20.913  0.00  0.00    +0.000 A 
ATOM     14  C   UNL     1       0.188  10.363  21.492  0.00  0.00    +0.000 A 
ATOM     15  C   UNL     1       1.892   8.337  18.943  0.00  0.00    +0.000 C 
ATOM     16  O   UNL     1       2.425   8.242  17.859  0.00  0.00    +0.000 OA
BRANCH  14  17
ATOM     17  C   UNL     1      -0.343  10.097  22.877  0.00  0.00    +0.000 C 
ATOM     18  F   UNL     1       0.618   9.732  23.773  0.00  0.00    +0.000 F 
ATOM     19  F   UNL     1      -0.952  11.186  23.422  0.00  0.00    +0.000 F 
ATOM     20  F   UNL     1      -1.263   9.094  22.901  0.00  0.00    +0.000 F 
ENDBRANCH  14  17
ENDBRANCH   5   7
BRANCH   1  21
ATOM     21  C   UNL     1       4.067   3.817  17.575  0.00  0.00    +0.000 C 
ATOM     22  C   UNL     1       3.414   2.504  17.102  0.00  0.00    +0.000 C 
BRANCH  21  23
ATOM     23  C   UNL     1       5.604   3.729  17.592  0.00  0.00    +0.000 C 
BRANCH  23  29
ATOM     24  C   UNL     1       7.331   6.574  17.241  0.00  0.00    +0.000 C 
ATOM     25  C   UNL     1       6.944   5.536  16.261  0.00  0.00    +0.000 A 
ATOM     26  N   UNL     1       7.291   5.607  14.934  0.00  0.00    +0.000 N 
ATOM     27  C   UNL     1       6.805   4.494  14.316  0.00  0.00    +0.000 A 
ATOM     28  N   UNL     1       6.158   3.723  15.156  0.00  0.00    +0.000 NA
ATOM     29  C   UNL     1       6.230   4.355  16.379  0.00  0.00    +0.000 A 
ATOM     30  H   UNL     1       7.817   6.348  14.490  0.00  0.00    +0.000 HD
ENDBRANCH  23  29
ENDBRANCH  21  23
ENDBRANCH   1  21
TORSDOF 5
ENDMDL
