MODEL 1
REMARK VINA RESULT:     -10.4      0.000      0.000
REMARK  Name = 
REMARK  10 active torsions:
REMARK  status: ('A' for Active; 'I' for Inactive)
REMARK    1  A    between atoms: C_1  and  N_2
REMARK    2  A    between atoms: N_2  and  C_3
REMARK    3  A    between atoms: N_2  and  C_35
REMARK    4  A    between atoms: C_7  and  C_8
REMARK    5  A    between atoms: N_14  and  C_15
REMARK    6  A    between atoms: C_19  and  C_20
REMARK    7  A    between atoms: C_20  and  C_21
REMARK    8  A    between atoms: C_20  and  C_23
REMARK    9  A    between atoms: C_23  and  C_26
REMARK   10  A    between atoms: N_30  and  C_31
REMARK                            x       y       z     vdW  Elec       q    Type
REMARK                         _______ _______ _______ _____ _____    ______ ____
ROOT
ATOM      1  C   UNL     1      -0.242  11.087  19.055  0.00  0.00    +0.000 A 
ATOM      2  C   UNL     1       0.604  10.276  18.285  0.00  0.00    +0.000 A 
ATOM      3  C   UNL     1       1.213   9.183  18.886  0.00  0.00    +0.000 A 
ATOM      4  C   UNL     1       1.041   8.873  20.229  0.00  0.00    +0.000 A 
ATOM      5  C   UNL     1       0.253   9.677  21.039  0.00  0.00    +0.000 A 
ATOM      6  C   UNL     1      -0.403  10.762  20.424  0.00  0.00    +0.000 A 
ATOM      7  C   UNL     1       1.789   7.624  20.553  0.00  0.00    +0.000 C 
ATOM      8  N   UNL     1       2.410   7.256  19.292  0.00  0.00    +0.000 N 
ATOM      9  C   UNL     1       2.103   8.178  18.285  0.00  0.00    +0.000 C 
ATOM     10  O   UNL     1       2.439   8.225  17.114  0.00  0.00    +0.000 OA
ENDROOT
BRANCH   8  11
ATOM     11  C   UNL     1       3.226   6.099  19.172  0.00  0.00    +0.000 A 
ATOM     12  C   UNL     1       3.020   4.974  19.973  0.00  0.00    +0.000 A 
ATOM     13  C   UNL     1       3.806   3.830  19.823  0.00  0.00    +0.000 A 
ATOM     14  C   UNL     1       4.838   3.801  18.891  0.00  0.00    +0.000 A 
ATOM     15  C   UNL     1       5.105   4.922  18.094  0.00  0.00    +0.000 A 
ATOM     16  C   UNL     1       4.272   6.052  18.232  0.00  0.00    +0.000 A 
BRANCH  15  17
ATOM     17  C   UNL     1       6.281   4.953  17.113  0.00  0.00    +0.000 C 
ATOM     18  C   UNL     1       6.740   6.408  16.922  0.00  0.00    +0.000 C 
ATOM     19  F   UNL     1       7.386   4.308  17.628  0.00  0.00    +0.000 F 
BRANCH  17  20
ATOM     20  C   UNL     1       5.951   4.319  15.732  0.00  0.00    +0.000 C 
ATOM     21  F   UNL     1       5.965   2.951  15.833  0.00  0.00    +0.000 F 
ATOM     22  F   UNL     1       4.649   4.612  15.412  0.00  0.00    +0.000 F 
BRANCH  20  23
ATOM     23  C   UNL     1       6.829   4.748  14.601  0.00  0.00    +0.000 A 
ATOM     24  N   UNL     1       7.871   5.560  14.626  0.00  0.00    +0.000 NA
ATOM     25  N   UNL     1       8.371   5.666  13.350  0.00  0.00    +0.000 NA
ATOM     26  C   UNL     1       7.624   4.924  12.568  0.00  0.00    +0.000 A 
ATOM     27  N   UNL     1       6.643   4.335  13.304  0.00  0.00    +0.000 N 
ATOM     28  C   UNL     1       5.616   3.464  12.800  0.00  0.00    +0.000 C 
ENDBRANCH  20  23
ENDBRANCH  17  20
ENDBRANCH  15  17
ENDBRANCH   8  11
BRANCH   5  29
ATOM     29  C   UNL     1       0.089   9.450  22.515  0.00  0.00    +0.000 C 
ATOM     30  F   UNL     1       1.261   9.231  23.171  0.00  0.00    +0.000 F 
ATOM     31  F   UNL     1      -0.482  10.523  23.132  0.00  0.00    +0.000 F 
ATOM     32  F   UNL     1      -0.707   8.386  22.801  0.00  0.00    +0.000 F 
ENDBRANCH   5  29
BRANCH   1  34
ATOM     33  C   UNL     1      -1.903  11.932  17.467  0.00  0.00    +0.000 C 
ATOM     34  N   UNL     1      -0.936  12.199  18.537  0.00  0.00    +0.000 N 
BRANCH  34  35
ATOM     35  C   UNL     1      -0.100  13.430  18.419  0.00  0.00    +0.000 C 
ATOM     36  C   UNL     1       1.425  13.240  18.595  0.00  0.00    +0.000 C 
ATOM     37  N   UNL     1       1.922  14.341  19.434  0.00  0.00    +0.000 NA
ATOM     38  C   UNL     1       0.855  15.347  19.481  0.00  0.00    +0.000 C 
ATOM     39  C   UNL     1      -0.442  14.556  19.402  0.00  0.00    +0.000 C 
ATOM     40  F   UNL     1      -0.743  14.072  20.637  0.00  0.00    +0.000 F 
ATOM     41  H   UNL     1       2.792  14.728  19.075  0.00  0.00    +0.000 HD
ENDBRANCH  34  35
ENDBRANCH   1  34
TORSDOF 7
ENDMDL
MODEL 2
REMARK VINA RESULT:     -10.2      1.799      2.741
REMARK  Name = 
REMARK  10 active torsions:
REMARK  status: ('A' for Active; 'I' for Inactive)
REMARK    1  A    between atoms: C_1  and  N_2
REMARK    2  A    between atoms: N_2  and  C_3
REMARK    3  A    between atoms: N_2  and  C_35
REMARK    4  A    between atoms: C_7  and  C_8
REMARK    5  A    between atoms: N_14  and  C_15
REMARK    6  A    between atoms: C_19  and  C_20
REMARK    7  A    between atoms: C_20  and  C_21
REMARK    8  A    between atoms: C_20  and  C_23
REMARK    9  A    between atoms: C_23  and  C_26
REMARK   10  A    between atoms: N_30  and  C_31
REMARK                            x       y       z     vdW  Elec       q    Type
REMARK                         _______ _______ _______ _____ _____    ______ ____
ROOT
ATOM      1  C   UNL     1       0.176  11.910  19.733  0.00  0.00    +0.000 A 
ATOM      2  C   UNL     1       0.918  11.121  18.842  0.00  0.00    +0.000 A 
ATOM      3  C   UNL     1       1.264   9.831  19.218  0.00  0.00    +0.000 A 
ATOM      4  C   UNL     1       0.928   9.294  20.454  0.00  0.00    +0.000 A 
ATOM      5  C   UNL     1       0.238  10.056  21.385  0.00  0.00    +0.000 A 
ATOM      6  C   UNL     1      -0.155  11.351  20.992  0.00  0.00    +0.000 A 
ATOM      7  C   UNL     1       1.403   7.883  20.532  0.00  0.00    +0.000 C 
ATOM      8  N   UNL     1       2.047   7.663  19.249  0.00  0.00    +0.000 N 
ATOM      9  C   UNL     1       2.000   8.813  18.452  0.00  0.00    +0.000 C 
ATOM     10  O   UNL     1       2.434   9.029  17.333  0.00  0.00    +0.000 OA
ENDROOT
BRANCH   8  11
ATOM     11  C   UNL     1       2.643   6.417  18.915  0.00  0.00    +0.000 A 
ATOM     12  C   UNL     1       2.332   5.249  19.615  0.00  0.00    +0.000 A 
ATOM     13  C   UNL     1       2.898   4.023  19.257  0.00  0.00    +0.000 A 
ATOM     14  C   UNL     1       3.815   3.948  18.214  0.00  0.00    +0.000 A 
ATOM     15  C   UNL     1       4.185   5.102  17.511  0.00  0.00    +0.000 A 
ATOM     16  C   UNL     1       3.570   6.322  17.860  0.00  0.00    +0.000 A 
BRANCH  15  17
ATOM     17  C   UNL     1       5.247   5.069  16.409  0.00  0.00    +0.000 C 
ATOM     18  C   UNL     1       4.997   3.853  15.502  0.00  0.00    +0.000 C 
ATOM     19  F   UNL     1       5.136   6.156  15.566  0.00  0.00    +0.000 F 
BRANCH  17  20
ATOM     20  C   UNL     1       6.704   5.030  16.955  0.00  0.00    +0.000 C 
ATOM     21  F   UNL     1       6.785   4.143  17.997  0.00  0.00    +0.000 F 
ATOM     22  F   UNL     1       7.519   4.484  15.995  0.00  0.00    +0.000 F 
BRANCH  20  23
ATOM     23  C   UNL     1       7.270   6.349  17.371  0.00  0.00    +0.000 A 
ATOM     24  N   UNL     1       7.341   7.473  16.681  0.00  0.00    +0.000 NA
ATOM     25  N   UNL     1       7.944   8.428  17.464  0.00  0.00    +0.000 NA
ATOM     26  C   UNL     1       8.237   7.870  18.615  0.00  0.00    +0.000 A 
ATOM     27  N   UNL     1       7.840   6.569  18.601  0.00  0.00    +0.000 N 
ATOM     28  C   UNL     1       8.007   5.624  19.672  0.00  0.00    +0.000 C 
ENDBRANCH  20  23
ENDBRANCH  17  20
ENDBRANCH  15  17
ENDBRANCH   8  11
BRANCH   5  29
ATOM     29  C   UNL     1      -0.087   9.570  22.769  0.00  0.00    +0.000 C 
ATOM     30  F   UNL     1      -0.850   8.444  22.791  0.00  0.00    +0.000 F 
ATOM     31  F   UNL     1       1.038   9.264  23.475  0.00  0.00    +0.000 F 
ATOM     32  F   UNL     1      -0.756  10.492  23.511  0.00  0.00    +0.000 F 
ENDBRANCH   5  29
BRANCH   1  34
ATOM     33  C   UNL     1      -0.531  13.520  18.030  0.00  0.00    +0.000 C 
ATOM     34  N   UNL     1      -0.256  13.218  19.438  0.00  0.00    +0.000 N 
BRANCH  34  35
ATOM     35  C   UNL     1       0.420  14.273  20.250  0.00  0.00    +0.000 C 
ATOM     36  C   UNL     1      -0.049  15.726  20.009  0.00  0.00    +0.000 C 
ATOM     37  N   UNL     1       1.146  16.583  19.961  0.00  0.00    +0.000 NA
ATOM     38  C   UNL     1       2.255  15.785  20.493  0.00  0.00    +0.000 C 
ATOM     39  C   UNL     1       1.943  14.351  20.092  0.00  0.00    +0.000 C 
ATOM     40  F   UNL     1       2.326  14.158  18.801  0.00  0.00    +0.000 F 
ATOM     41  H   UNL     1       1.014  17.446  20.485  0.00  0.00    +0.000 HD
ENDBRANCH  34  35
ENDBRANCH   1  34
TORSDOF 7
ENDMDL
MODEL 3
REMARK VINA RESULT:     -10.2      0.885      1.186
REMARK  Name = 
REMARK  10 active torsions:
REMARK  status: ('A' for Active; 'I' for Inactive)
REMARK    1  A    between atoms: C_1  and  N_2
REMARK    2  A    between atoms: N_2  and  C_3
REMARK    3  A    between atoms: N_2  and  C_35
REMARK    4  A    between atoms: C_7  and  C_8
REMARK    5  A    between atoms: N_14  and  C_15
REMARK    6  A    between atoms: C_19  and  C_20
REMARK    7  A    between atoms: C_20  and  C_21
REMARK    8  A    between atoms: C_20  and  C_23
REMARK    9  A    between atoms: C_23  and  C_26
REMARK   10  A    between atoms: N_30  and  C_31
REMARK                            x       y       z     vdW  Elec       q    Type
REMARK                         _______ _______ _______ _____ _____    ______ ____
ROOT
ATOM      1  C   UNL     1      -0.101  11.527  19.534  0.00  0.00    +0.000 A 
ATOM      2  C   UNL     1       0.726  10.717  18.743  0.00  0.00    +0.000 A 
ATOM      3  C   UNL     1       1.197   9.523  19.270  0.00  0.00    +0.000 A 
ATOM      4  C   UNL     1       0.905   9.107  20.563  0.00  0.00    +0.000 A 
ATOM      5  C   UNL     1       0.132   9.900  21.397  0.00  0.00    +0.000 A 
ATOM      6  C   UNL     1      -0.386  11.092  20.852  0.00  0.00    +0.000 A 
ATOM      7  C   UNL     1       1.520   7.771  20.808  0.00  0.00    +0.000 C 
ATOM      8  N   UNL     1       2.196   7.466  19.559  0.00  0.00    +0.000 N 
ATOM      9  C   UNL     1       2.040   8.501  18.629  0.00  0.00    +0.000 C 
ATOM     10  O   UNL     1       2.460   8.625  17.492  0.00  0.00    +0.000 OA
ENDROOT
BRANCH   8  11
ATOM     11  C   UNL     1       2.918   6.256  19.376  0.00  0.00    +0.000 A 
ATOM     12  C   UNL     1       2.590   5.096  20.082  0.00  0.00    +0.000 A 
ATOM     13  C   UNL     1       3.285   3.904  19.870  0.00  0.00    +0.000 A 
ATOM     14  C   UNL     1       4.346   3.857  18.972  0.00  0.00    +0.000 A 
ATOM     15  C   UNL     1       4.734   5.007  18.273  0.00  0.00    +0.000 A 
ATOM     16  C   UNL     1       3.993   6.190  18.469  0.00  0.00    +0.000 A 
BRANCH  15  17
ATOM     17  C   UNL     1       5.946   5.011  17.335  0.00  0.00    +0.000 C 
ATOM     18  C   UNL     1       6.458   6.452  17.179  0.00  0.00    +0.000 C 
ATOM     19  F   UNL     1       7.010   4.324  17.881  0.00  0.00    +0.000 F 
BRANCH  17  20
ATOM     20  C   UNL     1       5.646   4.403  15.935  0.00  0.00    +0.000 C 
ATOM     21  F   UNL     1       5.568   3.038  16.027  0.00  0.00    +0.000 F 
ATOM     22  F   UNL     1       4.382   4.780  15.553  0.00  0.00    +0.000 F 
BRANCH  20  23
ATOM     23  C   UNL     1       6.605   4.780  14.852  0.00  0.00    +0.000 A 
ATOM     24  N   UNL     1       7.698   5.519  14.935  0.00  0.00    +0.000 NA
ATOM     25  N   UNL     1       8.264   5.600  13.686  0.00  0.00    +0.000 NA
ATOM     26  C   UNL     1       7.507   4.917  12.862  0.00  0.00    +0.000 A 
ATOM     27  N   UNL     1       6.454   4.391  13.543  0.00  0.00    +0.000 N 
ATOM     28  C   UNL     1       5.396   3.597  12.981  0.00  0.00    +0.000 C 
ENDBRANCH  20  23
ENDBRANCH  17  20
ENDBRANCH  15  17
ENDBRANCH   8  11
BRANCH   5  29
ATOM     29  C   UNL     1      -0.155   9.553  22.830  0.00  0.00    +0.000 C 
ATOM     30  F   UNL     1      -0.810  10.532  23.512  0.00  0.00    +0.000 F 
ATOM     31  F   UNL     1      -0.942   8.445  22.935  0.00  0.00    +0.000 F 
ATOM     32  F   UNL     1       0.969   9.284  23.545  0.00  0.00    +0.000 F 
ENDBRANCH   5  29
BRANCH   1  34
ATOM     33  C   UNL     1      -0.990  12.826  17.659  0.00  0.00    +0.000 C 
ATOM     34  N   UNL     1      -0.661  12.740  19.086  0.00  0.00    +0.000 N 
BRANCH  34  35
ATOM     35  C   UNL     1      -0.073  13.950  19.732  0.00  0.00    +0.000 C 
ATOM     36  C   UNL     1      -0.626  15.314  19.260  0.00  0.00    +0.000 C 
ATOM     37  N   UNL     1       0.514  16.230  19.096  0.00  0.00    +0.000 NA
ATOM     38  C   UNL     1       1.657  15.599  19.763  0.00  0.00    +0.000 C 
ATOM     39  C   UNL     1       1.445  14.102  19.587  0.00  0.00    +0.000 C 
ATOM     40  F   UNL     1       1.872  13.736  18.348  0.00  0.00    +0.000 F 
ATOM     41  H   UNL     1       0.315  17.153  19.475  0.00  0.00    +0.000 HD
ENDBRANCH  34  35
ENDBRANCH   1  34
TORSDOF 7
ENDMDL
MODEL 4
REMARK VINA RESULT:     -10.1      1.736      2.614
REMARK  Name = 
REMARK  10 active torsions:
REMARK  status: ('A' for Active; 'I' for Inactive)
REMARK    1  A    between atoms: C_1  and  N_2
REMARK    2  A    between atoms: N_2  and  C_3
REMARK    3  A    between atoms: N_2  and  C_35
REMARK    4  A    between atoms: C_7  and  C_8
REMARK    5  A    between atoms: N_14  and  C_15
REMARK    6  A    between atoms: C_19  and  C_20
REMARK    7  A    between atoms: C_20  and  C_21
REMARK    8  A    between atoms: C_20  and  C_23
REMARK    9  A    between atoms: C_23  and  C_26
REMARK   10  A    between atoms: N_30  and  C_31
REMARK                            x       y       z     vdW  Elec       q    Type
REMARK                         _______ _______ _______ _____ _____    ______ ____
ROOT
ATOM      1  C   UNL     1       0.255  11.954  19.760  0.00  0.00    +0.000 A 
ATOM      2  C   UNL     1       1.009  11.156  18.887  0.00  0.00    +0.000 A 
ATOM      3  C   UNL     1       1.324   9.859  19.267  0.00  0.00    +0.000 A 
ATOM      4  C   UNL     1       0.944   9.323  20.491  0.00  0.00    +0.000 A 
ATOM      5  C   UNL     1       0.241  10.094  21.406  0.00  0.00    +0.000 A 
ATOM      6  C   UNL     1      -0.119  11.396  21.007  0.00  0.00    +0.000 A 
ATOM      7  C   UNL     1       1.395   7.904  20.576  0.00  0.00    +0.000 C 
ATOM      8  N   UNL     1       2.070   7.679  19.311  0.00  0.00    +0.000 N 
ATOM      9  C   UNL     1       2.064   8.832  18.517  0.00  0.00    +0.000 C 
ATOM     10  O   UNL     1       2.532   9.046  17.412  0.00  0.00    +0.000 OA
ENDROOT
BRANCH   8  11
ATOM     11  C   UNL     1       2.654   6.424  18.989  0.00  0.00    +0.000 A 
ATOM     12  C   UNL     1       2.351   5.270  19.714  0.00  0.00    +0.000 A 
ATOM     13  C   UNL     1       2.906   4.036  19.368  0.00  0.00    +0.000 A 
ATOM     14  C   UNL     1       3.803   3.939  18.310  0.00  0.00    +0.000 A 
ATOM     15  C   UNL     1       4.166   5.078  17.581  0.00  0.00    +0.000 A 
ATOM     16  C   UNL     1       3.562   6.307  17.919  0.00  0.00    +0.000 A 
BRANCH  15  17
ATOM     17  C   UNL     1       5.209   5.022  16.461  0.00  0.00    +0.000 C 
ATOM     18  C   UNL     1       4.943   3.786  15.585  0.00  0.00    +0.000 C 
ATOM     19  F   UNL     1       5.082   6.090  15.598  0.00  0.00    +0.000 F 
BRANCH  17  20
ATOM     20  C   UNL     1       6.675   4.993  16.982  0.00  0.00    +0.000 C 
ATOM     21  F   UNL     1       6.778   4.116  18.031  0.00  0.00    +0.000 F 
ATOM     22  F   UNL     1       7.475   4.442  16.012  0.00  0.00    +0.000 F 
BRANCH  20  23
ATOM     23  C   UNL     1       7.243   6.318  17.376  0.00  0.00    +0.000 A 
ATOM     24  N   UNL     1       7.297   7.437  16.674  0.00  0.00    +0.000 NA
ATOM     25  N   UNL     1       7.908   8.401  17.439  0.00  0.00    +0.000 NA
ATOM     26  C   UNL     1       8.223   7.855  18.589  0.00  0.00    +0.000 A 
ATOM     27  N   UNL     1       7.832   6.552  18.594  0.00  0.00    +0.000 N 
ATOM     28  C   UNL     1       8.021   5.618  19.671  0.00  0.00    +0.000 C 
ENDBRANCH  20  23
ENDBRANCH  17  20
ENDBRANCH  15  17
ENDBRANCH   8  11
BRANCH   5  29
ATOM     29  C   UNL     1      -0.130   9.608  22.778  0.00  0.00    +0.000 C 
ATOM     30  F   UNL     1       0.941   9.288  23.555  0.00  0.00    +0.000 F 
ATOM     31  F   UNL     1      -0.822  10.551  23.479  0.00  0.00    +0.000 F 
ATOM     32  F   UNL     1      -0.921   8.503  22.754  0.00  0.00    +0.000 F 
ENDBRANCH   5  29
BRANCH   1  34
ATOM     33  C   UNL     1      -0.589  13.526  18.084  0.00  0.00    +0.000 C 
ATOM     34  N   UNL     1      -0.147  13.270  19.459  0.00  0.00    +0.000 N 
BRANCH  34  35
ATOM     35  C   UNL     1       0.680  14.320  20.123  0.00  0.00    +0.000 C 
ATOM     36  C   UNL     1       1.951  13.828  20.854  0.00  0.00    +0.000 C 
ATOM     37  N   UNL     1       2.037  14.541  22.138  0.00  0.00    +0.000 NA
ATOM     38  C   UNL     1       1.091  15.660  22.060  0.00  0.00    +0.000 C 
ATOM     39  C   UNL     1      -0.046  15.160  21.180  0.00  0.00    +0.000 C 
ATOM     40  F   UNL     1      -0.889  14.403  21.932  0.00  0.00    +0.000 F 
ATOM     41  H   UNL     1       2.984  14.858  22.332  0.00  0.00    +0.000 HD
ENDBRANCH  34  35
ENDBRANCH   1  34
TORSDOF 7
ENDMDL
MODEL 5
REMARK VINA RESULT:      -9.9      2.489      9.371
REMARK  Name = 
REMARK  10 active torsions:
REMARK  status: ('A' for Active; 'I' for Inactive)
REMARK    1  A    between atoms: C_1  and  N_2
REMARK    2  A    between atoms: N_2  and  C_3
REMARK    3  A    between atoms: N_2  and  C_35
REMARK    4  A    between atoms: C_7  and  C_8
REMARK    5  A    between atoms: N_14  and  C_15
REMARK    6  A    between atoms: C_19  and  C_20
REMARK    7  A    between atoms: C_20  and  C_21
REMARK    8  A    between atoms: C_20  and  C_23
REMARK    9  A    between atoms: C_23  and  C_26
REMARK   10  A    between atoms: N_30  and  C_31
REMARK                            x       y       z     vdW  Elec       q    Type
REMARK                         _______ _______ _______ _____ _____    ______ ____
ROOT
ATOM      1  C   UNL     1       3.651   5.330  17.910  0.00  0.00    +0.000 A 
ATOM      2  C   UNL     1       3.198   6.655  17.977  0.00  0.00    +0.000 A 
ATOM      3  C   UNL     1       2.378   7.031  19.031  0.00  0.00    +0.000 A 
ATOM      4  C   UNL     1       1.963   6.140  20.013  0.00  0.00    +0.000 A 
ATOM      5  C   UNL     1       2.347   4.808  19.958  0.00  0.00    +0.000 A 
ATOM      6  C   UNL     1       3.215   4.431  18.915  0.00  0.00    +0.000 A 
ATOM      7  C   UNL     1       1.133   6.860  21.021  0.00  0.00    +0.000 C 
ATOM      8  N   UNL     1       1.097   8.226  20.529  0.00  0.00    +0.000 N 
ATOM      9  C   UNL     1       1.812   8.356  19.333  0.00  0.00    +0.000 C 
ATOM     10  O   UNL     1       2.003   9.322  18.615  0.00  0.00    +0.000 OA
ENDROOT
BRANCH   8  11
ATOM     11  C   UNL     1       0.394   9.250  21.219  0.00  0.00    +0.000 A 
ATOM     12  C   UNL     1       0.087   9.138  22.576  0.00  0.00    +0.000 A 
ATOM     13  C   UNL     1      -0.576  10.165  23.252  0.00  0.00    +0.000 A 
ATOM     14  C   UNL     1      -0.976  11.311  22.573  0.00  0.00    +0.000 A 
ATOM     15  C   UNL     1      -0.724  11.447  21.202  0.00  0.00    +0.000 A 
ATOM     16  C   UNL     1      -0.016  10.418  20.548  0.00  0.00    +0.000 A 
BRANCH  15  17
ATOM     17  C   UNL     1      -1.218  12.660  20.407  0.00  0.00    +0.000 C 
ATOM     18  C   UNL     1      -2.336  12.215  19.450  0.00  0.00    +0.000 C 
ATOM     19  F   UNL     1      -1.817  13.592  21.228  0.00  0.00    +0.000 F 
BRANCH  17  20
ATOM     20  C   UNL     1      -0.091  13.374  19.606  0.00  0.00    +0.000 C 
ATOM     21  F   UNL     1       0.296  12.591  18.549  0.00  0.00    +0.000 F 
ATOM     22  F   UNL     1      -0.617  14.494  19.010  0.00  0.00    +0.000 F 
BRANCH  20  23
ATOM     23  C   UNL     1       1.109  13.775  20.402  0.00  0.00    +0.000 A 
ATOM     24  N   UNL     1       1.216  13.945  21.708  0.00  0.00    +0.000 NA
ATOM     25  N   UNL     1       2.507  14.315  21.994  0.00  0.00    +0.000 NA
ATOM     26  C   UNL     1       3.165  14.372  20.861  0.00  0.00    +0.000 A 
ATOM     27  N   UNL     1       2.330  14.047  19.837  0.00  0.00    +0.000 N 
ATOM     28  C   UNL     1       2.678  14.016  18.442  0.00  0.00    +0.000 C 
ENDBRANCH  20  23
ENDBRANCH  17  20
ENDBRANCH  15  17
ENDBRANCH   8  11
BRANCH   5  29
ATOM     29  C   UNL     1       1.870   3.774  20.937  0.00  0.00    +0.000 C 
ATOM     30  F   UNL     1       2.326   2.518  20.676  0.00  0.00    +0.000 F 
ATOM     31  F   UNL     1       2.276   4.054  22.208  0.00  0.00    +0.000 F 
ATOM     32  F   UNL     1       0.515   3.678  20.989  0.00  0.00    +0.000 F 
ENDBRANCH   5  29
BRANCH   1  34
ATOM     33  C   UNL     1       4.279   3.484  16.429  0.00  0.00    +0.000 C 
ATOM     34  N   UNL     1       4.513   4.852  16.902  0.00  0.00    +0.000 N 
BRANCH  34  35
ATOM     35  C   UNL     1       5.930   5.293  17.064  0.00  0.00    +0.000 C 
ATOM     36  C   UNL     1       6.998   4.442  16.338  0.00  0.00    +0.000 C 
ATOM     37  N   UNL     1       8.130   4.258  17.259  0.00  0.00    +0.000 NA
ATOM     38  C   UNL     1       7.946   5.224  18.347  0.00  0.00    +0.000 C 
ATOM     39  C   UNL     1       6.439   5.360  18.509  0.00  0.00    +0.000 C 
ATOM     40  F   UNL     1       5.976   4.321  19.254  0.00  0.00    +0.000 F 
ATOM     41  H   UNL     1       9.024   4.382  16.789  0.00  0.00    +0.000 HD
ENDBRANCH  34  35
ENDBRANCH   1  34
TORSDOF 7
ENDMDL
MODEL 6
REMARK VINA RESULT:      -9.9      1.831      2.876
REMARK  Name = 
REMARK  10 active torsions:
REMARK  status: ('A' for Active; 'I' for Inactive)
REMARK    1  A    between atoms: C_1  and  N_2
REMARK    2  A    between atoms: N_2  and  C_3
REMARK    3  A    between atoms: N_2  and  C_35
REMARK    4  A    between atoms: C_7  and  C_8
REMARK    5  A    between atoms: N_14  and  C_15
REMARK    6  A    between atoms: C_19  and  C_20
REMARK    7  A    between atoms: C_20  and  C_21
REMARK    8  A    between atoms: C_20  and  C_23
REMARK    9  A    between atoms: C_23  and  C_26
REMARK   10  A    between atoms: N_30  and  C_31
REMARK                            x       y       z     vdW  Elec       q    Type
REMARK                         _______ _______ _______ _____ _____    ______ ____
ROOT
ATOM      1  C   UNL     1      -0.435  11.548  19.595  0.00  0.00    +0.000 A 
ATOM      2  C   UNL     1       0.397  10.838  18.718  0.00  0.00    +0.000 A 
ATOM      3  C   UNL     1       0.992   9.665  19.161  0.00  0.00    +0.000 A 
ATOM      4  C   UNL     1       0.818   9.176  20.450  0.00  0.00    +0.000 A 
ATOM      5  C   UNL     1       0.043   9.873  21.365  0.00  0.00    +0.000 A 
ATOM      6  C   UNL     1      -0.599  11.041  20.907  0.00  0.00    +0.000 A 
ATOM      7  C   UNL     1       1.548   7.884  20.597  0.00  0.00    +0.000 C 
ATOM      8  N   UNL     1       2.161   7.683  19.296  0.00  0.00    +0.000 N 
ATOM      9  C   UNL     1       1.866   8.738  18.425  0.00  0.00    +0.000 C 
ATOM     10  O   UNL     1       2.200   8.940  17.270  0.00  0.00    +0.000 OA
ENDROOT
BRANCH   8  11
ATOM     11  C   UNL     1       2.959   6.542  19.015  0.00  0.00    +0.000 A 
ATOM     12  C   UNL     1       3.047   5.474  19.910  0.00  0.00    +0.000 A 
ATOM     13  C   UNL     1       3.809   4.343  19.609  0.00  0.00    +0.000 A 
ATOM     14  C   UNL     1       4.527   4.273  18.420  0.00  0.00    +0.000 A 
ATOM     15  C   UNL     1       4.498   5.338  17.511  0.00  0.00    +0.000 A 
ATOM     16  C   UNL     1       3.689   6.453  17.814  0.00  0.00    +0.000 A 
BRANCH  15  17
ATOM     17  C   UNL     1       5.336   5.328  16.229  0.00  0.00    +0.000 C 
ATOM     18  C   UNL     1       4.986   4.077  15.407  0.00  0.00    +0.000 C 
ATOM     19  F   UNL     1       5.011   6.385  15.404  0.00  0.00    +0.000 F 
BRANCH  17  20
ATOM     20  C   UNL     1       6.869   5.374  16.491  0.00  0.00    +0.000 C 
ATOM     21  F   UNL     1       7.261   4.239  17.154  0.00  0.00    +0.000 F 
ATOM     22  F   UNL     1       7.524   5.296  15.288  0.00  0.00    +0.000 F 
BRANCH  20  23
ATOM     23  C   UNL     1       7.359   6.580  17.226  0.00  0.00    +0.000 A 
ATOM     24  N   UNL     1       7.418   7.833  16.811  0.00  0.00    +0.000 NA
ATOM     25  N   UNL     1       7.941   8.602  17.823  0.00  0.00    +0.000 NA
ATOM     26  C   UNL     1       8.198   7.807  18.834  0.00  0.00    +0.000 A 
ATOM     27  N   UNL     1       7.856   6.532  18.505  0.00  0.00    +0.000 N 
ATOM     28  C   UNL     1       8.008   5.374  19.344  0.00  0.00    +0.000 C 
ENDBRANCH  20  23
ENDBRANCH  17  20
ENDBRANCH  15  17
ENDBRANCH   8  11
BRANCH   5  29
ATOM     29  C   UNL     1      -0.122   9.448  22.797  0.00  0.00    +0.000 C 
ATOM     30  F   UNL     1       1.055   9.283  23.460  0.00  0.00    +0.000 F 
ATOM     31  F   UNL     1      -0.823  10.367  23.520  0.00  0.00    +0.000 F 
ATOM     32  F   UNL     1      -0.796   8.275  22.927  0.00  0.00    +0.000 F 
ENDBRANCH   5  29
BRANCH   1  34
ATOM     33  C   UNL     1      -0.425  13.628  18.303  0.00  0.00    +0.000 C 
ATOM     34  N   UNL     1      -1.114  12.730  19.236  0.00  0.00    +0.000 N 
BRANCH  34  35
ATOM     35  C   UNL     1      -1.873  13.353  20.360  0.00  0.00    +0.000 C 
ATOM     36  C   UNL     1      -3.407  13.434  20.188  0.00  0.00    +0.000 C 
ATOM     37  N   UNL     1      -3.843  14.762  20.644  0.00  0.00    +0.000 NA
ATOM     38  C   UNL     1      -2.717  15.340  21.386  0.00  0.00    +0.000 C 
ATOM     39  C   UNL     1      -1.470  14.791  20.710  0.00  0.00    +0.000 C 
ATOM     40  F   UNL     1      -1.209  15.525  19.595  0.00  0.00    +0.000 F 
ATOM     41  H   UNL     1      -4.685  14.709  21.213  0.00  0.00    +0.000 HD
ENDBRANCH  34  35
ENDBRANCH   1  34
TORSDOF 7
ENDMDL
MODEL 7
REMARK VINA RESULT:      -9.8      1.886      2.759
REMARK  Name = 
REMARK  10 active torsions:
REMARK  status: ('A' for Active; 'I' for Inactive)
REMARK    1  A    between atoms: C_1  and  N_2
REMARK    2  A    between atoms: N_2  and  C_3
REMARK    3  A    between atoms: N_2  and  C_35
REMARK    4  A    between atoms: C_7  and  C_8
REMARK    5  A    between atoms: N_14  and  C_15
REMARK    6  A    between atoms: C_19  and  C_20
REMARK    7  A    between atoms: C_20  and  C_21
REMARK    8  A    between atoms: C_20  and  C_23
REMARK    9  A    between atoms: C_23  and  C_26
REMARK   10  A    between atoms: N_30  and  C_31
REMARK                            x       y       z     vdW  Elec       q    Type
REMARK                         _______ _______ _______ _____ _____    ______ ____
ROOT
ATOM      1  C   UNL     1       0.260  11.856  19.710  0.00  0.00    +0.000 A 
ATOM      2  C   UNL     1       0.998  11.136  18.760  0.00  0.00    +0.000 A 
ATOM      3  C   UNL     1       1.394   9.841  19.061  0.00  0.00    +0.000 A 
ATOM      4  C   UNL     1       1.112   9.233  20.278  0.00  0.00    +0.000 A 
ATOM      5  C   UNL     1       0.427   9.927  21.265  0.00  0.00    +0.000 A 
ATOM      6  C   UNL     1      -0.016  11.226  20.949  0.00  0.00    +0.000 A 
ATOM      7  C   UNL     1       1.632   7.836  20.271  0.00  0.00    +0.000 C 
ATOM      8  N   UNL     1       2.243   7.700  18.960  0.00  0.00    +0.000 N 
ATOM      9  C   UNL     1       2.137   8.886  18.223  0.00  0.00    +0.000 C 
ATOM     10  O   UNL     1       2.529   9.171  17.105  0.00  0.00    +0.000 OA
ENDROOT
BRANCH   8  11
ATOM     11  C   UNL     1       2.865   6.491  18.548  0.00  0.00    +0.000 A 
ATOM     12  C   UNL     1       2.667   5.295  19.240  0.00  0.00    +0.000 A 
ATOM     13  C   UNL     1       3.258   4.106  18.806  0.00  0.00    +0.000 A 
ATOM     14  C   UNL     1       4.088   4.098  17.690  0.00  0.00    +0.000 A 
ATOM     15  C   UNL     1       4.346   5.283  16.990  0.00  0.00    +0.000 A 
ATOM     16  C   UNL     1       3.706   6.464  17.419  0.00  0.00    +0.000 A 
BRANCH  15  17
ATOM     17  C   UNL     1       5.314   5.325  15.804  0.00  0.00    +0.000 C 
ATOM     18  C   UNL     1       4.784   4.413  14.686  0.00  0.00    +0.000 C 
ATOM     19  F   UNL     1       5.360   6.580  15.233  0.00  0.00    +0.000 F 
BRANCH  17  20
ATOM     20  C   UNL     1       6.767   4.911  16.177  0.00  0.00    +0.000 C 
ATOM     21  F   UNL     1       6.929   3.563  15.989  0.00  0.00    +0.000 F 
ATOM     22  F   UNL     1       7.632   5.476  15.274  0.00  0.00    +0.000 F 
BRANCH  20  23
ATOM     23  C   UNL     1       7.206   5.283  17.557  0.00  0.00    +0.000 A 
ATOM     24  N   UNL     1       7.326   4.511  18.623  0.00  0.00    +0.000 NA
ATOM     25  N   UNL     1       7.760   5.284  19.673  0.00  0.00    +0.000 NA
ATOM     26  C   UNL     1       7.891   6.513  19.234  0.00  0.00    +0.000 A 
ATOM     27  N   UNL     1       7.551   6.563  17.918  0.00  0.00    +0.000 N 
ATOM     28  C   UNL     1       7.546   7.738  17.091  0.00  0.00    +0.000 C 
ENDBRANCH  20  23
ENDBRANCH  17  20
ENDBRANCH  15  17
ENDBRANCH   8  11
BRANCH   5  29
ATOM     29  C   UNL     1       0.160   9.363  22.632  0.00  0.00    +0.000 C 
ATOM     30  F   UNL     1      -0.462  10.234  23.473  0.00  0.00    +0.000 F 
ATOM     31  F   UNL     1      -0.648   8.266  22.578  0.00  0.00    +0.000 F 
ATOM     32  F   UNL     1       1.291   8.965  23.271  0.00  0.00    +0.000 F 
ENDBRANCH   5  29
BRANCH   1  34
ATOM     33  C   UNL     1      -0.400  13.577  18.098  0.00  0.00    +0.000 C 
ATOM     34  N   UNL     1      -0.221  13.163  19.494  0.00  0.00    +0.000 N 
BRANCH  34  35
ATOM     35  C   UNL     1       0.329  14.172  20.447  0.00  0.00    +0.000 C 
ATOM     36  C   UNL     1      -0.158  15.627  20.258  0.00  0.00    +0.000 C 
ATOM     37  N   UNL     1       1.007  16.515  20.401  0.00  0.00    +0.000 NA
ATOM     38  C   UNL     1       2.077  15.707  20.996  0.00  0.00    +0.000 C 
ATOM     39  C   UNL     1       1.857  14.299  20.463  0.00  0.00    +0.000 C 
ATOM     40  F   UNL     1       2.383  14.209  19.212  0.00  0.00    +0.000 F 
ATOM     41  H   UNL     1       0.791  17.333  20.966  0.00  0.00    +0.000 HD
ENDBRANCH  34  35
ENDBRANCH   1  34
TORSDOF 7
ENDMDL
MODEL 8
REMARK VINA RESULT:      -9.6      2.498      9.548
REMARK  Name = 
REMARK  10 active torsions:
REMARK  status: ('A' for Active; 'I' for Inactive)
REMARK    1  A    between atoms: C_1  and  N_2
REMARK    2  A    between atoms: N_2  and  C_3
REMARK    3  A    between atoms: N_2  and  C_35
REMARK    4  A    between atoms: C_7  and  C_8
REMARK    5  A    between atoms: N_14  and  C_15
REMARK    6  A    between atoms: C_19  and  C_20
REMARK    7  A    between atoms: C_20  and  C_21
REMARK    8  A    between atoms: C_20  and  C_23
REMARK    9  A    between atoms: C_23  and  C_26
REMARK   10  A    between atoms: N_30  and  C_31
REMARK                            x       y       z     vdW  Elec       q    Type
REMARK                         _______ _______ _______ _____ _____    ______ ____
ROOT
ATOM      1  C   UNL     1       3.728   5.495  17.870  0.00  0.00    +0.000 A 
ATOM      2  C   UNL     1       3.275   6.820  17.942  0.00  0.00    +0.000 A 
ATOM      3  C   UNL     1       2.422   7.182  18.975  0.00  0.00    +0.000 A 
ATOM      4  C   UNL     1       1.975   6.279  19.930  0.00  0.00    +0.000 A 
ATOM      5  C   UNL     1       2.358   4.947  19.868  0.00  0.00    +0.000 A 
ATOM      6  C   UNL     1       3.259   4.583  18.848  0.00  0.00    +0.000 A 
ATOM      7  C   UNL     1       1.113   6.985  20.921  0.00  0.00    +0.000 C 
ATOM      8  N   UNL     1       1.095   8.358  20.447  0.00  0.00    +0.000 N 
ATOM      9  C   UNL     1       1.849   8.503  19.277  0.00  0.00    +0.000 C 
ATOM     10  O   UNL     1       2.064   9.480  18.579  0.00  0.00    +0.000 OA
ENDROOT
BRANCH   8  11
ATOM     11  C   UNL     1       0.372   9.374  21.129  0.00  0.00    +0.000 A 
ATOM     12  C   UNL     1       0.021   9.243  22.474  0.00  0.00    +0.000 A 
ATOM     13  C   UNL     1      -0.662  10.261  23.142  0.00  0.00    +0.000 A 
ATOM     14  C   UNL     1      -1.038  11.418  22.467  0.00  0.00    +0.000 A 
ATOM     15  C   UNL     1      -0.741  11.573  21.107  0.00  0.00    +0.000 A 
ATOM     16  C   UNL     1      -0.014  10.552  20.462  0.00  0.00    +0.000 A 
BRANCH  15  17
ATOM     17  C   UNL     1      -1.207  12.798  20.315  0.00  0.00    +0.000 C 
ATOM     18  C   UNL     1      -0.966  12.552  18.816  0.00  0.00    +0.000 C 
ATOM     19  F   UNL     1      -2.570  12.980  20.419  0.00  0.00    +0.000 F 
BRANCH  17  20
ATOM     20  C   UNL     1      -0.509  14.119  20.750  0.00  0.00    +0.000 C 
ATOM     21  F   UNL     1      -0.937  15.154  19.959  0.00  0.00    +0.000 F 
ATOM     22  F   UNL     1      -0.952  14.458  22.004  0.00  0.00    +0.000 F 
BRANCH  20  23
ATOM     23  C   UNL     1       0.985  14.082  20.764  0.00  0.00    +0.000 A 
ATOM     24  N   UNL     1       1.791  13.511  21.642  0.00  0.00    +0.000 NA
ATOM     25  N   UNL     1       3.089  13.735  21.252  0.00  0.00    +0.000 NA
ATOM     26  C   UNL     1       3.055  14.443  20.149  0.00  0.00    +0.000 A 
ATOM     27  N   UNL     1       1.762  14.690  19.808  0.00  0.00    +0.000 N 
ATOM     28  C   UNL     1       1.319  15.452  18.672  0.00  0.00    +0.000 C 
ENDBRANCH  20  23
ENDBRANCH  17  20
ENDBRANCH  15  17
ENDBRANCH   8  11
BRANCH   5  29
ATOM     29  C   UNL     1       1.848   3.899  20.817  0.00  0.00    +0.000 C 
ATOM     30  F   UNL     1       2.243   4.087  22.106  0.00  0.00    +0.000 F 
ATOM     31  F   UNL     1       0.486   3.867  20.852  0.00  0.00    +0.000 F 
ATOM     32  F   UNL     1       2.244   2.643  20.481  0.00  0.00    +0.000 F 
ENDBRANCH   5  29
BRANCH   1  34
ATOM     33  C   UNL     1       4.352   3.701  16.326  0.00  0.00    +0.000 C 
ATOM     34  N   UNL     1       4.621   5.030  16.885  0.00  0.00    +0.000 N 
BRANCH  34  35
ATOM     35  C   UNL     1       6.046   5.395  17.142  0.00  0.00    +0.000 C 
ATOM     36  C   UNL     1       7.112   4.517  16.449  0.00  0.00    +0.000 C 
ATOM     37  N   UNL     1       8.178   4.246  17.425  0.00  0.00    +0.000 NA
ATOM     38  C   UNL     1       7.977   5.183  18.535  0.00  0.00    +0.000 C 
ATOM     39  C   UNL     1       6.471   5.388  18.615  0.00  0.00    +0.000 C 
ATOM     40  F   UNL     1       5.917   4.349  19.295  0.00  0.00    +0.000 F 
ATOM     41  H   UNL     1       9.103   4.342  17.012  0.00  0.00    +0.000 HD
ENDBRANCH  34  35
ENDBRANCH   1  34
TORSDOF 7
ENDMDL
MODEL 9
REMARK VINA RESULT:      -9.6      2.638      9.321
REMARK  Name = 
REMARK  10 active torsions:
REMARK  status: ('A' for Active; 'I' for Inactive)
REMARK    1  A    between atoms: C_1  and  N_2
REMARK    2  A    between atoms: N_2  and  C_3
REMARK    3  A    between atoms: N_2  and  C_35
REMARK    4  A    between atoms: C_7  and  C_8
REMARK    5  A    between atoms: N_14  and  C_15
REMARK    6  A    between atoms: C_19  and  C_20
REMARK    7  A    between atoms: C_20  and  C_21
REMARK    8  A    between atoms: C_20  and  C_23
REMARK    9  A    between atoms: C_23  and  C_26
REMARK   10  A    between atoms: N_30  and  C_31
REMARK                            x       y       z     vdW  Elec       q    Type
REMARK                         _______ _______ _______ _____ _____    ______ ____
ROOT
ATOM      1  C   UNL     1       4.046   5.466  18.092  0.00  0.00    +0.000 A 
ATOM      2  C   UNL     1       3.561   6.781  18.085  0.00  0.00    +0.000 A 
ATOM      3  C   UNL     1       2.615   7.152  19.031  0.00  0.00    +0.000 A 
ATOM      4  C   UNL     1       2.106   6.265  19.971  0.00  0.00    +0.000 A 
ATOM      5  C   UNL     1       2.521   4.941  19.982  0.00  0.00    +0.000 A 
ATOM      6  C   UNL     1       3.514   4.571  19.053  0.00  0.00    +0.000 A 
ATOM      7  C   UNL     1       1.148   6.978  20.864  0.00  0.00    +0.000 C 
ATOM      8  N   UNL     1       1.142   8.336  20.349  0.00  0.00    +0.000 N 
ATOM      9  C   UNL     1       1.990   8.467  19.243  0.00  0.00    +0.000 C 
ATOM     10  O   UNL     1       2.243   9.428  18.538  0.00  0.00    +0.000 OA
ENDROOT
BRANCH   8  11
ATOM     11  C   UNL     1       0.341   9.353  20.936  0.00  0.00    +0.000 A 
ATOM     12  C   UNL     1       0.080   9.377  22.308  0.00  0.00    +0.000 A 
ATOM     13  C   UNL     1      -0.681  10.399  22.878  0.00  0.00    +0.000 A 
ATOM     14  C   UNL     1      -1.226  11.401  22.082  0.00  0.00    +0.000 A 
ATOM     15  C   UNL     1      -1.022  11.394  20.696  0.00  0.00    +0.000 A 
ATOM     16  C   UNL     1      -0.215  10.376  20.145  0.00  0.00    +0.000 A 
BRANCH  15  17
ATOM     17  C   UNL     1      -1.670  12.436  19.780  0.00  0.00    +0.000 C 
ATOM     18  C   UNL     1      -1.834  11.839  18.372  0.00  0.00    +0.000 C 
ATOM     19  F   UNL     1      -2.956  12.732  20.181  0.00  0.00    +0.000 F 
BRANCH  17  20
ATOM     20  C   UNL     1      -0.871  13.768  19.697  0.00  0.00    +0.000 C 
ATOM     21  F   UNL     1      -0.689  14.120  18.384  0.00  0.00    +0.000 F 
ATOM     22  F   UNL     1      -1.647  14.780  20.204  0.00  0.00    +0.000 F 
BRANCH  20  23
ATOM     23  C   UNL     1       0.445  13.774  20.406  0.00  0.00    +0.000 A 
ATOM     24  N   UNL     1       0.716  14.148  21.644  0.00  0.00    +0.000 NA
ATOM     25  N   UNL     1       2.062  13.983  21.863  0.00  0.00    +0.000 NA
ATOM     26  C   UNL     1       2.591  13.518  20.757  0.00  0.00    +0.000 A 
ATOM     27  N   UNL     1       1.620  13.377  19.815  0.00  0.00    +0.000 N 
ATOM     28  C   UNL     1       1.811  12.914  18.468  0.00  0.00    +0.000 C 
ENDBRANCH  20  23
ENDBRANCH  17  20
ENDBRANCH  15  17
ENDBRANCH   8  11
BRANCH   5  29
ATOM     29  C   UNL     1       1.954   3.909  20.914  0.00  0.00    +0.000 C 
ATOM     30  F   UNL     1       0.597   3.822  20.878  0.00  0.00    +0.000 F 
ATOM     31  F   UNL     1       2.409   2.657  20.621  0.00  0.00    +0.000 F 
ATOM     32  F   UNL     1       2.283   4.132  22.214  0.00  0.00    +0.000 F 
ENDBRANCH   5  29
BRANCH   1  34
ATOM     33  C   UNL     1       4.661   3.854  16.356  0.00  0.00    +0.000 C 
ATOM     34  N   UNL     1       5.030   4.995  17.200  0.00  0.00    +0.000 N 
BRANCH  34  35
ATOM     35  C   UNL     1       6.413   5.019  17.762  0.00  0.00    +0.000 C 
ATOM     36  C   UNL     1       6.534   4.821  19.290  0.00  0.00    +0.000 C 
ATOM     37  N   UNL     1       7.522   5.788  19.793  0.00  0.00    +0.000 NA
ATOM     38  C   UNL     1       8.234   6.307  18.621  0.00  0.00    +0.000 C 
ATOM     39  C   UNL     1       7.208   6.303  17.496  0.00  0.00    +0.000 C 
ATOM     40  F   UNL     1       6.427   7.411  17.604  0.00  0.00    +0.000 F 
ATOM     41  H   UNL     1       8.157   5.364  20.466  0.00  0.00    +0.000 HD
ENDBRANCH  34  35
ENDBRANCH   1  34
TORSDOF 7
ENDMDL
