MODEL 1
REMARK VINA RESULT:      -9.0      0.000      0.000
REMARK  Name = 
REMARK  10 active torsions:
REMARK  status: ('A' for Active; 'I' for Inactive)
REMARK    1  A    between atoms: C_1  and  N_2
REMARK    2  A    between atoms: C_6  and  C_7
REMARK    3  A    between atoms: C_7  and  C_10
REMARK    4  A    between atoms: C_10  and  C_11
REMARK    5  A    between atoms: C_10  and  C_13
REMARK    6  A    between atoms: C_17  and  N_18
REMARK    7  A    between atoms: C_19  and  C_21
REMARK    8  A    between atoms: C_23  and  C_24
REMARK    9  A    between atoms: C_24  and  N_25
REMARK   10  A    between atoms: C_32  and  C_33
REMARK                            x       y       z     vdW  Elec       q    Type
REMARK                         _______ _______ _______ _____ _____    ______ ____
ROOT
ATOM      1  N   UNL     1       2.002   6.956  18.683  0.00  0.00    +0.000 N 
ATOM      2  C   UNL     1       2.090   8.251  18.168  0.00  0.00    +0.000 C 
ATOM      3  O   UNL     1       2.692   8.579  17.152  0.00  0.00    +0.000 OA
ATOM      4  H   UNL     1       1.427   6.861  19.510  0.00  0.00    +0.000 HD
ENDROOT
BRANCH   1   9
ATOM      5  C   UNL     1       4.492   4.920  16.765  0.00  0.00    +0.000 A 
ATOM      6  C   UNL     1       4.049   3.620  17.049  0.00  0.00    +0.000 A 
ATOM      7  C   UNL     1       2.964   3.417  17.903  0.00  0.00    +0.000 A 
ATOM      8  C   UNL     1       2.296   4.502  18.473  0.00  0.00    +0.000 A 
ATOM      9  C   UNL     1       2.706   5.814  18.219  0.00  0.00    +0.000 A 
ATOM     10  C   UNL     1       3.830   6.006  17.395  0.00  0.00    +0.000 A 
BRANCH   5  11
ATOM     11  C   UNL     1       5.484   5.205  15.615  0.00  0.00    +0.000 C 
ATOM     12  C   UNL     1       4.992   4.327  14.448  0.00  0.00    +0.000 C 
ATOM     13  F   UNL     1       5.349   6.514  15.187  0.00  0.00    +0.000 F 
BRANCH  11  14
ATOM     14  C   UNL     1       7.005   4.991  15.931  0.00  0.00    +0.000 C 
ATOM     15  F   UNL     1       7.781   5.746  15.100  0.00  0.00    +0.000 F 
ATOM     16  F   UNL     1       7.340   3.695  15.649  0.00  0.00    +0.000 F 
BRANCH  14  22
ATOM     17  C   UNL     1       7.453   7.873  17.273  0.00  0.00    +0.000 C 
ATOM     18  N   UNL     1       7.600   6.581  17.886  0.00  0.00    +0.000 N 
ATOM     19  C   UNL     1       7.966   6.384  19.187  0.00  0.00    +0.000 A 
ATOM     20  N   UNL     1       7.890   5.110  19.476  0.00  0.00    +0.000 NA
ATOM     21  N   UNL     1       7.476   4.454  18.346  0.00  0.00    +0.000 NA
ATOM     22  C   UNL     1       7.364   5.333  17.360  0.00  0.00    +0.000 A 
ENDBRANCH  14  22
ENDBRANCH  11  14
ENDBRANCH   5  11
ENDBRANCH   1   9
BRANCH   2  23
ATOM     23  C   UNL     1       1.396   9.322  18.962  0.00  0.00    +0.000 A 
ATOM     24  C   UNL     1       1.464  10.620  18.497  0.00  0.00    +0.000 A 
ATOM     25  C   UNL     1       0.853  11.575  19.274  0.00  0.00    +0.000 A 
ATOM     26  N   UNL     1       0.210  11.251  20.413  0.00  0.00    +0.000 NA
ATOM     27  C   UNL     1       0.172   9.953  20.790  0.00  0.00    +0.000 A 
ATOM     28  N   UNL     1       0.770   8.955  20.101  0.00  0.00    +0.000 NA
BRANCH  27  29
ATOM     29  C   UNL     1      -0.625   9.624  22.034  0.00  0.00    +0.000 C 
ATOM     30  C   UNL     1       0.094   9.539  23.368  0.00  0.00    +0.000 C 
ATOM     31  C   UNL     1      -0.846  10.673  23.098  0.00  0.00    +0.000 C 
ENDBRANCH  27  29
BRANCH  25  32
ATOM     32  C   UNL     1       0.889  13.037  18.868  0.00  0.00    +0.000 C 
BRANCH  32  33
ATOM     33  N   UNL     1       2.031  13.789  19.415  0.00  0.00    +0.000 NA
ATOM     34  C   UNL     1       3.014  14.188  18.400  0.00  0.00    +0.000 C 
ATOM     35  C   UNL     1       3.109  15.705  18.407  0.00  0.00    +0.000 C 
ATOM     36  C   UNL     1       2.549  16.121  19.744  0.00  0.00    +0.000 C 
ATOM     37  F   UNL     1       3.560  16.193  20.651  0.00  0.00    +0.000 F 
ATOM     38  C   UNL     1       1.591  15.005  20.127  0.00  0.00    +0.000 C 
ENDBRANCH  32  33
ENDBRANCH  25  32
ENDBRANCH   2  23
TORSDOF 8
ENDMDL
MODEL 2
REMARK VINA RESULT:      -9.0      3.278      9.668
REMARK  Name = 
REMARK  10 active torsions:
REMARK  status: ('A' for Active; 'I' for Inactive)
REMARK    1  A    between atoms: C_1  and  N_2
REMARK    2  A    between atoms: C_6  and  C_7
REMARK    3  A    between atoms: C_7  and  C_10
REMARK    4  A    between atoms: C_10  and  C_11
REMARK    5  A    between atoms: C_10  and  C_13
REMARK    6  A    between atoms: C_17  and  N_18
REMARK    7  A    between atoms: C_19  and  C_21
REMARK    8  A    between atoms: C_23  and  C_24
REMARK    9  A    between atoms: C_24  and  N_25
REMARK   10  A    between atoms: C_32  and  C_33
REMARK                            x       y       z     vdW  Elec       q    Type
REMARK                         _______ _______ _______ _____ _____    ______ ____
ROOT
ATOM      1  N   UNL     1       1.862   7.576  19.899  0.00  0.00    +0.000 N 
ATOM      2  C   UNL     1       2.436   7.728  18.635  0.00  0.00    +0.000 C 
ATOM      3  O   UNL     1       2.502   8.772  17.999  0.00  0.00    +0.000 OA
ATOM      4  H   UNL     1       1.933   6.647  20.294  0.00  0.00    +0.000 HD
ENDROOT
BRANCH   1   9
ATOM      5  C   UNL     1      -0.205  10.637  20.519  0.00  0.00    +0.000 A 
ATOM      6  C   UNL     1      -0.191  10.688  21.920  0.00  0.00    +0.000 A 
ATOM      7  C   UNL     1       0.458   9.694  22.655  0.00  0.00    +0.000 A 
ATOM      8  C   UNL     1       1.115   8.647  22.007  0.00  0.00    +0.000 A 
ATOM      9  C   UNL     1       1.123   8.555  20.613  0.00  0.00    +0.000 A 
ATOM     10  C   UNL     1       0.425   9.535  19.883  0.00  0.00    +0.000 A 
BRANCH   5  11
ATOM     11  C   UNL     1      -0.649  11.847  19.667  0.00  0.00    +0.000 C 
ATOM     12  C   UNL     1      -1.338  11.227  18.437  0.00  0.00    +0.000 C 
ATOM     13  F   UNL     1      -1.631  12.559  20.332  0.00  0.00    +0.000 F 
BRANCH  11  14
ATOM     14  C   UNL     1       0.466  12.878  19.279  0.00  0.00    +0.000 C 
ATOM     15  F   UNL     1       0.066  13.647  18.225  0.00  0.00    +0.000 F 
ATOM     16  F   UNL     1       1.563  12.197  18.824  0.00  0.00    +0.000 F 
BRANCH  14  22
ATOM     17  C   UNL     1      -0.881  15.645  20.189  0.00  0.00    +0.000 C 
ATOM     18  N   UNL     1       0.277  15.002  20.747  0.00  0.00    +0.000 N 
ATOM     19  C   UNL     1       1.003  15.495  21.793  0.00  0.00    +0.000 A 
ATOM     20  N   UNL     1       1.913  14.624  22.146  0.00  0.00    +0.000 NA
ATOM     21  N   UNL     1       1.793  13.542  21.313  0.00  0.00    +0.000 NA
ATOM     22  C   UNL     1       0.847  13.794  20.420  0.00  0.00    +0.000 A 
ENDBRANCH  14  22
ENDBRANCH  11  14
ENDBRANCH   5  11
ENDBRANCH   1   9
BRANCH   2  23
ATOM     23  C   UNL     1       2.994   6.478  18.014  0.00  0.00    +0.000 A 
ATOM     24  C   UNL     1       2.278   5.306  18.161  0.00  0.00    +0.000 A 
ATOM     25  C   UNL     1       2.842   4.178  17.615  0.00  0.00    +0.000 A 
ATOM     26  N   UNL     1       4.019   4.226  16.959  0.00  0.00    +0.000 NA
ATOM     27  C   UNL     1       4.649   5.417  16.841  0.00  0.00    +0.000 A 
ATOM     28  N   UNL     1       4.178   6.568  17.372  0.00  0.00    +0.000 NA
BRANCH  27  29
ATOM     29  C   UNL     1       5.927   5.438  16.032  0.00  0.00    +0.000 C 
ATOM     30  C   UNL     1       7.188   4.845  16.633  0.00  0.00    +0.000 C 
ATOM     31  C   UNL     1       6.509   4.154  15.490  0.00  0.00    +0.000 C 
ENDBRANCH  27  29
BRANCH  25  32
ATOM     32  C   UNL     1       2.151   2.833  17.740  0.00  0.00    +0.000 C 
BRANCH  32  33
ATOM     33  N   UNL     1       2.066   2.322  19.118  0.00  0.00    +0.000 NA
ATOM     34  C   UNL     1       3.275   2.570  19.913  0.00  0.00    +0.000 C 
ATOM     35  C   UNL     1       2.884   3.418  21.113  0.00  0.00    +0.000 C 
ATOM     36  C   UNL     1       1.394   3.234  21.247  0.00  0.00    +0.000 C 
ATOM     37  F   UNL     1       1.144   2.189  22.080  0.00  0.00    +0.000 F 
ATOM     38  C   UNL     1       0.917   2.899  19.843  0.00  0.00    +0.000 C 
ENDBRANCH  32  33
ENDBRANCH  25  32
ENDBRANCH   2  23
TORSDOF 8
ENDMDL
MODEL 3
REMARK VINA RESULT:      -8.9      3.453      9.829
REMARK  Name = 
REMARK  10 active torsions:
REMARK  status: ('A' for Active; 'I' for Inactive)
REMARK    1  A    between atoms: C_1  and  N_2
REMARK    2  A    between atoms: C_6  and  C_7
REMARK    3  A    between atoms: C_7  and  C_10
REMARK    4  A    between atoms: C_10  and  C_11
REMARK    5  A    between atoms: C_10  and  C_13
REMARK    6  A    between atoms: C_17  and  N_18
REMARK    7  A    between atoms: C_19  and  C_21
REMARK    8  A    between atoms: C_23  and  C_24
REMARK    9  A    between atoms: C_24  and  N_25
REMARK   10  A    between atoms: C_32  and  C_33
REMARK                            x       y       z     vdW  Elec       q    Type
REMARK                         _______ _______ _______ _____ _____    ______ ____
ROOT
ATOM      1  N   UNL     1       1.896   7.931  19.878  0.00  0.00    +0.000 N 
ATOM      2  C   UNL     1       2.151   7.851  18.508  0.00  0.00    +0.000 C 
ATOM      3  O   UNL     1       1.806   8.671  17.666  0.00  0.00    +0.000 OA
ATOM      4  H   UNL     1       2.293   7.183  20.433  0.00  0.00    +0.000 HD
ENDROOT
BRANCH   1   9
ATOM      5  C   UNL     1       0.386  11.251  20.728  0.00  0.00    +0.000 A 
ATOM      6  C   UNL     1      -0.348  10.923  21.877  0.00  0.00    +0.000 A 
ATOM      7  C   UNL     1      -0.379   9.608  22.342  0.00  0.00    +0.000 A 
ATOM      8  C   UNL     1       0.330   8.604  21.680  0.00  0.00    +0.000 A 
ATOM      9  C   UNL     1       1.071   8.885  20.529  0.00  0.00    +0.000 A 
ATOM     10  C   UNL     1       1.058  10.205  20.041  0.00  0.00    +0.000 A 
BRANCH   5  11
ATOM     11  C   UNL     1       0.687  12.718  20.348  0.00  0.00    +0.000 C 
ATOM     12  C   UNL     1       0.460  13.513  21.648  0.00  0.00    +0.000 C 
ATOM     13  F   UNL     1       2.028  12.864  20.044  0.00  0.00    +0.000 F 
BRANCH  11  14
ATOM     14  C   UNL     1      -0.113  13.306  19.134  0.00  0.00    +0.000 C 
ATOM     15  F   UNL     1       0.670  13.354  18.018  0.00  0.00    +0.000 F 
ATOM     16  F   UNL     1      -0.430  14.611  19.400  0.00  0.00    +0.000 F 
BRANCH  14  22
ATOM     17  C   UNL     1      -2.972  13.341  20.592  0.00  0.00    +0.000 C 
ATOM     18  N   UNL     1      -2.553  12.517  19.491  0.00  0.00    +0.000 N 
ATOM     19  C   UNL     1      -3.346  11.591  18.878  0.00  0.00    +0.000 A 
ATOM     20  N   UNL     1      -2.722  11.098  17.839  0.00  0.00    +0.000 NA
ATOM     21  N   UNL     1      -1.494  11.702  17.770  0.00  0.00    +0.000 NA
ATOM     22  C   UNL     1      -1.359  12.514  18.809  0.00  0.00    +0.000 A 
ENDBRANCH  14  22
ENDBRANCH  11  14
ENDBRANCH   5  11
ENDBRANCH   1   9
BRANCH   2  23
ATOM     23  C   UNL     1       2.896   6.629  18.049  0.00  0.00    +0.000 A 
ATOM     24  C   UNL     1       2.239   5.414  18.093  0.00  0.00    +0.000 A 
ATOM     25  C   UNL     1       2.968   4.316  17.706  0.00  0.00    +0.000 A 
ATOM     26  N   UNL     1       4.245   4.429  17.291  0.00  0.00    +0.000 NA
ATOM     27  C   UNL     1       4.812   5.657  17.258  0.00  0.00    +0.000 A 
ATOM     28  N   UNL     1       4.176   6.785  17.648  0.00  0.00    +0.000 NA
BRANCH  27  29
ATOM     29  C   UNL     1       6.220   5.747  16.714  0.00  0.00    +0.000 C 
ATOM     30  C   UNL     1       7.355   6.088  17.662  0.00  0.00    +0.000 C 
ATOM     31  C   UNL     1       7.251   4.708  17.088  0.00  0.00    +0.000 C 
ENDBRANCH  27  29
BRANCH  25  32
ATOM     32  C   UNL     1       2.350   2.930  17.739  0.00  0.00    +0.000 C 
BRANCH  32  33
ATOM     33  N   UNL     1       2.140   2.394  19.094  0.00  0.00    +0.000 NA
ATOM     34  C   UNL     1       3.284   2.597  19.991  0.00  0.00    +0.000 C 
ATOM     35  C   UNL     1       2.813   3.429  21.173  0.00  0.00    +0.000 C 
ATOM     36  C   UNL     1       1.312   3.277  21.180  0.00  0.00    +0.000 C 
ATOM     37  F   UNL     1       0.972   2.221  21.966  0.00  0.00    +0.000 F 
ATOM     38  C   UNL     1       0.947   2.982  19.734  0.00  0.00    +0.000 C 
ENDBRANCH  32  33
ENDBRANCH  25  32
ENDBRANCH   2  23
TORSDOF 8
ENDMDL
MODEL 4
REMARK VINA RESULT:      -8.9      2.376      9.312
REMARK  Name = 
REMARK  10 active torsions:
REMARK  status: ('A' for Active; 'I' for Inactive)
REMARK    1  A    between atoms: C_1  and  N_2
REMARK    2  A    between atoms: C_6  and  C_7
REMARK    3  A    between atoms: C_7  and  C_10
REMARK    4  A    between atoms: C_10  and  C_11
REMARK    5  A    between atoms: C_10  and  C_13
REMARK    6  A    between atoms: C_17  and  N_18
REMARK    7  A    between atoms: C_19  and  C_21
REMARK    8  A    between atoms: C_23  and  C_24
REMARK    9  A    between atoms: C_24  and  N_25
REMARK   10  A    between atoms: C_32  and  C_33
REMARK                            x       y       z     vdW  Elec       q    Type
REMARK                         _______ _______ _______ _____ _____    ______ ____
ROOT
ATOM      1  N   UNL     1       0.952   9.690  19.303  0.00  0.00    +0.000 N 
ATOM      2  C   UNL     1       1.233   8.841  20.375  0.00  0.00    +0.000 C 
ATOM      3  O   UNL     1       1.034   9.090  21.558  0.00  0.00    +0.000 OA
ATOM      4  H   UNL     1       1.144   9.304  18.387  0.00  0.00    +0.000 HD
ENDROOT
BRANCH   1   9
ATOM      5  C   UNL     1       1.175  13.421  19.543  0.00  0.00    +0.000 A 
ATOM      6  C   UNL     1      -0.168  13.754  19.770  0.00  0.00    +0.000 A 
ATOM      7  C   UNL     1      -1.145  12.758  19.799  0.00  0.00    +0.000 A 
ATOM      8  C   UNL     1      -0.799  11.418  19.619  0.00  0.00    +0.000 A 
ATOM      9  C   UNL     1       0.527  11.042  19.386  0.00  0.00    +0.000 A 
ATOM     10  C   UNL     1       1.497  12.057  19.311  0.00  0.00    +0.000 A 
BRANCH   5  11
ATOM     11  C   UNL     1       2.315  14.434  19.790  0.00  0.00    +0.000 C 
ATOM     12  C   UNL     1       1.888  15.201  21.056  0.00  0.00    +0.000 C 
ATOM     13  F   UNL     1       3.479  13.766  20.126  0.00  0.00    +0.000 F 
BRANCH  11  14
ATOM     14  C   UNL     1       2.675  15.388  18.599  0.00  0.00    +0.000 C 
ATOM     15  F   UNL     1       1.647  16.248  18.341  0.00  0.00    +0.000 F 
ATOM     16  F   UNL     1       2.809  14.645  17.457  0.00  0.00    +0.000 F 
BRANCH  14  22
ATOM     17  C   UNL     1       5.725  14.688  17.882  0.00  0.00    +0.000 C 
ATOM     18  N   UNL     1       5.224  15.843  18.576  0.00  0.00    +0.000 N 
ATOM     19  C   UNL     1       6.008  16.856  19.050  0.00  0.00    +0.000 A 
ATOM     20  N   UNL     1       5.250  17.814  19.518  0.00  0.00    +0.000 NA
ATOM     21  N   UNL     1       3.946  17.424  19.360  0.00  0.00    +0.000 NA
ATOM     22  C   UNL     1       3.925  16.201  18.851  0.00  0.00    +0.000 A 
ENDBRANCH  14  22
ENDBRANCH  11  14
ENDBRANCH   5  11
ENDBRANCH   1   9
BRANCH   2  23
ATOM     23  C   UNL     1       1.858   7.521  20.020  0.00  0.00    +0.000 A 
ATOM     24  C   UNL     1       2.605   7.449  18.861  0.00  0.00    +0.000 A 
ATOM     25  C   UNL     1       3.124   6.215  18.550  0.00  0.00    +0.000 A 
ATOM     26  N   UNL     1       2.926   5.146  19.347  0.00  0.00    +0.000 NA
ATOM     27  C   UNL     1       2.198   5.304  20.476  0.00  0.00    +0.000 A 
ATOM     28  N   UNL     1       1.629   6.474  20.842  0.00  0.00    +0.000 NA
BRANCH  27  29
ATOM     29  C   UNL     1       2.065   4.098  21.379  0.00  0.00    +0.000 C 
ATOM     30  C   UNL     1       1.170   2.950  20.948  0.00  0.00    +0.000 C 
ATOM     31  C   UNL     1       2.657   2.769  20.970  0.00  0.00    +0.000 C 
ENDBRANCH  27  29
BRANCH  25  32
ATOM     32  C   UNL     1       3.940   6.018  17.286  0.00  0.00    +0.000 C 
BRANCH  32  33
ATOM     33  N   UNL     1       5.088   5.109  17.441  0.00  0.00    +0.000 NA
ATOM     34  C   UNL     1       5.033   3.937  16.558  0.00  0.00    +0.000 C 
ATOM     35  C   UNL     1       6.265   3.960  15.667  0.00  0.00    +0.000 C 
ATOM     36  C   UNL     1       7.239   4.865  16.378  0.00  0.00    +0.000 C 
ATOM     37  F   UNL     1       8.022   4.121  17.204  0.00  0.00    +0.000 F 
ATOM     38  C   UNL     1       6.368   5.802  17.200  0.00  0.00    +0.000 C 
ENDBRANCH  32  33
ENDBRANCH  25  32
ENDBRANCH   2  23
TORSDOF 8
ENDMDL
MODEL 5
REMARK VINA RESULT:      -8.8      3.372      9.996
REMARK  Name = 
REMARK  10 active torsions:
REMARK  status: ('A' for Active; 'I' for Inactive)
REMARK    1  A    between atoms: C_1  and  N_2
REMARK    2  A    between atoms: C_6  and  C_7
REMARK    3  A    between atoms: C_7  and  C_10
REMARK    4  A    between atoms: C_10  and  C_11
REMARK    5  A    between atoms: C_10  and  C_13
REMARK    6  A    between atoms: C_17  and  N_18
REMARK    7  A    between atoms: C_19  and  C_21
REMARK    8  A    between atoms: C_23  and  C_24
REMARK    9  A    between atoms: C_24  and  N_25
REMARK   10  A    between atoms: C_32  and  C_33
REMARK                            x       y       z     vdW  Elec       q    Type
REMARK                         _______ _______ _______ _____ _____    ______ ____
ROOT
ATOM      1  N   UNL     1       2.170   7.573  19.742  0.00  0.00    +0.000 N 
ATOM      2  C   UNL     1       2.813   7.668  18.506  0.00  0.00    +0.000 C 
ATOM      3  O   UNL     1       2.783   8.637  17.756  0.00  0.00    +0.000 OA
ATOM      4  H   UNL     1       2.337   6.712  20.247  0.00  0.00    +0.000 HD
ENDROOT
BRANCH   1   9
ATOM      5  C   UNL     1       0.199  10.735  20.119  0.00  0.00    +0.000 A 
ATOM      6  C   UNL     1      -0.376  10.541  21.383  0.00  0.00    +0.000 A 
ATOM      7  C   UNL     1      -0.151   9.356  22.085  0.00  0.00    +0.000 A 
ATOM      8  C   UNL     1       0.661   8.356  21.548  0.00  0.00    +0.000 A 
ATOM      9  C   UNL     1       1.252   8.506  20.290  0.00  0.00    +0.000 A 
ATOM     10  C   UNL     1       0.980   9.684  19.569  0.00  0.00    +0.000 A 
BRANCH   5  11
ATOM     11  C   UNL     1       0.220  12.124  19.441  0.00  0.00    +0.000 C 
ATOM     12  C   UNL     1       0.851  13.060  20.490  0.00  0.00    +0.000 C 
ATOM     13  F   UNL     1       1.094  12.114  18.369  0.00  0.00    +0.000 F 
BRANCH  11  14
ATOM     14  C   UNL     1      -1.150  12.660  18.899  0.00  0.00    +0.000 C 
ATOM     15  F   UNL     1      -0.951  13.669  18.001  0.00  0.00    +0.000 F 
ATOM     16  F   UNL     1      -1.843  13.234  19.930  0.00  0.00    +0.000 F 
BRANCH  14  22
ATOM     17  C   UNL     1      -4.309  12.131  19.104  0.00  0.00    +0.000 C 
ATOM     18  N   UNL     1      -3.329  11.360  18.388  0.00  0.00    +0.000 N 
ATOM     19  C   UNL     1      -3.614  10.242  17.658  0.00  0.00    +0.000 A 
ATOM     20  N   UNL     1      -2.538   9.843  17.029  0.00  0.00    +0.000 NA
ATOM     21  N   UNL     1      -1.525  10.705  17.357  0.00  0.00    +0.000 NA
ATOM     22  C   UNL     1      -1.982  11.587  18.234  0.00  0.00    +0.000 A 
ENDBRANCH  14  22
ENDBRANCH  11  14
ENDBRANCH   5  11
ENDBRANCH   1   9
BRANCH   2  23
ATOM     23  C   UNL     1       3.581   6.453  18.070  0.00  0.00    +0.000 A 
ATOM     24  C   UNL     1       3.577   5.350  18.902  0.00  0.00    +0.000 A 
ATOM     25  C   UNL     1       4.325   4.275  18.488  0.00  0.00    +0.000 A 
ATOM     26  N   UNL     1       5.007   4.297  17.325  0.00  0.00    +0.000 NA
ATOM     27  C   UNL     1       4.946   5.409  16.557  0.00  0.00    +0.000 A 
ATOM     28  N   UNL     1       4.257   6.520  16.902  0.00  0.00    +0.000 NA
BRANCH  27  29
ATOM     29  C   UNL     1       5.664   5.362  15.227  0.00  0.00    +0.000 C 
ATOM     30  C   UNL     1       7.098   4.868  15.181  0.00  0.00    +0.000 C 
ATOM     31  C   UNL     1       6.002   4.035  14.588  0.00  0.00    +0.000 C 
ENDBRANCH  27  29
BRANCH  25  32
ATOM     32  C   UNL     1       4.409   3.021  19.339  0.00  0.00    +0.000 C 
BRANCH  32  33
ATOM     33  N   UNL     1       3.149   2.264  19.426  0.00  0.00    +0.000 NA
ATOM     34  C   UNL     1       2.338   2.604  20.602  0.00  0.00    +0.000 C 
ATOM     35  C   UNL     1       0.996   3.125  20.114  0.00  0.00    +0.000 C 
ATOM     36  C   UNL     1       0.879   2.622  18.697  0.00  0.00    +0.000 C 
ATOM     37  F   UNL     1       0.252   1.415  18.700  0.00  0.00    +0.000 F 
ATOM     38  C   UNL     1       2.314   2.456  18.225  0.00  0.00    +0.000 C 
ENDBRANCH  32  33
ENDBRANCH  25  32
ENDBRANCH   2  23
TORSDOF 8
ENDMDL
MODEL 6
REMARK VINA RESULT:      -8.8      2.364      9.234
REMARK  Name = 
REMARK  10 active torsions:
REMARK  status: ('A' for Active; 'I' for Inactive)
REMARK    1  A    between atoms: C_1  and  N_2
REMARK    2  A    between atoms: C_6  and  C_7
REMARK    3  A    between atoms: C_7  and  C_10
REMARK    4  A    between atoms: C_10  and  C_11
REMARK    5  A    between atoms: C_10  and  C_13
REMARK    6  A    between atoms: C_17  and  N_18
REMARK    7  A    between atoms: C_19  and  C_21
REMARK    8  A    between atoms: C_23  and  C_24
REMARK    9  A    between atoms: C_24  and  N_25
REMARK   10  A    between atoms: C_32  and  C_33
REMARK                            x       y       z     vdW  Elec       q    Type
REMARK                         _______ _______ _______ _____ _____    ______ ____
ROOT
ATOM      1  N   UNL     1       1.414   7.893  20.848  0.00  0.00    +0.000 N 
ATOM      2  C   UNL     1       1.968   7.767  19.572  0.00  0.00    +0.000 C 
ATOM      3  O   UNL     1       2.032   8.653  18.729  0.00  0.00    +0.000 OA
ATOM      4  H   UNL     1       1.484   7.067  21.430  0.00  0.00    +0.000 HD
ENDROOT
BRANCH   1   9
ATOM      5  C   UNL     1       0.306  11.447  21.251  0.00  0.00    +0.000 A 
ATOM      6  C   UNL     1      -0.494  11.348  22.398  0.00  0.00    +0.000 A 
ATOM      7  C   UNL     1      -0.703  10.110  23.006  0.00  0.00    +0.000 A 
ATOM      8  C   UNL     1      -0.106   8.957  22.494  0.00  0.00    +0.000 A 
ATOM      9  C   UNL     1       0.697   9.010  21.351  0.00  0.00    +0.000 A 
ATOM     10  C   UNL     1       0.862  10.255  20.716  0.00  0.00    +0.000 A 
BRANCH   5  11
ATOM     11  C   UNL     1       0.799  12.813  20.720  0.00  0.00    +0.000 C 
ATOM     12  C   UNL     1       0.330  13.833  21.775  0.00  0.00    +0.000 C 
ATOM     13  F   UNL     1       2.181  12.858  20.738  0.00  0.00    +0.000 F 
BRANCH  11  14
ATOM     14  C   UNL     1       0.357  13.201  19.267  0.00  0.00    +0.000 C 
ATOM     15  F   UNL     1      -0.945  12.854  19.050  0.00  0.00    +0.000 F 
ATOM     16  F   UNL     1       1.076  12.457  18.369  0.00  0.00    +0.000 F 
BRANCH  14  22
ATOM     17  C   UNL     1       2.998  14.839  18.465  0.00  0.00    +0.000 C 
ATOM     18  N   UNL     1       1.674  15.353  18.687  0.00  0.00    +0.000 N 
ATOM     19  C   UNL     1       1.333  16.671  18.583  0.00  0.00    +0.000 A 
ATOM     20  N   UNL     1       0.038  16.801  18.720  0.00  0.00    +0.000 NA
ATOM     21  N   UNL     1      -0.483  15.550  18.929  0.00  0.00    +0.000 NA
ATOM     22  C   UNL     1       0.512  14.676  18.976  0.00  0.00    +0.000 A 
ENDBRANCH  14  22
ENDBRANCH  11  14
ENDBRANCH   5  11
ENDBRANCH   1   9
BRANCH   2  23
ATOM     23  C   UNL     1       2.502   6.407  19.220  0.00  0.00    +0.000 A 
ATOM     24  C   UNL     1       3.474   6.327  18.241  0.00  0.00    +0.000 A 
ATOM     25  C   UNL     1       3.906   5.063  17.918  0.00  0.00    +0.000 A 
ATOM     26  N   UNL     1       3.417   3.971  18.540  0.00  0.00    +0.000 NA
ATOM     27  C   UNL     1       2.480   4.136  19.502  0.00  0.00    +0.000 A 
ATOM     28  N   UNL     1       1.980   5.340  19.861  0.00  0.00    +0.000 NA
BRANCH  27  29
ATOM     29  C   UNL     1       2.016   2.891  20.225  0.00  0.00    +0.000 C 
ATOM     30  C   UNL     1       2.718   2.479  21.506  0.00  0.00    +0.000 C 
ATOM     31  C   UNL     1       1.314   3.001  21.559  0.00  0.00    +0.000 C 
ENDBRANCH  27  29
BRANCH  25  32
ATOM     32  C   UNL     1       4.953   4.859  16.839  0.00  0.00    +0.000 C 
BRANCH  32  33
ATOM     33  N   UNL     1       6.341   4.875  17.332  0.00  0.00    +0.000 NA
ATOM     34  C   UNL     1       7.127   6.013  16.839  0.00  0.00    +0.000 C 
ATOM     35  C   UNL     1       7.594   6.818  18.040  0.00  0.00    +0.000 C 
ATOM     36  C   UNL     1       7.484   5.870  19.208  0.00  0.00    +0.000 C 
ATOM     37  F   UNL     1       8.663   5.212  19.365  0.00  0.00    +0.000 F 
ATOM     38  C   UNL     1       6.395   4.887  18.806  0.00  0.00    +0.000 C 
ENDBRANCH  32  33
ENDBRANCH  25  32
ENDBRANCH   2  23
TORSDOF 8
ENDMDL
MODEL 7
REMARK VINA RESULT:      -8.8      2.317      9.467
REMARK  Name = 
REMARK  10 active torsions:
REMARK  status: ('A' for Active; 'I' for Inactive)
REMARK    1  A    between atoms: C_1  and  N_2
REMARK    2  A    between atoms: C_6  and  C_7
REMARK    3  A    between atoms: C_7  and  C_10
REMARK    4  A    between atoms: C_10  and  C_11
REMARK    5  A    between atoms: C_10  and  C_13
REMARK    6  A    between atoms: C_17  and  N_18
REMARK    7  A    between atoms: C_19  and  C_21
REMARK    8  A    between atoms: C_23  and  C_24
REMARK    9  A    between atoms: C_24  and  N_25
REMARK   10  A    between atoms: C_32  and  C_33
REMARK                            x       y       z     vdW  Elec       q    Type
REMARK                         _______ _______ _______ _____ _____    ______ ____
ROOT
ATOM      1  N   UNL     1       1.210   9.015  19.090  0.00  0.00    +0.000 N 
ATOM      2  C   UNL     1       2.127   8.464  18.192  0.00  0.00    +0.000 C 
ATOM      3  O   UNL     1       2.547   9.004  17.176  0.00  0.00    +0.000 OA
ATOM      4  H   UNL     1       1.006   8.443  19.900  0.00  0.00    +0.000 HD
ENDROOT
BRANCH   1   9
ATOM      5  C   UNL     1       0.333  12.642  19.408  0.00  0.00    +0.000 A 
ATOM      6  C   UNL     1      -0.955  12.654  18.853  0.00  0.00    +0.000 A 
ATOM      7  C   UNL     1      -1.511  11.482  18.338  0.00  0.00    +0.000 A 
ATOM      8  C   UNL     1      -0.802  10.281  18.382  0.00  0.00    +0.000 A 
ATOM      9  C   UNL     1       0.486  10.224  18.922  0.00  0.00    +0.000 A 
ATOM     10  C   UNL     1       1.057  11.420  19.395  0.00  0.00    +0.000 A 
BRANCH   5  11
ATOM     11  C   UNL     1       0.868  13.827  20.243  0.00  0.00    +0.000 C 
ATOM     12  C   UNL     1       2.316  13.435  20.594  0.00  0.00    +0.000 C 
ATOM     13  F   UNL     1       0.963  14.958  19.453  0.00  0.00    +0.000 F 
BRANCH  11  14
ATOM     14  C   UNL     1       0.029  14.231  21.504  0.00  0.00    +0.000 C 
ATOM     15  F   UNL     1      -0.910  15.166  21.179  0.00  0.00    +0.000 F 
ATOM     16  F   UNL     1       0.851  14.853  22.405  0.00  0.00    +0.000 F 
BRANCH  14  22
ATOM     17  C   UNL     1      -3.115  13.638  21.759  0.00  0.00    +0.000 C 
ATOM     18  N   UNL     1      -2.025  12.862  22.286  0.00  0.00    +0.000 N 
ATOM     19  C   UNL     1      -2.176  11.709  23.000  0.00  0.00    +0.000 A 
ATOM     20  N   UNL     1      -1.002  11.177  23.229  0.00  0.00    +0.000 NA
ATOM     21  N   UNL     1      -0.060  11.998  22.664  0.00  0.00    +0.000 NA
ATOM     22  C   UNL     1      -0.670  13.056  22.149  0.00  0.00    +0.000 A 
ENDBRANCH  14  22
ENDBRANCH  11  14
ENDBRANCH   5  11
ENDBRANCH   1   9
BRANCH   2  23
ATOM     23  C   UNL     1       2.606   7.076  18.512  0.00  0.00    +0.000 A 
ATOM     24  C   UNL     1       3.545   6.506  17.675  0.00  0.00    +0.000 A 
ATOM     25  C   UNL     1       3.926   5.220  17.977  0.00  0.00    +0.000 A 
ATOM     26  N   UNL     1       3.419   4.568  19.043  0.00  0.00    +0.000 NA
ATOM     27  C   UNL     1       2.518   5.203  19.825  0.00  0.00    +0.000 A 
ATOM     28  N   UNL     1       2.068   6.455  19.584  0.00  0.00    +0.000 NA
BRANCH  27  29
ATOM     29  C   UNL     1       2.034   4.462  21.052  0.00  0.00    +0.000 C 
ATOM     30  C   UNL     1       1.077   3.297  20.879  0.00  0.00    +0.000 C 
ATOM     31  C   UNL     1       2.487   3.046  21.317  0.00  0.00    +0.000 C 
ENDBRANCH  27  29
BRANCH  25  32
ATOM     32  C   UNL     1       4.934   4.491  17.108  0.00  0.00    +0.000 C 
BRANCH  32  33
ATOM     33  N   UNL     1       6.329   4.624  17.559  0.00  0.00    +0.000 NA
ATOM     34  C   UNL     1       7.070   5.690  16.873  0.00  0.00    +0.000 C 
ATOM     35  C   UNL     1       7.535   6.689  17.920  0.00  0.00    +0.000 C 
ATOM     36  C   UNL     1       7.476   5.936  19.226  0.00  0.00    +0.000 C 
ATOM     37  F   UNL     1       8.679   5.345  19.457  0.00  0.00    +0.000 F 
ATOM     38  C   UNL     1       6.412   4.872  19.011  0.00  0.00    +0.000 C 
ENDBRANCH  32  33
ENDBRANCH  25  32
ENDBRANCH   2  23
TORSDOF 8
ENDMDL
MODEL 8
REMARK VINA RESULT:      -8.8      4.350     10.179
REMARK  Name = 
REMARK  10 active torsions:
REMARK  status: ('A' for Active; 'I' for Inactive)
REMARK    1  A    between atoms: C_1  and  N_2
REMARK    2  A    between atoms: C_6  and  C_7
REMARK    3  A    between atoms: C_7  and  C_10
REMARK    4  A    between atoms: C_10  and  C_11
REMARK    5  A    between atoms: C_10  and  C_13
REMARK    6  A    between atoms: C_17  and  N_18
REMARK    7  A    between atoms: C_19  and  C_21
REMARK    8  A    between atoms: C_23  and  C_24
REMARK    9  A    between atoms: C_24  and  N_25
REMARK   10  A    between atoms: C_32  and  C_33
REMARK                            x       y       z     vdW  Elec       q    Type
REMARK                         _______ _______ _______ _____ _____    ______ ____
ROOT
ATOM      1  N   UNL     1       1.054   9.011  19.114  0.00  0.00    +0.000 N 
ATOM      2  C   UNL     1       2.015   8.524  18.225  0.00  0.00    +0.000 C 
ATOM      3  O   UNL     1       2.432   9.107  17.232  0.00  0.00    +0.000 OA
ATOM      4  H   UNL     1       0.858   8.411  19.905  0.00  0.00    +0.000 HD
ENDROOT
BRANCH   1   9
ATOM      5  C   UNL     1      -1.925  11.177  18.437  0.00  0.00    +0.000 A 
ATOM      6  C   UNL     1      -1.329  12.446  18.402  0.00  0.00    +0.000 A 
ATOM      7  C   UNL     1       0.038  12.589  18.645  0.00  0.00    +0.000 A 
ATOM      8  C   UNL     1       0.832  11.473  18.909  0.00  0.00    +0.000 A 
ATOM      9  C   UNL     1       0.279  10.190  18.957  0.00  0.00    +0.000 A 
ATOM     10  C   UNL     1      -1.108  10.062  18.758  0.00  0.00    +0.000 A 
BRANCH   5  11
ATOM     11  C   UNL     1      -3.352  10.936  17.895  0.00  0.00    +0.000 C 
ATOM     12  C   UNL     1      -3.212  11.046  16.364  0.00  0.00    +0.000 C 
ATOM     13  F   UNL     1      -3.740   9.632  18.147  0.00  0.00    +0.000 F 
BRANCH  11  14
ATOM     14  C   UNL     1      -4.484  11.858  18.465  0.00  0.00    +0.000 C 
ATOM     15  F   UNL     1      -4.946  12.707  17.501  0.00  0.00    +0.000 F 
ATOM     16  F   UNL     1      -3.952  12.673  19.429  0.00  0.00    +0.000 F 
BRANCH  14  22
ATOM     17  C   UNL     1      -6.200  12.399  21.124  0.00  0.00    +0.000 C 
ATOM     18  N   UNL     1      -6.335  11.313  20.192  0.00  0.00    +0.000 N 
ATOM     19  C   UNL     1      -7.255  10.311  20.307  0.00  0.00    +0.000 A 
ATOM     20  N   UNL     1      -7.209   9.549  19.243  0.00  0.00    +0.000 NA
ATOM     21  N   UNL     1      -6.236  10.051  18.418  0.00  0.00    +0.000 NA
ATOM     22  C   UNL     1      -5.657  11.081  19.018  0.00  0.00    +0.000 A 
ENDBRANCH  14  22
ENDBRANCH  11  14
ENDBRANCH   5  11
ENDBRANCH   1   9
BRANCH   2  23
ATOM     23  C   UNL     1       2.550   7.152  18.524  0.00  0.00    +0.000 A 
ATOM     24  C   UNL     1       3.486   6.619  17.659  0.00  0.00    +0.000 A 
ATOM     25  C   UNL     1       3.919   5.346  17.943  0.00  0.00    +0.000 A 
ATOM     26  N   UNL     1       3.463   4.671  19.017  0.00  0.00    +0.000 NA
ATOM     27  C   UNL     1       2.561   5.270  19.827  0.00  0.00    +0.000 A 
ATOM     28  N   UNL     1       2.062   6.507  19.605  0.00  0.00    +0.000 NA
BRANCH  27  29
ATOM     29  C   UNL     1       2.135   4.507  21.061  0.00  0.00    +0.000 C 
ATOM     30  C   UNL     1       1.165   3.349  20.912  0.00  0.00    +0.000 C 
ATOM     31  C   UNL     1       2.594   3.083  21.275  0.00  0.00    +0.000 C 
ENDBRANCH  27  29
BRANCH  25  32
ATOM     32  C   UNL     1       4.928   4.657  17.044  0.00  0.00    +0.000 C 
BRANCH  32  33
ATOM     33  N   UNL     1       6.320   4.746  17.517  0.00  0.00    +0.000 NA
ATOM     34  C   UNL     1       7.098   5.806  16.863  0.00  0.00    +0.000 C 
ATOM     35  C   UNL     1       7.572   6.772  17.936  0.00  0.00    +0.000 C 
ATOM     36  C   UNL     1       7.475   5.997  19.225  0.00  0.00    +0.000 C 
ATOM     37  F   UNL     1       8.658   5.371  19.463  0.00  0.00    +0.000 F 
ATOM     38  C   UNL     1       6.387   4.965  18.975  0.00  0.00    +0.000 C 
ENDBRANCH  32  33
ENDBRANCH  25  32
ENDBRANCH   2  23
TORSDOF 8
ENDMDL
MODEL 9
REMARK VINA RESULT:      -8.8      3.317     10.366
REMARK  Name = 
REMARK  10 active torsions:
REMARK  status: ('A' for Active; 'I' for Inactive)
REMARK    1  A    between atoms: C_1  and  N_2
REMARK    2  A    between atoms: C_6  and  C_7
REMARK    3  A    between atoms: C_7  and  C_10
REMARK    4  A    between atoms: C_10  and  C_11
REMARK    5  A    between atoms: C_10  and  C_13
REMARK    6  A    between atoms: C_17  and  N_18
REMARK    7  A    between atoms: C_19  and  C_21
REMARK    8  A    between atoms: C_23  and  C_24
REMARK    9  A    between atoms: C_24  and  N_25
REMARK   10  A    between atoms: C_32  and  C_33
REMARK                            x       y       z     vdW  Elec       q    Type
REMARK                         _______ _______ _______ _____ _____    ______ ____
ROOT
ATOM      1  N   UNL     1       0.956   8.982  19.359  0.00  0.00    +0.000 N 
ATOM      2  C   UNL     1       1.924   8.537  18.456  0.00  0.00    +0.000 C 
ATOM      3  O   UNL     1       2.262   9.111  17.428  0.00  0.00    +0.000 OA
ATOM      4  H   UNL     1       0.834   8.400  20.178  0.00  0.00    +0.000 HD
ENDROOT
BRANCH   1   9
ATOM      5  C   UNL     1      -0.759  12.232  20.082  0.00  0.00    +0.000 A 
ATOM      6  C   UNL     1      -1.744  12.240  19.084  0.00  0.00    +0.000 A 
ATOM      7  C   UNL     1      -1.812  11.203  18.152  0.00  0.00    +0.000 A 
ATOM      8  C   UNL     1      -0.914  10.137  18.210  0.00  0.00    +0.000 A 
ATOM      9  C   UNL     1       0.086  10.089  19.186  0.00  0.00    +0.000 A 
ATOM     10  C   UNL     1       0.177  11.163  20.090  0.00  0.00    +0.000 A 
BRANCH   5  11
ATOM     11  C   UNL     1      -0.823  13.188  21.294  0.00  0.00    +0.000 C 
ATOM     12  C   UNL     1       0.635  13.638  21.513  0.00  0.00    +0.000 C 
ATOM     13  F   UNL     1      -1.525  14.331  20.958  0.00  0.00    +0.000 F 
BRANCH  11  14
ATOM     14  C   UNL     1      -1.483  12.623  22.599  0.00  0.00    +0.000 C 
ATOM     15  F   UNL     1      -0.669  11.703  23.192  0.00  0.00    +0.000 F 
ATOM     16  F   UNL     1      -2.614  11.930  22.261  0.00  0.00    +0.000 F 
BRANCH  14  22
ATOM     17  C   UNL     1      -4.233  13.179  24.159  0.00  0.00    +0.000 C 
ATOM     18  N   UNL     1      -3.014  13.939  24.221  0.00  0.00    +0.000 N 
ATOM     19  C   UNL     1      -2.841  15.054  24.988  0.00  0.00    +0.000 A 
ATOM     20  N   UNL     1      -1.592  15.441  24.924  0.00  0.00    +0.000 NA
ATOM     21  N   UNL     1      -0.933  14.573  24.094  0.00  0.00    +0.000 NA
ATOM     22  C   UNL     1      -1.804  13.699  23.611  0.00  0.00    +0.000 A 
ENDBRANCH  14  22
ENDBRANCH  11  14
ENDBRANCH   5  11
ENDBRANCH   1   9
BRANCH   2  23
ATOM     23  C   UNL     1       2.576   7.223  18.786  0.00  0.00    +0.000 A 
ATOM     24  C   UNL     1       3.677   6.842  18.045  0.00  0.00    +0.000 A 
ATOM     25  C   UNL     1       4.218   5.616  18.349  0.00  0.00    +0.000 A 
ATOM     26  N   UNL     1       3.706   4.845  19.329  0.00  0.00    +0.000 NA
ATOM     27  C   UNL     1       2.637   5.298  20.022  0.00  0.00    +0.000 A 
ATOM     28  N   UNL     1       2.028   6.478  19.769  0.00  0.00    +0.000 NA
BRANCH  27  29
ATOM     29  C   UNL     1       2.144   4.435  21.162  0.00  0.00    +0.000 C 
ATOM     30  C   UNL     1       1.149   3.327  20.870  0.00  0.00    +0.000 C 
ATOM     31  C   UNL     1       2.556   2.984  21.255  0.00  0.00    +0.000 C 
ENDBRANCH  27  29
BRANCH  25  32
ATOM     32  C   UNL     1       5.415   5.090  17.580  0.00  0.00    +0.000 C 
BRANCH  32  33
ATOM     33  N   UNL     1       5.195   4.962  16.130  0.00  0.00    +0.000 NA
ATOM     34  C   UNL     1       5.962   5.926  15.330  0.00  0.00    +0.000 C 
ATOM     35  C   UNL     1       6.871   5.144  14.396  0.00  0.00    +0.000 C 
ATOM     36  C   UNL     1       6.265   3.765  14.331  0.00  0.00    +0.000 C 
ATOM     37  F   UNL     1       5.386   3.710  13.295  0.00  0.00    +0.000 F 
ATOM     38  C   UNL     1       5.521   3.607  15.647  0.00  0.00    +0.000 C 
ENDBRANCH  32  33
ENDBRANCH  25  32
ENDBRANCH   2  23
TORSDOF 8
ENDMDL
