MODEL 1
REMARK VINA RESULT:      -9.2      0.000      0.000
REMARK  Name = 
REMARK  6 active torsions:
REMARK  status: ('A' for Active; 'I' for Inactive)
REMARK    1  A    between atoms: C_1  and  N_2
REMARK    2  A    between atoms: C_6  and  C_7
REMARK    3  A    between atoms: C_7  and  C_10
REMARK    4  A    between atoms: C_10  and  C_11
REMARK    5  A    between atoms: C_10  and  C_13
REMARK    6  A    between atoms: C_17  and  N_18
REMARK                            x       y       z     vdW  Elec       q    Type
REMARK                         _______ _______ _______ _____ _____    ______ ____
ROOT
ATOM      1  C   UNL     1       4.402   5.257  17.048  0.00  0.00    +0.000 A 
ATOM      2  C   UNL     1       3.935   3.998  17.459  0.00  0.00    +0.000 A 
ATOM      3  C   UNL     1       2.883   3.891  18.371  0.00  0.00    +0.000 A 
ATOM      4  C   UNL     1       2.266   5.034  18.884  0.00  0.00    +0.000 A 
ATOM      5  C   UNL     1       2.713   6.301  18.518  0.00  0.00    +0.000 A 
ATOM      6  C   UNL     1       3.792   6.402  17.616  0.00  0.00    +0.000 A 
ENDROOT
BRANCH   5   7
ATOM      7  N   UNL     1       2.100   7.497  18.952  0.00  0.00    +0.000 N 
ATOM      8  C   UNL     1       2.012   8.714  18.310  0.00  0.00    +0.000 C 
ATOM      9  O   UNL     1       2.398   8.917  17.158  0.00  0.00    +0.000 OA
ATOM     10  N   UNL     1       1.471   9.763  19.064  0.00  0.00    +0.000 N 
ATOM     11  C   UNL     1       1.342  11.076  18.430  0.00  0.00    +0.000 C 
ATOM     12  C   UNL     1       1.498  12.197  19.446  0.00  0.00    +0.000 C 
ATOM     13  O   UNL     1       0.517  12.099  20.483  0.00  0.00    +0.000 OA
ATOM     14  C   UNL     1       0.417  10.828  20.991  0.00  0.00    +0.000 A 
ATOM     15  C   UNL     1      -0.230  10.716  22.219  0.00  0.00    +0.000 A 
ATOM     16  C   UNL     1      -0.375   9.466  22.804  0.00  0.00    +0.000 A 
ATOM     17  C   UNL     1       0.143   8.371  22.135  0.00  0.00    +0.000 A 
ATOM     18  N   UNL     1       0.771   8.445  20.941  0.00  0.00    +0.000 NA
ATOM     19  C   UNL     1       0.889   9.665  20.359  0.00  0.00    +0.000 A 
ATOM     20  H   UNL     1       1.648   7.479  19.863  0.00  0.00    +0.000 HD
ENDBRANCH   5   7
BRANCH   1  21
ATOM     21  C   UNL     1       5.373   5.410  15.854  0.00  0.00    +0.000 C 
ATOM     22  C   UNL     1       4.751   4.573  14.720  0.00  0.00    +0.000 C 
ATOM     23  F   UNL     1       5.371   6.717  15.402  0.00  0.00    +0.000 F 
BRANCH  21  24
ATOM     24  C   UNL     1       6.871   5.031  16.131  0.00  0.00    +0.000 C 
ATOM     25  F   UNL     1       7.697   5.661  15.246  0.00  0.00    +0.000 F 
ATOM     26  F   UNL     1       7.044   3.695  15.884  0.00  0.00    +0.000 F 
BRANCH  24  32
ATOM     27  C   UNL     1       7.542   7.903  17.394  0.00  0.00    +0.000 C 
ATOM     28  N   UNL     1       7.653   6.613  18.022  0.00  0.00    +0.000 N 
ATOM     29  C   UNL     1       8.072   6.420  19.306  0.00  0.00    +0.000 A 
ATOM     30  N   UNL     1       7.933   5.157  19.627  0.00  0.00    +0.000 NA
ATOM     31  N   UNL     1       7.432   4.510  18.531  0.00  0.00    +0.000 NA
ATOM     32  C   UNL     1       7.325   5.371  17.530  0.00  0.00    +0.000 A 
ENDBRANCH  24  32
ENDBRANCH  21  24
ENDBRANCH   1  21
TORSDOF 4
ENDMDL
MODEL 2
REMARK VINA RESULT:      -8.9      0.884      1.337
REMARK  Name = 
REMARK  6 active torsions:
REMARK  status: ('A' for Active; 'I' for Inactive)
REMARK    1  A    between atoms: C_1  and  N_2
REMARK    2  A    between atoms: C_6  and  C_7
REMARK    3  A    between atoms: C_7  and  C_10
REMARK    4  A    between atoms: C_10  and  C_11
REMARK    5  A    between atoms: C_10  and  C_13
REMARK    6  A    between atoms: C_17  and  N_18
REMARK                            x       y       z     vdW  Elec       q    Type
REMARK                         _______ _______ _______ _____ _____    ______ ____
ROOT
ATOM      1  C   UNL     1       4.443   5.388  17.738  0.00  0.00    +0.000 A 
ATOM      2  C   UNL     1       4.223   4.208  18.466  0.00  0.00    +0.000 A 
ATOM      3  C   UNL     1       3.313   4.183  19.525  0.00  0.00    +0.000 A 
ATOM      4  C   UNL     1       2.596   5.329  19.874  0.00  0.00    +0.000 A 
ATOM      5  C   UNL     1       2.801   6.524  19.192  0.00  0.00    +0.000 A 
ATOM      6  C   UNL     1       3.740   6.549  18.140  0.00  0.00    +0.000 A 
ENDROOT
BRANCH   5   7
ATOM      7  N   UNL     1       2.070   7.704  19.453  0.00  0.00    +0.000 N 
ATOM      8  C   UNL     1       1.837   8.786  18.631  0.00  0.00    +0.000 C 
ATOM      9  O   UNL     1       2.176   8.839  17.448  0.00  0.00    +0.000 OA
ATOM     10  N   UNL     1       1.201   9.881  19.229  0.00  0.00    +0.000 N 
ATOM     11  C   UNL     1       0.918  11.053  18.400  0.00  0.00    +0.000 C 
ATOM     12  C   UNL     1       0.971  12.334  19.220  0.00  0.00    +0.000 C 
ATOM     13  O   UNL     1       0.026  12.303  20.294  0.00  0.00    +0.000 OA
ATOM     14  C   UNL     1       0.075  11.127  21.000  0.00  0.00    +0.000 A 
ATOM     15  C   UNL     1      -0.531  11.147  22.253  0.00  0.00    +0.000 A 
ATOM     16  C   UNL     1      -0.528  10.000  23.035  0.00  0.00    +0.000 A 
ATOM     17  C   UNL     1       0.093   8.872  22.528  0.00  0.00    +0.000 A 
ATOM     18  N   UNL     1       0.686   8.817  21.315  0.00  0.00    +0.000 NA
ATOM     19  C   UNL     1       0.659   9.933  20.543  0.00  0.00    +0.000 A 
ATOM     20  H   UNL     1       1.641   7.786  20.372  0.00  0.00    +0.000 HD
ENDBRANCH   5   7
BRANCH   1  21
ATOM     21  C   UNL     1       5.234   5.383  16.409  0.00  0.00    +0.000 C 
ATOM     22  C   UNL     1       4.661   4.201  15.604  0.00  0.00    +0.000 C 
ATOM     23  F   UNL     1       4.939   6.517  15.675  0.00  0.00    +0.000 F 
BRANCH  21  24
ATOM     24  C   UNL     1       6.798   5.324  16.537  0.00  0.00    +0.000 C 
ATOM     25  F   UNL     1       7.379   5.258  15.304  0.00  0.00    +0.000 F 
ATOM     26  F   UNL     1       7.148   4.153  17.155  0.00  0.00    +0.000 F 
BRANCH  24  32
ATOM     27  C   UNL     1       8.059   5.441  19.485  0.00  0.00    +0.000 C 
ATOM     28  N   UNL     1       7.869   6.528  18.561  0.00  0.00    +0.000 N 
ATOM     29  C   UNL     1       8.221   7.821  18.816  0.00  0.00    +0.000 A 
ATOM     30  N   UNL     1       8.050   8.543  17.736  0.00  0.00    +0.000 NA
ATOM     31  N   UNL     1       7.563   7.713  16.764  0.00  0.00    +0.000 NA
ATOM     32  C   UNL     1       7.383   6.505  17.275  0.00  0.00    +0.000 A 
ENDBRANCH  24  32
ENDBRANCH  21  24
ENDBRANCH   1  21
TORSDOF 4
ENDMDL
MODEL 3
REMARK VINA RESULT:      -8.9      1.710      2.737
REMARK  Name = 
REMARK  6 active torsions:
REMARK  status: ('A' for Active; 'I' for Inactive)
REMARK    1  A    between atoms: C_1  and  N_2
REMARK    2  A    between atoms: C_6  and  C_7
REMARK    3  A    between atoms: C_7  and  C_10
REMARK    4  A    between atoms: C_10  and  C_11
REMARK    5  A    between atoms: C_10  and  C_13
REMARK    6  A    between atoms: C_17  and  N_18
REMARK                            x       y       z     vdW  Elec       q    Type
REMARK                         _______ _______ _______ _____ _____    ______ ____
ROOT
ATOM      1  C   UNL     1       5.276   5.082  19.112  0.00  0.00    +0.000 A 
ATOM      2  C   UNL     1       4.742   3.811  19.376  0.00  0.00    +0.000 A 
ATOM      3  C   UNL     1       3.418   3.667  19.798  0.00  0.00    +0.000 A 
ATOM      4  C   UNL     1       2.595   4.784  19.954  0.00  0.00    +0.000 A 
ATOM      5  C   UNL     1       3.093   6.064  19.723  0.00  0.00    +0.000 A 
ATOM      6  C   UNL     1       4.437   6.204  19.323  0.00  0.00    +0.000 A 
ENDROOT
BRANCH   5   7
ATOM      7  N   UNL     1       2.302   7.231  19.806  0.00  0.00    +0.000 N 
ATOM      8  C   UNL     1       2.019   8.163  18.831  0.00  0.00    +0.000 C 
ATOM      9  O   UNL     1       2.360   8.055  17.652  0.00  0.00    +0.000 OA
ATOM     10  N   UNL     1       1.326   9.303  19.259  0.00  0.00    +0.000 N 
ATOM     11  C   UNL     1       0.988  10.321  18.264  0.00  0.00    +0.000 C 
ATOM     12  C   UNL     1       0.973  11.712  18.880  0.00  0.00    +0.000 C 
ATOM     13  O   UNL     1       0.027  11.796  19.950  0.00  0.00    +0.000 OA
ATOM     14  C   UNL     1       0.131  10.744  20.825  0.00  0.00    +0.000 A 
ATOM     15  C   UNL     1      -0.481  10.923  22.063  0.00  0.00    +0.000 A 
ATOM     16  C   UNL     1      -0.423   9.908  23.008  0.00  0.00    +0.000 A 
ATOM     17  C   UNL     1       0.256   8.749  22.676  0.00  0.00    +0.000 A 
ATOM     18  N   UNL     1       0.856   8.541  21.483  0.00  0.00    +0.000 NA
ATOM     19  C   UNL     1       0.776   9.525  20.552  0.00  0.00    +0.000 A 
ATOM     20  H   UNL     1       1.866   7.429  20.703  0.00  0.00    +0.000 HD
ENDBRANCH   5   7
BRANCH   1  21
ATOM     21  C   UNL     1       6.636   5.257  18.398  0.00  0.00    +0.000 C 
ATOM     22  C   UNL     1       7.606   5.743  19.492  0.00  0.00    +0.000 C 
ATOM     23  F   UNL     1       7.119   4.028  17.986  0.00  0.00    +0.000 F 
BRANCH  21  24
ATOM     24  C   UNL     1       6.637   6.188  17.134  0.00  0.00    +0.000 C 
ATOM     25  F   UNL     1       7.729   7.007  17.142  0.00  0.00    +0.000 F 
ATOM     26  F   UNL     1       5.562   7.033  17.206  0.00  0.00    +0.000 F 
BRANCH  24  32
ATOM     27  C   UNL     1       4.362   4.266  15.941  0.00  0.00    +0.000 C 
ATOM     28  N   UNL     1       5.649   4.570  15.374  0.00  0.00    +0.000 N 
ATOM     29  C   UNL     1       6.103   4.066  14.190  0.00  0.00    +0.000 A 
ATOM     30  N   UNL     1       7.243   4.634  13.881  0.00  0.00    +0.000 NA
ATOM     31  N   UNL     1       7.548   5.511  14.886  0.00  0.00    +0.000 NA
ATOM     32  C   UNL     1       6.623   5.427  15.830  0.00  0.00    +0.000 A 
ENDBRANCH  24  32
ENDBRANCH  21  24
ENDBRANCH   1  21
TORSDOF 4
ENDMDL
MODEL 4
REMARK VINA RESULT:      -8.8      1.105      2.190
REMARK  Name = 
REMARK  6 active torsions:
REMARK  status: ('A' for Active; 'I' for Inactive)
REMARK    1  A    between atoms: C_1  and  N_2
REMARK    2  A    between atoms: C_6  and  C_7
REMARK    3  A    between atoms: C_7  and  C_10
REMARK    4  A    between atoms: C_10  and  C_11
REMARK    5  A    between atoms: C_10  and  C_13
REMARK    6  A    between atoms: C_17  and  N_18
REMARK                            x       y       z     vdW  Elec       q    Type
REMARK                         _______ _______ _______ _____ _____    ______ ____
ROOT
ATOM      1  C   UNL     1       4.387   5.043  16.764  0.00  0.00    +0.000 A 
ATOM      2  C   UNL     1       3.729   3.807  16.868  0.00  0.00    +0.000 A 
ATOM      3  C   UNL     1       2.616   3.659  17.698  0.00  0.00    +0.000 A 
ATOM      4  C   UNL     1       2.128   4.740  18.434  0.00  0.00    +0.000 A 
ATOM      5  C   UNL     1       2.765   5.977  18.376  0.00  0.00    +0.000 A 
ATOM      6  C   UNL     1       3.903   6.113  17.555  0.00  0.00    +0.000 A 
ENDROOT
BRANCH   5   7
ATOM      7  N   UNL     1       2.292   7.126  19.048  0.00  0.00    +0.000 N 
ATOM      8  C   UNL     1       1.801   7.246  20.330  0.00  0.00    +0.000 C 
ATOM      9  O   UNL     1       1.788   6.330  21.153  0.00  0.00    +0.000 OA
ATOM     10  N   UNL     1       1.262   8.496  20.662  0.00  0.00    +0.000 N 
ATOM     11  C   UNL     1       0.736   8.685  22.015  0.00  0.00    +0.000 C 
ATOM     12  C   UNL     1      -0.422   9.671  22.023  0.00  0.00    +0.000 C 
ATOM     13  O   UNL     1      -0.021  10.947  21.514  0.00  0.00    +0.000 OA
ATOM     14  C   UNL     1       0.681  10.844  20.340  0.00  0.00    +0.000 A 
ATOM     15  C   UNL     1       0.793  12.016  19.596  0.00  0.00    +0.000 A 
ATOM     16  C   UNL     1       1.487  12.002  18.395  0.00  0.00    +0.000 A 
ATOM     17  C   UNL     1       2.041  10.803  17.980  0.00  0.00    +0.000 A 
ATOM     18  N   UNL     1       1.956   9.650  18.678  0.00  0.00    +0.000 NA
ATOM     19  C   UNL     1       1.298   9.674  19.865  0.00  0.00    +0.000 A 
ATOM     20  H   UNL     1       2.314   8.003  18.532  0.00  0.00    +0.000 HD
ENDBRANCH   5   7
BRANCH   1  21
ATOM     21  C   UNL     1       5.444   5.308  15.667  0.00  0.00    +0.000 C 
ATOM     22  C   UNL     1       4.939   4.542  14.429  0.00  0.00    +0.000 C 
ATOM     23  F   UNL     1       5.437   6.645  15.311  0.00  0.00    +0.000 F 
BRANCH  21  24
ATOM     24  C   UNL     1       6.927   4.948  16.037  0.00  0.00    +0.000 C 
ATOM     25  F   UNL     1       7.797   5.573  15.191  0.00  0.00    +0.000 F 
ATOM     26  F   UNL     1       7.125   3.610  15.821  0.00  0.00    +0.000 F 
BRANCH  24  32
ATOM     27  C   UNL     1       7.526   7.843  17.283  0.00  0.00    +0.000 C 
ATOM     28  N   UNL     1       7.596   6.565  17.942  0.00  0.00    +0.000 N 
ATOM     29  C   UNL     1       7.936   6.396  19.252  0.00  0.00    +0.000 A 
ATOM     30  N   UNL     1       7.775   5.139  19.587  0.00  0.00    +0.000 NA
ATOM     31  N   UNL     1       7.340   4.472  18.475  0.00  0.00    +0.000 NA
ATOM     32  C   UNL     1       7.296   5.314  17.454  0.00  0.00    +0.000 A 
ENDBRANCH  24  32
ENDBRANCH  21  24
ENDBRANCH   1  21
TORSDOF 4
ENDMDL
MODEL 5
REMARK VINA RESULT:      -8.8      1.874      2.664
REMARK  Name = 
REMARK  6 active torsions:
REMARK  status: ('A' for Active; 'I' for Inactive)
REMARK    1  A    between atoms: C_1  and  N_2
REMARK    2  A    between atoms: C_6  and  C_7
REMARK    3  A    between atoms: C_7  and  C_10
REMARK    4  A    between atoms: C_10  and  C_11
REMARK    5  A    between atoms: C_10  and  C_13
REMARK    6  A    between atoms: C_17  and  N_18
REMARK                            x       y       z     vdW  Elec       q    Type
REMARK                         _______ _______ _______ _____ _____    ______ ____
ROOT
ATOM      1  C   UNL     1       4.484   5.745  17.607  0.00  0.00    +0.000 A 
ATOM      2  C   UNL     1       4.013   4.469  17.956  0.00  0.00    +0.000 A 
ATOM      3  C   UNL     1       2.874   4.322  18.751  0.00  0.00    +0.000 A 
ATOM      4  C   UNL     1       2.175   5.442  19.206  0.00  0.00    +0.000 A 
ATOM      5  C   UNL     1       2.622   6.724  18.900  0.00  0.00    +0.000 A 
ATOM      6  C   UNL     1       3.786   6.866  18.119  0.00  0.00    +0.000 A 
ENDROOT
BRANCH   5   7
ATOM      7  N   UNL     1       1.933   7.898  19.278  0.00  0.00    +0.000 N 
ATOM      8  C   UNL     1       1.732   9.059  18.563  0.00  0.00    +0.000 C 
ATOM      9  O   UNL     1       2.066   9.213  17.388  0.00  0.00    +0.000 OA
ATOM     10  N   UNL     1       1.137  10.114  19.268  0.00  0.00    +0.000 N 
ATOM     11  C   UNL     1       0.888  11.368  18.555  0.00  0.00    +0.000 C 
ATOM     12  C   UNL     1       0.989  12.563  19.491  0.00  0.00    +0.000 C 
ATOM     13  O   UNL     1       0.051  12.462  20.566  0.00  0.00    +0.000 OA
ATOM     14  C   UNL     1       0.064  11.224  21.158  0.00  0.00    +0.000 A 
ATOM     15  C   UNL     1      -0.534  11.147  22.413  0.00  0.00    +0.000 A 
ATOM     16  C   UNL     1      -0.566   9.931  23.083  0.00  0.00    +0.000 A 
ATOM     17  C   UNL     1       0.014   8.836  22.467  0.00  0.00    +0.000 A 
ATOM     18  N   UNL     1       0.598   8.875  21.249  0.00  0.00    +0.000 NA
ATOM     19  C   UNL     1       0.604  10.060  20.585  0.00  0.00    +0.000 A 
ATOM     20  H   UNL     1       1.512   7.907  20.204  0.00  0.00    +0.000 HD
ENDBRANCH   5   7
BRANCH   1  21
ATOM     21  C   UNL     1       5.571   5.938  16.524  0.00  0.00    +0.000 C 
ATOM     22  C   UNL     1       4.924   6.848  15.463  0.00  0.00    +0.000 C 
ATOM     23  F   UNL     1       6.635   6.656  17.039  0.00  0.00    +0.000 F 
BRANCH  21  24
ATOM     24  C   UNL     1       6.171   4.624  15.907  0.00  0.00    +0.000 C 
ATOM     25  F   UNL     1       5.190   3.697  15.707  0.00  0.00    +0.000 F 
ATOM     26  F   UNL     1       7.016   4.052  16.820  0.00  0.00    +0.000 F 
BRANCH  24  32
ATOM     27  C   UNL     1       5.414   3.544  12.983  0.00  0.00    +0.000 C 
ATOM     28  N   UNL     1       6.558   4.328  13.367  0.00  0.00    +0.000 N 
ATOM     29  C   UNL     1       7.525   4.748  12.501  0.00  0.00    +0.000 A 
ATOM     30  N   UNL     1       8.352   5.551  13.124  0.00  0.00    +0.000 NA
ATOM     31  N   UNL     1       7.931   5.644  14.422  0.00  0.00    +0.000 NA
ATOM     32  C   UNL     1       6.885   4.850  14.597  0.00  0.00    +0.000 A 
ENDBRANCH  24  32
ENDBRANCH  21  24
ENDBRANCH   1  21
TORSDOF 4
ENDMDL
MODEL 6
REMARK VINA RESULT:      -8.6      1.345      2.531
REMARK  Name = 
REMARK  6 active torsions:
REMARK  status: ('A' for Active; 'I' for Inactive)
REMARK    1  A    between atoms: C_1  and  N_2
REMARK    2  A    between atoms: C_6  and  C_7
REMARK    3  A    between atoms: C_7  and  C_10
REMARK    4  A    between atoms: C_10  and  C_11
REMARK    5  A    between atoms: C_10  and  C_13
REMARK    6  A    between atoms: C_17  and  N_18
REMARK                            x       y       z     vdW  Elec       q    Type
REMARK                         _______ _______ _______ _____ _____    ______ ____
ROOT
ATOM      1  C   UNL     1       4.233   4.870  17.028  0.00  0.00    +0.000 A 
ATOM      2  C   UNL     1       3.393   3.749  16.939  0.00  0.00    +0.000 A 
ATOM      3  C   UNL     1       2.151   3.735  17.577  0.00  0.00    +0.000 A 
ATOM      4  C   UNL     1       1.715   4.841  18.308  0.00  0.00    +0.000 A 
ATOM      5  C   UNL     1       2.526   5.965  18.439  0.00  0.00    +0.000 A 
ATOM      6  C   UNL     1       3.790   5.962  17.813  0.00  0.00    +0.000 A 
ENDROOT
BRANCH   5   7
ATOM      7  N   UNL     1       2.125   7.138  19.115  0.00  0.00    +0.000 N 
ATOM      8  C   UNL     1       1.690   7.291  20.414  0.00  0.00    +0.000 C 
ATOM      9  O   UNL     1       1.675   6.385  21.248  0.00  0.00    +0.000 OA
ATOM     10  N   UNL     1       1.213   8.564  20.752  0.00  0.00    +0.000 N 
ATOM     11  C   UNL     1       0.749   8.787  22.122  0.00  0.00    +0.000 C 
ATOM     12  C   UNL     1      -0.369   9.818  22.163  0.00  0.00    +0.000 C 
ATOM     13  O   UNL     1       0.059  11.072  21.623  0.00  0.00    +0.000 OA
ATOM     14  C   UNL     1       0.710  10.930  20.423  0.00  0.00    +0.000 A 
ATOM     15  C   UNL     1       0.836  12.088  19.662  0.00  0.00    +0.000 A 
ATOM     16  C   UNL     1       1.481  12.034  18.434  0.00  0.00    +0.000 A 
ATOM     17  C   UNL     1       1.972  10.811  18.013  0.00  0.00    +0.000 A 
ATOM     18  N   UNL     1       1.871   9.669  18.728  0.00  0.00    +0.000 NA
ATOM     19  C   UNL     1       1.262   9.731  19.940  0.00  0.00    +0.000 A 
ATOM     20  H   UNL     1       2.160   8.007  18.588  0.00  0.00    +0.000 HD
ENDBRANCH   5   7
BRANCH   1  21
ATOM     21  C   UNL     1       5.481   5.022  16.127  0.00  0.00    +0.000 C 
ATOM     22  C   UNL     1       5.293   3.985  15.003  0.00  0.00    +0.000 C 
ATOM     23  F   UNL     1       5.473   6.257  15.505  0.00  0.00    +0.000 F 
BRANCH  21  24
ATOM     24  C   UNL     1       6.871   4.888  16.846  0.00  0.00    +0.000 C 
ATOM     25  F   UNL     1       7.791   4.325  16.010  0.00  0.00    +0.000 F 
ATOM     26  F   UNL     1       6.749   4.004  17.884  0.00  0.00    +0.000 F 
BRANCH  24  32
ATOM     27  C   UNL     1       7.992   5.652  19.753  0.00  0.00    +0.000 C 
ATOM     28  N   UNL     1       7.845   6.511  18.608  0.00  0.00    +0.000 N 
ATOM     29  C   UNL     1       8.184   7.833  18.594  0.00  0.00    +0.000 A 
ATOM     30  N   UNL     1       8.064   8.303  17.377  0.00  0.00    +0.000 NA
ATOM     31  N   UNL     1       7.623   7.278  16.585  0.00  0.00    +0.000 NA
ATOM     32  C   UNL     1       7.419   6.206  17.336  0.00  0.00    +0.000 A 
ENDBRANCH  24  32
ENDBRANCH  21  24
ENDBRANCH   1  21
TORSDOF 4
ENDMDL
MODEL 7
REMARK VINA RESULT:      -8.5      1.492      1.957
REMARK  Name = 
REMARK  6 active torsions:
REMARK  status: ('A' for Active; 'I' for Inactive)
REMARK    1  A    between atoms: C_1  and  N_2
REMARK    2  A    between atoms: C_6  and  C_7
REMARK    3  A    between atoms: C_7  and  C_10
REMARK    4  A    between atoms: C_10  and  C_11
REMARK    5  A    between atoms: C_10  and  C_13
REMARK    6  A    between atoms: C_17  and  N_18
REMARK                            x       y       z     vdW  Elec       q    Type
REMARK                         _______ _______ _______ _____ _____    ______ ____
ROOT
ATOM      1  C   UNL     1       3.266   4.035  18.850  0.00  0.00    +0.000 A 
ATOM      2  C   UNL     1       3.110   3.215  19.979  0.00  0.00    +0.000 A 
ATOM      3  C   UNL     1       2.517   3.709  21.142  0.00  0.00    +0.000 A 
ATOM      4  C   UNL     1       2.058   5.026  21.203  0.00  0.00    +0.000 A 
ATOM      5  C   UNL     1       2.214   5.878  20.114  0.00  0.00    +0.000 A 
ATOM      6  C   UNL     1       2.836   5.380  18.950  0.00  0.00    +0.000 A 
ENDROOT
BRANCH   5   7
ATOM      7  N   UNL     1       1.722   7.202  20.086  0.00  0.00    +0.000 N 
ATOM      8  C   UNL     1       1.820   8.147  19.087  0.00  0.00    +0.000 C 
ATOM      9  O   UNL     1       2.299   7.929  17.973  0.00  0.00    +0.000 OA
ATOM     10  N   UNL     1       1.363   9.431  19.415  0.00  0.00    +0.000 N 
ATOM     11  C   UNL     1       1.432  10.472  18.389  0.00  0.00    +0.000 C 
ATOM     12  C   UNL     1       1.658  11.843  19.009  0.00  0.00    +0.000 C 
ATOM     13  O   UNL     1       0.609  12.179  19.923  0.00  0.00    +0.000 OA
ATOM     14  C   UNL     1       0.326  11.157  20.794  0.00  0.00    +0.000 A 
ATOM     15  C   UNL     1      -0.405  11.510  21.925  0.00  0.00    +0.000 A 
ATOM     16  C   UNL     1      -0.735  10.537  22.858  0.00  0.00    +0.000 A 
ATOM     17  C   UNL     1      -0.310   9.241  22.623  0.00  0.00    +0.000 A 
ATOM     18  N   UNL     1       0.395   8.864  21.534  0.00  0.00    +0.000 NA
ATOM     19  C   UNL     1       0.694   9.813  20.610  0.00  0.00    +0.000 A 
ATOM     20  H   UNL     1       1.216   7.523  20.907  0.00  0.00    +0.000 HD
ENDBRANCH   5   7
BRANCH   1  21
ATOM     21  C   UNL     1       3.670   3.453  17.475  0.00  0.00    +0.000 C 
ATOM     22  C   UNL     1       3.925   1.955  17.732  0.00  0.00    +0.000 C 
ATOM     23  F   UNL     1       2.599   3.508  16.602  0.00  0.00    +0.000 F 
BRANCH  21  24
ATOM     24  C   UNL     1       4.875   4.156  16.755  0.00  0.00    +0.000 C 
ATOM     25  F   UNL     1       4.427   5.135  15.915  0.00  0.00    +0.000 F 
ATOM     26  F   UNL     1       5.495   3.248  15.939  0.00  0.00    +0.000 F 
BRANCH  24  32
ATOM     27  C   UNL     1       5.855   7.203  16.971  0.00  0.00    +0.000 C 
ATOM     28  N   UNL     1       6.303   6.074  17.742  0.00  0.00    +0.000 N 
ATOM     29  C   UNL     1       7.246   6.143  18.725  0.00  0.00    +0.000 A 
ATOM     30  N   UNL     1       7.335   4.984  19.330  0.00  0.00    +0.000 NA
ATOM     31  N   UNL     1       6.448   4.138  18.722  0.00  0.00    +0.000 NA
ATOM     32  C   UNL     1       5.868   4.769  17.712  0.00  0.00    +0.000 A 
ENDBRANCH  24  32
ENDBRANCH  21  24
ENDBRANCH   1  21
TORSDOF 4
ENDMDL
MODEL 8
REMARK VINA RESULT:      -8.5      1.498      2.023
REMARK  Name = 
REMARK  6 active torsions:
REMARK  status: ('A' for Active; 'I' for Inactive)
REMARK    1  A    between atoms: C_1  and  N_2
REMARK    2  A    between atoms: C_6  and  C_7
REMARK    3  A    between atoms: C_7  and  C_10
REMARK    4  A    between atoms: C_10  and  C_11
REMARK    5  A    between atoms: C_10  and  C_13
REMARK    6  A    between atoms: C_17  and  N_18
REMARK                            x       y       z     vdW  Elec       q    Type
REMARK                         _______ _______ _______ _____ _____    ______ ____
ROOT
ATOM      1  C   UNL     1       3.073   5.211  18.944  0.00  0.00    +0.000 A 
ATOM      2  C   UNL     1       2.695   4.299  19.942  0.00  0.00    +0.000 A 
ATOM      3  C   UNL     1       1.909   4.709  21.022  0.00  0.00    +0.000 A 
ATOM      4  C   UNL     1       1.475   6.032  21.125  0.00  0.00    +0.000 A 
ATOM      5  C   UNL     1       1.846   6.972  20.167  0.00  0.00    +0.000 A 
ATOM      6  C   UNL     1       2.660   6.557  19.093  0.00  0.00    +0.000 A 
ENDROOT
BRANCH   5   7
ATOM      7  N   UNL     1       1.396   8.311  20.178  0.00  0.00    +0.000 N 
ATOM      8  C   UNL     1       1.574   9.298  19.232  0.00  0.00    +0.000 C 
ATOM      9  O   UNL     1       2.104   9.115  18.135  0.00  0.00    +0.000 OA
ATOM     10  N   UNL     1       1.140  10.578  19.597  0.00  0.00    +0.000 N 
ATOM     11  C   UNL     1       1.293  11.663  18.627  0.00  0.00    +0.000 C 
ATOM     12  C   UNL     1       1.527  12.996  19.323  0.00  0.00    +0.000 C 
ATOM     13  O   UNL     1       0.442  13.323  20.197  0.00  0.00    +0.000 OA
ATOM     14  C   UNL     1       0.084  12.272  21.003  0.00  0.00    +0.000 A 
ATOM     15  C   UNL     1      -0.694  12.595  22.111  0.00  0.00    +0.000 A 
ATOM     16  C   UNL     1      -1.101  11.592  22.979  0.00  0.00    +0.000 A 
ATOM     17  C   UNL     1      -0.703  10.295  22.704  0.00  0.00    +0.000 A 
ATOM     18  N   UNL     1       0.046   9.946  21.635  0.00  0.00    +0.000 NA
ATOM     19  C   UNL     1       0.421  10.926  20.774  0.00  0.00    +0.000 A 
ATOM     20  H   UNL     1       0.858   8.609  20.987  0.00  0.00    +0.000 HD
ENDBRANCH   5   7
BRANCH   1  21
ATOM     21  C   UNL     1       3.708   4.740  17.615  0.00  0.00    +0.000 C 
ATOM     22  C   UNL     1       2.621   3.892  16.927  0.00  0.00    +0.000 C 
ATOM     23  F   UNL     1       3.927   5.821  16.781  0.00  0.00    +0.000 F 
BRANCH  21  24
ATOM     24  C   UNL     1       5.078   3.981  17.737  0.00  0.00    +0.000 C 
ATOM     25  F   UNL     1       5.546   3.633  16.503  0.00  0.00    +0.000 F 
ATOM     26  F   UNL     1       4.870   2.792  18.383  0.00  0.00    +0.000 F 
BRANCH  24  32
ATOM     27  C   UNL     1       7.056   6.203  16.535  0.00  0.00    +0.000 C 
ATOM     28  N   UNL     1       7.011   5.694  17.880  0.00  0.00    +0.000 N 
ATOM     29  C   UNL     1       7.838   6.108  18.883  0.00  0.00    +0.000 A 
ATOM     30  N   UNL     1       7.461   5.563  20.014  0.00  0.00    +0.000 NA
ATOM     31  N   UNL     1       6.382   4.766  19.744  0.00  0.00    +0.000 NA
ATOM     32  C   UNL     1       6.146   4.784  18.441  0.00  0.00    +0.000 A 
ENDBRANCH  24  32
ENDBRANCH  21  24
ENDBRANCH   1  21
TORSDOF 4
ENDMDL
MODEL 9
REMARK VINA RESULT:      -8.4      1.784      2.742
REMARK  Name = 
REMARK  6 active torsions:
REMARK  status: ('A' for Active; 'I' for Inactive)
REMARK    1  A    between atoms: C_1  and  N_2
REMARK    2  A    between atoms: C_6  and  C_7
REMARK    3  A    between atoms: C_7  and  C_10
REMARK    4  A    between atoms: C_10  and  C_11
REMARK    5  A    between atoms: C_10  and  C_13
REMARK    6  A    between atoms: C_17  and  N_18
REMARK                            x       y       z     vdW  Elec       q    Type
REMARK                         _______ _______ _______ _____ _____    ______ ____
ROOT
ATOM      1  C   UNL     1       4.040   5.084  19.290  0.00  0.00    +0.000 A 
ATOM      2  C   UNL     1       3.401   3.946  19.809  0.00  0.00    +0.000 A 
ATOM      3  C   UNL     1       2.179   4.056  20.475  0.00  0.00    +0.000 A 
ATOM      4  C   UNL     1       1.562   5.299  20.630  0.00  0.00    +0.000 A 
ATOM      5  C   UNL     1       2.172   6.454  20.150  0.00  0.00    +0.000 A 
ATOM      6  C   UNL     1       3.418   6.339  19.500  0.00  0.00    +0.000 A 
ENDROOT
BRANCH   5   7
ATOM      7  N   UNL     1       1.579   7.733  20.221  0.00  0.00    +0.000 N 
ATOM      8  C   UNL     1       1.582   8.749  19.288  0.00  0.00    +0.000 C 
ATOM      9  O   UNL     1       2.053   8.644  18.155  0.00  0.00    +0.000 OA
ATOM     10  N   UNL     1       1.034   9.966  19.711  0.00  0.00    +0.000 N 
ATOM     11  C   UNL     1       1.000  11.077  18.758  0.00  0.00    +0.000 C 
ATOM     12  C   UNL     1       1.131  12.416  19.467  0.00  0.00    +0.000 C 
ATOM     13  O   UNL     1       0.079  12.606  20.418  0.00  0.00    +0.000 OA
ATOM     14  C   UNL     1      -0.105  11.509  21.221  0.00  0.00    +0.000 A 
ATOM     15  C   UNL     1      -0.837  11.726  22.385  0.00  0.00    +0.000 A 
ATOM     16  C   UNL     1      -1.071  10.670  23.255  0.00  0.00    +0.000 A 
ATOM     17  C   UNL     1      -0.552   9.430  22.924  0.00  0.00    +0.000 A 
ATOM     18  N   UNL     1       0.158   9.184  21.801  0.00  0.00    +0.000 NA
ATOM     19  C   UNL     1       0.362  10.213  20.940  0.00  0.00    +0.000 A 
ATOM     20  H   UNL     1       1.066   7.957  21.070  0.00  0.00    +0.000 HD
ENDBRANCH   5   7
BRANCH   1  21
ATOM     21  C   UNL     1       5.244   4.968  18.328  0.00  0.00    +0.000 C 
ATOM     22  C   UNL     1       6.490   5.099  19.225  0.00  0.00    +0.000 C 
ATOM     23  F   UNL     1       5.301   3.697  17.786  0.00  0.00    +0.000 F 
BRANCH  21  24
ATOM     24  C   UNL     1       5.262   5.974  17.121  0.00  0.00    +0.000 C 
ATOM     25  F   UNL     1       5.649   7.215  17.537  0.00  0.00    +0.000 F 
ATOM     26  F   UNL     1       3.982   6.139  16.664  0.00  0.00    +0.000 F 
BRANCH  24  32
ATOM     27  C   UNL     1       4.636   4.028  14.648  0.00  0.00    +0.000 C 
ATOM     28  N   UNL     1       5.884   4.665  14.979  0.00  0.00    +0.000 N 
ATOM     29  C   UNL     1       7.029   4.531  14.249  0.00  0.00    +0.000 A 
ATOM     30  N   UNL     1       7.947   5.337  14.724  0.00  0.00    +0.000 NA
ATOM     31  N   UNL     1       7.400   5.996  15.791  0.00  0.00    +0.000 NA
ATOM     32  C   UNL     1       6.172   5.543  15.997  0.00  0.00    +0.000 A 
ENDBRANCH  24  32
ENDBRANCH  21  24
ENDBRANCH   1  21
TORSDOF 4
ENDMDL
