MODEL 1
REMARK VINA RESULT:      -8.9      0.000      0.000
REMARK  Name = 
REMARK  9 active torsions:
REMARK  status: ('A' for Active; 'I' for Inactive)
REMARK    1  A    between atoms: C_1  and  C_2
REMARK    2  A    between atoms: C_2  and  S_3
REMARK    3  A    between atoms: C_2  and  C_10
REMARK    4  A    between atoms: S_3  and  C_4
REMARK    5  A    between atoms: N_8  and  C_9
REMARK    6  A    between atoms: C_14  and  N_15
REMARK    7  A    between atoms: C_16  and  C_18
REMARK    8  A    between atoms: C_20  and  C_21
REMARK    9  A    between atoms: C_26  and  O_27
REMARK                            x       y       z     vdW  Elec       q    Type
REMARK                         _______ _______ _______ _____ _____    ______ ____
ROOT
ATOM      1  N   UNL     1       0.846   8.195  21.303  0.00  0.00    +0.000 N 
ATOM      2  C   UNL     1       1.548   7.992  20.127  0.00  0.00    +0.000 C 
ATOM      3  O   UNL     1       1.688   8.792  19.208  0.00  0.00    +0.000 OA
ATOM      4  H   UNL     1       0.948   7.465  22.005  0.00  0.00    +0.000 HD
ENDROOT
BRANCH   1   9
ATOM      5  C   UNL     1      -1.024  11.384  20.867  0.00  0.00    +0.000 A 
ATOM      6  C   UNL     1      -1.415  11.642  22.190  0.00  0.00    +0.000 A 
ATOM      7  C   UNL     1      -1.073  10.760  23.216  0.00  0.00    +0.000 A 
ATOM      8  C   UNL     1      -0.339   9.606  22.941  0.00  0.00    +0.000 A 
ATOM      9  C   UNL     1       0.078   9.330  21.640  0.00  0.00    +0.000 A 
ATOM     10  C   UNL     1      -0.254  10.228  20.616  0.00  0.00    +0.000 A 
BRANCH   5  12
ATOM     11  C   UNL     1      -1.091  13.824  20.180  0.00  0.00    +0.000 C 
ATOM     12  C   UNL     1      -1.384  12.380  19.759  0.00  0.00    +0.000 C 
BRANCH  12  13
ATOM     13  S   UNL     1      -3.141  12.103  19.306  0.00  0.00    +0.000 S 
BRANCH  13  14
ATOM     14  C   UNL     1      -3.092  11.382  17.739  0.00  0.00    +0.000 A 
ATOM     15  N   UNL     1      -2.111  10.720  17.174  0.00  0.00    +0.000 NA
ATOM     16  N   UNL     1      -2.486  10.432  15.878  0.00  0.00    +0.000 NA
ATOM     17  C   UNL     1      -3.699  10.904  15.702  0.00  0.00    +0.000 A 
ATOM     18  N   UNL     1      -4.132  11.483  16.857  0.00  0.00    +0.000 N 
ATOM     19  C   UNL     1      -5.431  12.062  17.075  0.00  0.00    +0.000 C 
ENDBRANCH  13  14
ENDBRANCH  12  13
ENDBRANCH   5  12
ENDBRANCH   1   9
BRANCH   2  20
ATOM     20  C   UNL     1       2.233   6.663  20.044  0.00  0.00    +0.000 A 
ATOM     21  C   UNL     1       3.504   6.584  19.502  0.00  0.00    +0.000 A 
ATOM     22  C   UNL     1       4.105   5.331  19.452  0.00  0.00    +0.000 A 
ATOM     23  C   UNL     1       3.379   4.199  19.821  0.00  0.00    +0.000 A 
ATOM     24  C   UNL     1       2.130   4.385  20.386  0.00  0.00    +0.000 A 
ATOM     25  N   UNL     1       1.551   5.593  20.542  0.00  0.00    +0.000 NA
BRANCH  22  26
ATOM     26  C   UNL     1       5.522   5.244  19.026  0.00  0.00    +0.000 C 
ATOM     27  O   UNL     1       6.350   4.948  19.882  0.00  0.00    +0.000 OA
ATOM     28  N   UNL     1       5.847   5.456  17.684  0.00  0.00    +0.000 N 
ATOM     29  C   UNL     1       7.245   5.372  17.267  0.00  0.00    +0.000 C 
ATOM     30  C   UNL     1       7.451   4.262  16.235  0.00  0.00    +0.000 C 
ATOM     31  C   UNL     1       6.458   4.353  15.075  0.00  0.00    +0.000 C 
ATOM     32  C   UNL     1       5.025   4.474  15.576  0.00  0.00    +0.000 C 
ATOM     33  C   UNL     1       4.884   5.603  16.585  0.00  0.00    +0.000 C 
BRANCH  31  34
ATOM     34  O   UNL     1       6.771   5.449  14.216  0.00  0.00    +0.000 OA
ATOM     35  H   UNL     1       5.971   5.974  14.051  0.00  0.00    +0.000 HD
ENDBRANCH  31  34
ENDBRANCH  22  26
ENDBRANCH   2  20
TORSDOF 7
ENDMDL
MODEL 2
REMARK VINA RESULT:      -8.9      1.364      1.643
REMARK  Name = 
REMARK  9 active torsions:
REMARK  status: ('A' for Active; 'I' for Inactive)
REMARK    1  A    between atoms: C_1  and  C_2
REMARK    2  A    between atoms: C_2  and  S_3
REMARK    3  A    between atoms: C_2  and  C_10
REMARK    4  A    between atoms: S_3  and  C_4
REMARK    5  A    between atoms: N_8  and  C_9
REMARK    6  A    between atoms: C_14  and  N_15
REMARK    7  A    between atoms: C_16  and  C_18
REMARK    8  A    between atoms: C_20  and  C_21
REMARK    9  A    between atoms: C_26  and  O_27
REMARK                            x       y       z     vdW  Elec       q    Type
REMARK                         _______ _______ _______ _____ _____    ______ ____
ROOT
ATOM      1  N   UNL     1       0.535   7.766  21.230  0.00  0.00    +0.000 N 
ATOM      2  C   UNL     1       1.595   7.518  20.374  0.00  0.00    +0.000 C 
ATOM      3  O   UNL     1       2.286   8.353  19.800  0.00  0.00    +0.000 OA
ATOM      4  H   UNL     1       0.164   6.952  21.714  0.00  0.00    +0.000 HD
ENDROOT
BRANCH   1   9
ATOM      5  C   UNL     1      -0.876  11.170  20.705  0.00  0.00    +0.000 A 
ATOM      6  C   UNL     1      -1.091  11.573  22.032  0.00  0.00    +0.000 A 
ATOM      7  C   UNL     1      -0.783  10.718  23.092  0.00  0.00    +0.000 A 
ATOM      8  C   UNL     1      -0.259   9.449  22.847  0.00  0.00    +0.000 A 
ATOM      9  C   UNL     1      -0.019   9.026  21.541  0.00  0.00    +0.000 A 
ATOM     10  C   UNL     1      -0.315   9.895  20.480  0.00  0.00    +0.000 A 
BRANCH   5  12
ATOM     11  C   UNL     1      -0.713  13.557  19.862  0.00  0.00    +0.000 C 
ATOM     12  C   UNL     1      -1.193  12.134  19.556  0.00  0.00    +0.000 C 
BRANCH  12  13
ATOM     13  S   UNL     1      -2.996  12.037  19.224  0.00  0.00    +0.000 S 
BRANCH  13  14
ATOM     14  C   UNL     1      -3.123  11.435  17.612  0.00  0.00    +0.000 A 
ATOM     15  N   UNL     1      -2.174  10.974  16.834  0.00  0.00    +0.000 NA
ATOM     16  N   UNL     1      -2.728  10.715  15.597  0.00  0.00    +0.000 NA
ATOM     17  C   UNL     1      -4.009  11.000  15.670  0.00  0.00    +0.000 A 
ATOM     18  N   UNL     1      -4.308  11.427  16.928  0.00  0.00    +0.000 N 
ATOM     19  C   UNL     1      -5.616  11.778  17.412  0.00  0.00    +0.000 C 
ENDBRANCH  13  14
ENDBRANCH  12  13
ENDBRANCH   5  12
ENDBRANCH   1   9
BRANCH   2  20
ATOM     20  C   UNL     1       1.926   6.067  20.213  0.00  0.00    +0.000 A 
ATOM     21  C   UNL     1       2.306   5.587  18.972  0.00  0.00    +0.000 A 
ATOM     22  C   UNL     1       2.611   4.234  18.871  0.00  0.00    +0.000 A 
ATOM     23  C   UNL     1       2.407   3.394  19.966  0.00  0.00    +0.000 A 
ATOM     24  C   UNL     1       2.063   3.974  21.174  0.00  0.00    +0.000 A 
ATOM     25  N   UNL     1       1.852   5.296  21.336  0.00  0.00    +0.000 NA
BRANCH  22  26
ATOM     26  C   UNL     1       3.172   3.730  17.595  0.00  0.00    +0.000 C 
ATOM     27  O   UNL     1       2.382   3.260  16.781  0.00  0.00    +0.000 OA
ATOM     28  N   UNL     1       4.543   3.847  17.356  0.00  0.00    +0.000 N 
ATOM     29  C   UNL     1       5.092   3.347  16.097  0.00  0.00    +0.000 C 
ATOM     30  C   UNL     1       5.743   4.472  15.290  0.00  0.00    +0.000 C 
ATOM     31  C   UNL     1       6.732   5.290  16.123  0.00  0.00    +0.000 C 
ATOM     32  C   UNL     1       6.110   5.750  17.434  0.00  0.00    +0.000 C 
ATOM     33  C   UNL     1       5.496   4.585  18.195  0.00  0.00    +0.000 C 
BRANCH  31  34
ATOM     34  O   UNL     1       7.925   4.549  16.379  0.00  0.00    +0.000 OA
ATOM     35  H   UNL     1       8.402   4.400  15.547  0.00  0.00    +0.000 HD
ENDBRANCH  31  34
ENDBRANCH  22  26
ENDBRANCH   2  20
TORSDOF 7
ENDMDL
MODEL 3
REMARK VINA RESULT:      -8.7      4.294      5.394
REMARK  Name = 
REMARK  9 active torsions:
REMARK  status: ('A' for Active; 'I' for Inactive)
REMARK    1  A    between atoms: C_1  and  C_2
REMARK    2  A    between atoms: C_2  and  S_3
REMARK    3  A    between atoms: C_2  and  C_10
REMARK    4  A    between atoms: S_3  and  C_4
REMARK    5  A    between atoms: N_8  and  C_9
REMARK    6  A    between atoms: C_14  and  N_15
REMARK    7  A    between atoms: C_16  and  C_18
REMARK    8  A    between atoms: C_20  and  C_21
REMARK    9  A    between atoms: C_26  and  O_27
REMARK                            x       y       z     vdW  Elec       q    Type
REMARK                         _______ _______ _______ _____ _____    ______ ____
ROOT
ATOM      1  N   UNL     1       1.091   9.998  19.470  0.00  0.00    +0.000 N 
ATOM      2  C   UNL     1       1.718   9.181  18.546  0.00  0.00    +0.000 C 
ATOM      3  O   UNL     1       2.148   9.512  17.446  0.00  0.00    +0.000 OA
ATOM      4  H   UNL     1       0.919   9.578  20.381  0.00  0.00    +0.000 HD
ENDROOT
BRANCH   1   9
ATOM      5  C   UNL     1       1.280  13.705  19.750  0.00  0.00    +0.000 A 
ATOM      6  C   UNL     1       0.124  14.081  19.048  0.00  0.00    +0.000 A 
ATOM      7  C   UNL     1      -0.705  13.114  18.477  0.00  0.00    +0.000 A 
ATOM      8  C   UNL     1      -0.394  11.759  18.591  0.00  0.00    +0.000 A 
ATOM      9  C   UNL     1       0.738  11.354  19.295  0.00  0.00    +0.000 A 
ATOM     10  C   UNL     1       1.558  12.329  19.882  0.00  0.00    +0.000 A 
BRANCH   5  12
ATOM     11  C   UNL     1       1.680  15.132  21.808  0.00  0.00    +0.000 C 
ATOM     12  C   UNL     1       2.161  14.780  20.396  0.00  0.00    +0.000 C 
BRANCH  12  13
ATOM     13  S   UNL     1       2.199  16.227  19.266  0.00  0.00    +0.000 S 
BRANCH  13  14
ATOM     14  C   UNL     1       3.809  16.838  19.375  0.00  0.00    +0.000 A 
ATOM     15  N   UNL     1       4.242  17.890  20.028  0.00  0.00    +0.000 NA
ATOM     16  N   UNL     1       5.580  18.051  19.732  0.00  0.00    +0.000 NA
ATOM     17  C   UNL     1       5.929  17.071  18.929  0.00  0.00    +0.000 A 
ATOM     18  N   UNL     1       4.853  16.266  18.702  0.00  0.00    +0.000 N 
ATOM     19  C   UNL     1       4.853  15.059  17.919  0.00  0.00    +0.000 C 
ENDBRANCH  13  14
ENDBRANCH  12  13
ENDBRANCH   5  12
ENDBRANCH   1   9
BRANCH   2  20
ATOM     20  C   UNL     1       1.919   7.772  19.010  0.00  0.00    +0.000 A 
ATOM     21  C   UNL     1       2.310   6.804  18.102  0.00  0.00    +0.000 A 
ATOM     22  C   UNL     1       2.492   5.510  18.580  0.00  0.00    +0.000 A 
ATOM     23  C   UNL     1       2.160   5.205  19.899  0.00  0.00    +0.000 A 
ATOM     24  C   UNL     1       1.815   6.249  20.739  0.00  0.00    +0.000 A 
ATOM     25  N   UNL     1       1.721   7.534  20.338  0.00  0.00    +0.000 NA
BRANCH  22  26
ATOM     26  C   UNL     1       3.062   4.494  17.664  0.00  0.00    +0.000 C 
ATOM     27  O   UNL     1       2.271   3.796  17.036  0.00  0.00    +0.000 OA
ATOM     28  N   UNL     1       4.449   4.401  17.522  0.00  0.00    +0.000 N 
ATOM     29  C   UNL     1       5.007   3.396  16.620  0.00  0.00    +0.000 C 
ATOM     30  C   UNL     1       5.813   4.047  15.494  0.00  0.00    +0.000 C 
ATOM     31  C   UNL     1       6.838   5.054  16.018  0.00  0.00    +0.000 C 
ATOM     32  C   UNL     1       6.200   6.050  16.978  0.00  0.00    +0.000 C 
ATOM     33  C   UNL     1       5.429   5.341  18.081  0.00  0.00    +0.000 C 
BRANCH  31  34
ATOM     34  O   UNL     1       7.931   4.392  16.653  0.00  0.00    +0.000 OA
ATOM     35  H   UNL     1       7.715   4.224  17.585  0.00  0.00    +0.000 HD
ENDBRANCH  31  34
ENDBRANCH  22  26
ENDBRANCH   2  20
TORSDOF 7
ENDMDL
MODEL 4
REMARK VINA RESULT:      -8.6      2.628      3.724
REMARK  Name = 
REMARK  9 active torsions:
REMARK  status: ('A' for Active; 'I' for Inactive)
REMARK    1  A    between atoms: C_1  and  C_2
REMARK    2  A    between atoms: C_2  and  S_3
REMARK    3  A    between atoms: C_2  and  C_10
REMARK    4  A    between atoms: S_3  and  C_4
REMARK    5  A    between atoms: N_8  and  C_9
REMARK    6  A    between atoms: C_14  and  N_15
REMARK    7  A    between atoms: C_16  and  C_18
REMARK    8  A    between atoms: C_20  and  C_21
REMARK    9  A    between atoms: C_26  and  O_27
REMARK                            x       y       z     vdW  Elec       q    Type
REMARK                         _______ _______ _______ _____ _____    ______ ____
ROOT
ATOM      1  N   UNL     1       0.643   7.758  21.246  0.00  0.00    +0.000 N 
ATOM      2  C   UNL     1       1.579   7.509  20.257  0.00  0.00    +0.000 C 
ATOM      3  O   UNL     1       2.135   8.340  19.547  0.00  0.00    +0.000 OA
ATOM      4  H   UNL     1       0.388   6.957  21.819  0.00  0.00    +0.000 HD
ENDROOT
BRANCH   1   9
ATOM      5  C   UNL     1      -0.670  11.210  20.783  0.00  0.00    +0.000 A 
ATOM      6  C   UNL     1      -1.008  11.541  22.104  0.00  0.00    +0.000 A 
ATOM      7  C   UNL     1      -0.815  10.624  23.138  0.00  0.00    +0.000 A 
ATOM      8  C   UNL     1      -0.285   9.361  22.872  0.00  0.00    +0.000 A 
ATOM      9  C   UNL     1       0.076   9.008  21.574  0.00  0.00    +0.000 A 
ATOM     10  C   UNL     1      -0.105   9.940  20.541  0.00  0.00    +0.000 A 
BRANCH   5  12
ATOM     11  C   UNL     1      -1.808  11.727  18.576  0.00  0.00    +0.000 C 
ATOM     12  C   UNL     1      -0.862  12.242  19.666  0.00  0.00    +0.000 C 
BRANCH  12  13
ATOM     13  S   UNL     1       0.800  12.688  19.025  0.00  0.00    +0.000 S 
BRANCH  13  14
ATOM     14  C   UNL     1       1.508  13.666  20.257  0.00  0.00    +0.000 A 
ATOM     15  N   UNL     1       2.310  13.303  21.229  0.00  0.00    +0.000 NA
ATOM     16  N   UNL     1       2.526  14.403  22.034  0.00  0.00    +0.000 NA
ATOM     17  C   UNL     1       1.870  15.412  21.508  0.00  0.00    +0.000 A 
ATOM     18  N   UNL     1       1.240  15.002  20.373  0.00  0.00    +0.000 N 
ATOM     19  C   UNL     1       0.467  15.834  19.489  0.00  0.00    +0.000 C 
ENDBRANCH  13  14
ENDBRANCH  12  13
ENDBRANCH   5  12
ENDBRANCH   1   9
BRANCH   2  20
ATOM     20  C   UNL     1       1.957   6.067  20.120  0.00  0.00    +0.000 A 
ATOM     21  C   UNL     1       2.305   5.568  18.877  0.00  0.00    +0.000 A 
ATOM     22  C   UNL     1       2.656   4.224  18.798  0.00  0.00    +0.000 A 
ATOM     23  C   UNL     1       2.527   3.407  19.921  0.00  0.00    +0.000 A 
ATOM     24  C   UNL     1       2.208   4.007  21.126  0.00  0.00    +0.000 A 
ATOM     25  N   UNL     1       1.955   5.325  21.263  0.00  0.00    +0.000 NA
BRANCH  22  26
ATOM     26  C   UNL     1       3.185   3.707  17.514  0.00  0.00    +0.000 C 
ATOM     27  O   UNL     1       2.378   3.211  16.732  0.00  0.00    +0.000 OA
ATOM     28  N   UNL     1       4.546   3.841  17.230  0.00  0.00    +0.000 N 
ATOM     29  C   UNL     1       5.064   3.327  15.963  0.00  0.00    +0.000 C 
ATOM     30  C   UNL     1       5.672   4.448  15.117  0.00  0.00    +0.000 C 
ATOM     31  C   UNL     1       6.674   5.295  15.905  0.00  0.00    +0.000 C 
ATOM     32  C   UNL     1       6.085   5.768  17.227  0.00  0.00    +0.000 C 
ATOM     33  C   UNL     1       5.513   4.607  18.026  0.00  0.00    +0.000 C 
BRANCH  31  34
ATOM     34  O   UNL     1       7.885   4.576  16.136  0.00  0.00    +0.000 OA
ATOM     35  H   UNL     1       8.113   4.058  15.347  0.00  0.00    +0.000 HD
ENDBRANCH  31  34
ENDBRANCH  22  26
ENDBRANCH   2  20
TORSDOF 7
ENDMDL
MODEL 5
REMARK VINA RESULT:      -8.5      3.570      4.349
REMARK  Name = 
REMARK  9 active torsions:
REMARK  status: ('A' for Active; 'I' for Inactive)
REMARK    1  A    between atoms: C_1  and  C_2
REMARK    2  A    between atoms: C_2  and  S_3
REMARK    3  A    between atoms: C_2  and  C_10
REMARK    4  A    between atoms: S_3  and  C_4
REMARK    5  A    between atoms: N_8  and  C_9
REMARK    6  A    between atoms: C_14  and  N_15
REMARK    7  A    between atoms: C_16  and  C_18
REMARK    8  A    between atoms: C_20  and  C_21
REMARK    9  A    between atoms: C_26  and  O_27
REMARK                            x       y       z     vdW  Elec       q    Type
REMARK                         _______ _______ _______ _____ _____    ______ ____
ROOT
ATOM      1  N   UNL     1       0.966   9.545  19.315  0.00  0.00    +0.000 N 
ATOM      2  C   UNL     1       1.725   8.777  18.449  0.00  0.00    +0.000 C 
ATOM      3  O   UNL     1       2.191   9.130  17.371  0.00  0.00    +0.000 OA
ATOM      4  H   UNL     1       0.777   9.124  20.222  0.00  0.00    +0.000 HD
ENDROOT
BRANCH   1   9
ATOM      5  C   UNL     1       1.069  13.198  18.610  0.00  0.00    +0.000 A 
ATOM      6  C   UNL     1      -0.298  13.514  18.663  0.00  0.00    +0.000 A 
ATOM      7  C   UNL     1      -1.246  12.523  18.917  0.00  0.00    +0.000 A 
ATOM      8  C   UNL     1      -0.850  11.201  19.120  0.00  0.00    +0.000 A 
ATOM      9  C   UNL     1       0.500  10.858  19.089  0.00  0.00    +0.000 A 
ATOM     10  C   UNL     1       1.451  11.862  18.850  0.00  0.00    +0.000 A 
BRANCH   5  12
ATOM     11  C   UNL     1       3.525  13.829  18.644  0.00  0.00    +0.000 C 
ATOM     12  C   UNL     1       2.097  14.306  18.358  0.00  0.00    +0.000 C 
BRANCH  12  13
ATOM     13  S   UNL     1       1.610  15.762  19.366  0.00  0.00    +0.000 S 
BRANCH  13  14
ATOM     14  C   UNL     1       1.302  17.016  18.221  0.00  0.00    +0.000 A 
ATOM     15  N   UNL     1       2.148  17.615  17.417  0.00  0.00    +0.000 NA
ATOM     16  N   UNL     1       1.471  18.627  16.768  0.00  0.00    +0.000 NA
ATOM     17  C   UNL     1       0.223  18.594  17.177  0.00  0.00    +0.000 A 
ATOM     18  N   UNL     1       0.064  17.577  18.069  0.00  0.00    +0.000 N 
ATOM     19  C   UNL     1      -1.172  17.189  18.695  0.00  0.00    +0.000 C 
ENDBRANCH  13  14
ENDBRANCH  12  13
ENDBRANCH   5  12
ENDBRANCH   1   9
BRANCH   2  20
ATOM     20  C   UNL     1       2.027   7.401  18.955  0.00  0.00    +0.000 A 
ATOM     21  C   UNL     1       2.503   6.441  18.078  0.00  0.00    +0.000 A 
ATOM     22  C   UNL     1       2.777   5.178  18.594  0.00  0.00    +0.000 A 
ATOM     23  C   UNL     1       2.451   4.885  19.918  0.00  0.00    +0.000 A 
ATOM     24  C   UNL     1       2.016   5.921  20.724  0.00  0.00    +0.000 A 
ATOM     25  N   UNL     1       1.830   7.183  20.286  0.00  0.00    +0.000 NA
BRANCH  22  26
ATOM     26  C   UNL     1       3.435   4.185  17.714  0.00  0.00    +0.000 C 
ATOM     27  O   UNL     1       2.816   3.153  17.468  0.00  0.00    +0.000 OA
ATOM     28  N   UNL     1       4.690   4.473  17.173  0.00  0.00    +0.000 N 
ATOM     29  C   UNL     1       5.337   3.490  16.307  0.00  0.00    +0.000 C 
ATOM     30  C   UNL     1       5.573   4.054  14.905  0.00  0.00    +0.000 C 
ATOM     31  C   UNL     1       6.271   5.416  14.935  0.00  0.00    +0.000 C 
ATOM     32  C   UNL     1       5.570   6.381  15.881  0.00  0.00    +0.000 C 
ATOM     33  C   UNL     1       5.380   5.767  17.259  0.00  0.00    +0.000 C 
BRANCH  31  34
ATOM     34  O   UNL     1       7.644   5.281  15.301  0.00  0.00    +0.000 OA
ATOM     35  H   UNL     1       8.168   5.037  14.521  0.00  0.00    +0.000 HD
ENDBRANCH  31  34
ENDBRANCH  22  26
ENDBRANCH   2  20
TORSDOF 7
ENDMDL
MODEL 6
REMARK VINA RESULT:      -8.5      6.044      8.918
REMARK  Name = 
REMARK  9 active torsions:
REMARK  status: ('A' for Active; 'I' for Inactive)
REMARK    1  A    between atoms: C_1  and  C_2
REMARK    2  A    between atoms: C_2  and  S_3
REMARK    3  A    between atoms: C_2  and  C_10
REMARK    4  A    between atoms: S_3  and  C_4
REMARK    5  A    between atoms: N_8  and  C_9
REMARK    6  A    between atoms: C_14  and  N_15
REMARK    7  A    between atoms: C_16  and  C_18
REMARK    8  A    between atoms: C_20  and  C_21
REMARK    9  A    between atoms: C_26  and  O_27
REMARK                            x       y       z     vdW  Elec       q    Type
REMARK                         _______ _______ _______ _____ _____    ______ ____
ROOT
ATOM      1  N   UNL     1       7.847   9.064  17.969  0.00  0.00    +0.000 N 
ATOM      2  C   UNL     1       7.930   7.704  18.214  0.00  0.00    +0.000 C 
ATOM      3  O   UNL     1       8.713   7.141  18.970  0.00  0.00    +0.000 OA
ATOM      4  H   UNL     1       7.051   9.361  17.411  0.00  0.00    +0.000 HD
ENDROOT
BRANCH   1   9
ATOM      5  C   UNL     1       9.858  12.195  18.065  0.00  0.00    +0.000 A 
ATOM      6  C   UNL     1      10.435  12.098  19.340  0.00  0.00    +0.000 A 
ATOM      7  C   UNL     1      10.151  11.010  20.167  0.00  0.00    +0.000 A 
ATOM      8  C   UNL     1       9.285  10.004  19.738  0.00  0.00    +0.000 A 
ATOM      9  C   UNL     1       8.708  10.064  18.471  0.00  0.00    +0.000 A 
ATOM     10  C   UNL     1       9.011  11.151  17.638  0.00  0.00    +0.000 A 
BRANCH   5  12
ATOM     11  C   UNL     1      11.643  13.291  16.634  0.00  0.00    +0.000 C 
ATOM     12  C   UNL     1      10.206  13.383  17.160  0.00  0.00    +0.000 C 
BRANCH  12  13
ATOM     13  S   UNL     1       9.882  14.922  18.107  0.00  0.00    +0.000 S 
BRANCH  13  14
ATOM     14  C   UNL     1       8.182  14.918  18.401  0.00  0.00    +0.000 A 
ATOM     15  N   UNL     1       7.201  14.949  17.531  0.00  0.00    +0.000 NA
ATOM     16  N   UNL     1       6.017  15.046  18.232  0.00  0.00    +0.000 NA
ATOM     17  C   UNL     1       6.312  15.041  19.512  0.00  0.00    +0.000 A 
ATOM     18  N   UNL     1       7.661  14.931  19.666  0.00  0.00    +0.000 N 
ATOM     19  C   UNL     1       8.363  14.837  20.918  0.00  0.00    +0.000 C 
ENDBRANCH  13  14
ENDBRANCH  12  13
ENDBRANCH   5  12
ENDBRANCH   1   9
BRANCH   2  20
ATOM     20  C   UNL     1       6.895   6.890  17.501  0.00  0.00    +0.000 A 
ATOM     21  C   UNL     1       5.663   6.681  18.095  0.00  0.00    +0.000 A 
ATOM     22  C   UNL     1       4.730   5.924  17.393  0.00  0.00    +0.000 A 
ATOM     23  C   UNL     1       5.098   5.305  16.199  0.00  0.00    +0.000 A 
ATOM     24  C   UNL     1       6.339   5.606  15.667  0.00  0.00    +0.000 A 
ATOM     25  N   UNL     1       7.236   6.414  16.270  0.00  0.00    +0.000 NA
BRANCH  22  26
ATOM     26  C   UNL     1       3.355   5.820  17.934  0.00  0.00    +0.000 C 
ATOM     27  O   UNL     1       2.503   6.560  17.451  0.00  0.00    +0.000 OA
ATOM     28  N   UNL     1       3.077   4.873  18.923  0.00  0.00    +0.000 N 
ATOM     29  C   UNL     1       1.720   4.775  19.456  0.00  0.00    +0.000 C 
ATOM     30  C   UNL     1       1.120   3.393  19.194  0.00  0.00    +0.000 C 
ATOM     31  C   UNL     1       2.048   2.260  19.637  0.00  0.00    +0.000 C 
ATOM     32  C   UNL     1       3.453   2.440  19.078  0.00  0.00    +0.000 C 
ATOM     33  C   UNL     1       3.999   3.826  19.384  0.00  0.00    +0.000 C 
BRANCH  31  34
ATOM     34  O   UNL     1       2.096   2.161  21.060  0.00  0.00    +0.000 OA
ATOM     35  H   UNL     1       1.248   1.826  21.393  0.00  0.00    +0.000 HD
ENDBRANCH  31  34
ENDBRANCH  22  26
ENDBRANCH   2  20
TORSDOF 7
ENDMDL
MODEL 7
REMARK VINA RESULT:      -8.4      4.127      5.357
REMARK  Name = 
REMARK  9 active torsions:
REMARK  status: ('A' for Active; 'I' for Inactive)
REMARK    1  A    between atoms: C_1  and  C_2
REMARK    2  A    between atoms: C_2  and  S_3
REMARK    3  A    between atoms: C_2  and  C_10
REMARK    4  A    between atoms: S_3  and  C_4
REMARK    5  A    between atoms: N_8  and  C_9
REMARK    6  A    between atoms: C_14  and  N_15
REMARK    7  A    between atoms: C_16  and  C_18
REMARK    8  A    between atoms: C_20  and  C_21
REMARK    9  A    between atoms: C_26  and  O_27
REMARK                            x       y       z     vdW  Elec       q    Type
REMARK                         _______ _______ _______ _____ _____    ______ ____
ROOT
ATOM      1  N   UNL     1       0.791   9.749  19.289  0.00  0.00    +0.000 N 
ATOM      2  C   UNL     1       1.672   9.038  18.492  0.00  0.00    +0.000 C 
ATOM      3  O   UNL     1       2.270   9.455  17.505  0.00  0.00    +0.000 OA
ATOM      4  H   UNL     1       0.492   9.277  20.139  0.00  0.00    +0.000 HD
ENDROOT
BRANCH   1   9
ATOM      5  C   UNL     1       0.822  13.470  19.206  0.00  0.00    +0.000 A 
ATOM      6  C   UNL     1      -0.469  13.733  18.722  0.00  0.00    +0.000 A 
ATOM      7  C   UNL     1      -1.338  12.685  18.414  0.00  0.00    +0.000 A 
ATOM      8  C   UNL     1      -0.935  11.360  18.579  0.00  0.00    +0.000 A 
ATOM      9  C   UNL     1       0.335  11.067  19.072  0.00  0.00    +0.000 A 
ATOM     10  C   UNL     1       1.198  12.124  19.397  0.00  0.00    +0.000 A 
BRANCH   5  12
ATOM     11  C   UNL     1       1.120  15.989  19.225  0.00  0.00    +0.000 C 
ATOM     12  C   UNL     1       1.750  14.635  19.568  0.00  0.00    +0.000 C 
BRANCH  12  13
ATOM     13  S   UNL     1       3.357  14.353  18.724  0.00  0.00    +0.000 S 
BRANCH  13  14
ATOM     14  C   UNL     1       4.339  15.700  19.170  0.00  0.00    +0.000 A 
ATOM     15  N   UNL     1       4.555  16.810  18.506  0.00  0.00    +0.000 NA
ATOM     16  N   UNL     1       5.496  17.542  19.199  0.00  0.00    +0.000 NA
ATOM     17  C   UNL     1       5.804  16.866  20.283  0.00  0.00    +0.000 A 
ATOM     18  N   UNL     1       5.077  15.715  20.321  0.00  0.00    +0.000 N 
ATOM     19  C   UNL     1       5.095  14.740  21.379  0.00  0.00    +0.000 C 
ENDBRANCH  13  14
ENDBRANCH  12  13
ENDBRANCH   5  12
ENDBRANCH   1   9
BRANCH   2  20
ATOM     20  C   UNL     1       1.930   7.640  18.960  0.00  0.00    +0.000 A 
ATOM     21  C   UNL     1       2.317   6.675  18.047  0.00  0.00    +0.000 A 
ATOM     22  C   UNL     1       2.554   5.391  18.528  0.00  0.00    +0.000 A 
ATOM     23  C   UNL     1       2.276   5.089  19.861  0.00  0.00    +0.000 A 
ATOM     24  C   UNL     1       1.930   6.130  20.704  0.00  0.00    +0.000 A 
ATOM     25  N   UNL     1       1.785   7.408  20.296  0.00  0.00    +0.000 NA
BRANCH  22  26
ATOM     26  C   UNL     1       3.121   4.384  17.602  0.00  0.00    +0.000 C 
ATOM     27  O   UNL     1       2.332   3.634  17.034  0.00  0.00    +0.000 OA
ATOM     28  N   UNL     1       4.500   4.355  17.382  0.00  0.00    +0.000 N 
ATOM     29  C   UNL     1       5.057   3.358  16.469  0.00  0.00    +0.000 C 
ATOM     30  C   UNL     1       5.764   4.022  15.287  0.00  0.00    +0.000 C 
ATOM     31  C   UNL     1       6.766   5.090  15.732  0.00  0.00    +0.000 C 
ATOM     32  C   UNL     1       6.135   6.074  16.707  0.00  0.00    +0.000 C 
ATOM     33  C   UNL     1       5.462   5.354  17.865  0.00  0.00    +0.000 C 
BRANCH  31  34
ATOM     34  O   UNL     1       7.925   4.496  16.316  0.00  0.00    +0.000 OA
ATOM     35  H   UNL     1       7.763   3.552  16.475  0.00  0.00    +0.000 HD
ENDBRANCH  31  34
ENDBRANCH  22  26
ENDBRANCH   2  20
TORSDOF 7
ENDMDL
MODEL 8
REMARK VINA RESULT:      -8.4      1.523      1.996
REMARK  Name = 
REMARK  9 active torsions:
REMARK  status: ('A' for Active; 'I' for Inactive)
REMARK    1  A    between atoms: C_1  and  C_2
REMARK    2  A    between atoms: C_2  and  S_3
REMARK    3  A    between atoms: C_2  and  C_10
REMARK    4  A    between atoms: S_3  and  C_4
REMARK    5  A    between atoms: N_8  and  C_9
REMARK    6  A    between atoms: C_14  and  N_15
REMARK    7  A    between atoms: C_16  and  C_18
REMARK    8  A    between atoms: C_20  and  C_21
REMARK    9  A    between atoms: C_26  and  O_27
REMARK                            x       y       z     vdW  Elec       q    Type
REMARK                         _______ _______ _______ _____ _____    ______ ____
ROOT
ATOM      1  N   UNL     1       0.614   7.657  21.267  0.00  0.00    +0.000 N 
ATOM      2  C   UNL     1       1.593   7.418  20.318  0.00  0.00    +0.000 C 
ATOM      3  O   UNL     1       2.196   8.257  19.658  0.00  0.00    +0.000 OA
ATOM      4  H   UNL     1       0.319   6.847  21.806  0.00  0.00    +0.000 HD
ENDROOT
BRANCH   1   9
ATOM      5  C   UNL     1      -0.761  11.085  20.804  0.00  0.00    +0.000 A 
ATOM      6  C   UNL     1      -1.034  11.441  22.134  0.00  0.00    +0.000 A 
ATOM      7  C   UNL     1      -0.777  10.547  23.174  0.00  0.00    +0.000 A 
ATOM      8  C   UNL     1      -0.246   9.285  22.907  0.00  0.00    +0.000 A 
ATOM      9  C   UNL     1       0.050   8.908  21.599  0.00  0.00    +0.000 A 
ATOM     10  C   UNL     1      -0.195   9.817  20.558  0.00  0.00    +0.000 A 
BRANCH   5  12
ATOM     11  C   UNL     1      -2.059  13.144  20.088  0.00  0.00    +0.000 C 
ATOM     12  C   UNL     1      -1.023  12.092  19.678  0.00  0.00    +0.000 C 
BRANCH  12  13
ATOM     13  S   UNL     1      -1.511  11.145  18.182  0.00  0.00    +0.000 S 
BRANCH  13  14
ATOM     14  C   UNL     1      -3.188  11.486  17.963  0.00  0.00    +0.000 A 
ATOM     15  N   UNL     1      -4.070  11.863  18.858  0.00  0.00    +0.000 NA
ATOM     16  N   UNL     1      -5.305  11.906  18.244  0.00  0.00    +0.000 NA
ATOM     17  C   UNL     1      -5.132  11.581  16.983  0.00  0.00    +0.000 A 
ATOM     18  N   UNL     1      -3.811  11.339  16.754  0.00  0.00    +0.000 N 
ATOM     19  C   UNL     1      -3.221  11.010  15.484  0.00  0.00    +0.000 C 
ENDBRANCH  13  14
ENDBRANCH  12  13
ENDBRANCH   5  12
ENDBRANCH   1   9
BRANCH   2  20
ATOM     20  C   UNL     1       1.955   5.974  20.163  0.00  0.00    +0.000 A 
ATOM     21  C   UNL     1       2.314   5.491  18.917  0.00  0.00    +0.000 A 
ATOM     22  C   UNL     1       2.650   4.144  18.821  0.00  0.00    +0.000 A 
ATOM     23  C   UNL     1       2.496   3.311  19.928  0.00  0.00    +0.000 A 
ATOM     24  C   UNL     1       2.168   3.895  21.139  0.00  0.00    +0.000 A 
ATOM     25  N   UNL     1       1.929   5.213  21.294  0.00  0.00    +0.000 NA
BRANCH  22  26
ATOM     26  C   UNL     1       3.190   3.641  17.536  0.00  0.00    +0.000 C 
ATOM     27  O   UNL     1       2.392   3.142  16.747  0.00  0.00    +0.000 OA
ATOM     28  N   UNL     1       4.551   3.792  17.258  0.00  0.00    +0.000 N 
ATOM     29  C   UNL     1       5.079   3.293  15.990  0.00  0.00    +0.000 C 
ATOM     30  C   UNL     1       5.678   4.425  15.154  0.00  0.00    +0.000 C 
ATOM     31  C   UNL     1       6.667   5.278  15.951  0.00  0.00    +0.000 C 
ATOM     32  C   UNL     1       6.068   5.736  17.274  0.00  0.00    +0.000 C 
ATOM     33  C   UNL     1       5.505   4.564  18.063  0.00  0.00    +0.000 C 
BRANCH  31  34
ATOM     34  O   UNL     1       7.885   4.571  16.183  0.00  0.00    +0.000 OA
ATOM     35  H   UNL     1       8.637   5.106  15.880  0.00  0.00    +0.000 HD
ENDBRANCH  31  34
ENDBRANCH  22  26
ENDBRANCH   2  20
TORSDOF 7
ENDMDL
MODEL 9
REMARK VINA RESULT:      -8.3      2.046      2.585
REMARK  Name = 
REMARK  9 active torsions:
REMARK  status: ('A' for Active; 'I' for Inactive)
REMARK    1  A    between atoms: C_1  and  C_2
REMARK    2  A    between atoms: C_2  and  S_3
REMARK    3  A    between atoms: C_2  and  C_10
REMARK    4  A    between atoms: S_3  and  C_4
REMARK    5  A    between atoms: N_8  and  C_9
REMARK    6  A    between atoms: C_14  and  N_15
REMARK    7  A    between atoms: C_16  and  C_18
REMARK    8  A    between atoms: C_20  and  C_21
REMARK    9  A    between atoms: C_26  and  O_27
REMARK                            x       y       z     vdW  Elec       q    Type
REMARK                         _______ _______ _______ _____ _____    ______ ____
ROOT
ATOM      1  N   UNL     1       0.759   7.584  21.320  0.00  0.00    +0.000 N 
ATOM      2  C   UNL     1       1.649   7.329  20.291  0.00  0.00    +0.000 C 
ATOM      3  O   UNL     1       2.140   8.151  19.525  0.00  0.00    +0.000 OA
ATOM      4  H   UNL     1       0.560   6.796  21.933  0.00  0.00    +0.000 HD
ENDROOT
BRANCH   1   9
ATOM      5  C   UNL     1      -0.767  10.940  20.804  0.00  0.00    +0.000 A 
ATOM      6  C   UNL     1      -0.977  11.340  22.132  0.00  0.00    +0.000 A 
ATOM      7  C   UNL     1      -0.627  10.500  23.190  0.00  0.00    +0.000 A 
ATOM      8  C   UNL     1      -0.067   9.247  22.942  0.00  0.00    +0.000 A 
ATOM      9  C   UNL     1       0.168   8.827  21.635  0.00  0.00    +0.000 A 
ATOM     10  C   UNL     1      -0.169   9.683  20.576  0.00  0.00    +0.000 A 
BRANCH   5  12
ATOM     11  C   UNL     1       0.118  12.394  18.924  0.00  0.00    +0.000 C 
ATOM     12  C   UNL     1      -1.130  11.889  19.656  0.00  0.00    +0.000 C 
BRANCH  12  13
ATOM     13  S   UNL     1      -2.155  13.244  20.352  0.00  0.00    +0.000 S 
BRANCH  13  14
ATOM     14  C   UNL     1      -3.781  12.674  20.249  0.00  0.00    +0.000 A 
ATOM     15  N   UNL     1      -4.430  12.241  19.194  0.00  0.00    +0.000 NA
ATOM     16  N   UNL     1      -5.736  12.001  19.570  0.00  0.00    +0.000 NA
ATOM     17  C   UNL     1      -5.834  12.268  20.853  0.00  0.00    +0.000 A 
ATOM     18  N   UNL     1      -4.621  12.666  21.328  0.00  0.00    +0.000 N 
ATOM     19  C   UNL     1      -4.315  12.991  22.695  0.00  0.00    +0.000 C 
ENDBRANCH  13  14
ENDBRANCH  12  13
ENDBRANCH   5  12
ENDBRANCH   1   9
BRANCH   2  20
ATOM     20  C   UNL     1       2.066   5.895  20.184  0.00  0.00    +0.000 A 
ATOM     21  C   UNL     1       2.525   5.408  18.973  0.00  0.00    +0.000 A 
ATOM     22  C   UNL     1       2.909   4.071  18.922  0.00  0.00    +0.000 A 
ATOM     23  C   UNL     1       2.705   3.249  20.029  0.00  0.00    +0.000 A 
ATOM     24  C   UNL     1       2.277   3.838  21.205  0.00  0.00    +0.000 A 
ATOM     25  N   UNL     1       1.986   5.150  21.323  0.00  0.00    +0.000 NA
BRANCH  22  26
ATOM     26  C   UNL     1       3.551   3.569  17.684  0.00  0.00    +0.000 C 
ATOM     27  O   UNL     1       2.961   2.691  17.061  0.00  0.00    +0.000 OA
ATOM     28  N   UNL     1       4.757   4.133  17.260  0.00  0.00    +0.000 N 
ATOM     29  C   UNL     1       5.388   3.633  16.041  0.00  0.00    +0.000 C 
ATOM     30  C   UNL     1       5.511   4.736  14.987  0.00  0.00    +0.000 C 
ATOM     31  C   UNL     1       6.152   6.008  15.547  0.00  0.00    +0.000 C 
ATOM     32  C   UNL     1       5.472   6.454  16.834  0.00  0.00    +0.000 C 
ATOM     33  C   UNL     1       5.395   5.320  17.844  0.00  0.00    +0.000 C 
BRANCH  31  34
ATOM     34  O   UNL     1       7.550   5.823  15.770  0.00  0.00    +0.000 OA
ATOM     35  H   UNL     1       8.049   6.511  15.300  0.00  0.00    +0.000 HD
ENDBRANCH  31  34
ENDBRANCH  22  26
ENDBRANCH   2  20
TORSDOF 7
ENDMDL
