MODEL 1
REMARK VINA RESULT:      -9.3      0.000      0.000
REMARK  Name = 
REMARK  5 active torsions:
REMARK  status: ('A' for Active; 'I' for Inactive)
REMARK    1  A    between atoms: C_1  and  N_2
REMARK    2  A    between atoms: C_6  and  C_7
REMARK    3  A    between atoms: C_7  and  C_8
REMARK    4  A    between atoms: C_8  and  C_9
REMARK    5  A    between atoms: C_13  and  N_14
REMARK                            x       y       z     vdW  Elec       q    Type
REMARK                         _______ _______ _______ _____ _____    ______ ____
ROOT
ATOM      1  N   UNL     1       1.981   8.315  17.942  0.00  0.00    +0.000 N 
ATOM      2  C   UNL     1       2.344   7.414  18.939  0.00  0.00    +0.000 C 
ATOM      3  O   UNL     1       2.048   7.567  20.129  0.00  0.00    +0.000 OA
ATOM      4  N   UNL     1       2.812   6.150  18.491  0.00  0.00    +0.000 N 
ATOM      5  C   UNL     1       2.312   5.047  19.357  0.00  0.00    +0.000 C 
ATOM      6  C   UNL     1       2.997   3.776  18.902  0.00  0.00    +0.000 C 
ATOM      7  C   UNL     1       2.384   2.365  19.129  0.00  0.00    +0.000 C 
ATOM      8  N   UNL     1       2.675   2.028  17.719  0.00  0.00    +0.000 NA
ATOM      9  C   UNL     1       2.710   3.455  17.388  0.00  0.00    +0.000 C 
ATOM     10  O   UNL     1       4.363   3.917  19.387  0.00  0.00    +0.000 OA
ATOM     11  C   UNL     1       4.991   4.989  18.766  0.00  0.00    +0.000 A 
ATOM     12  C   UNL     1       6.293   4.665  18.412  0.00  0.00    +0.000 A 
ATOM     13  C   UNL     1       6.644   4.969  17.120  0.00  0.00    +0.000 A 
ATOM     14  C   UNL     1       5.746   5.734  16.377  0.00  0.00    +0.000 A 
ATOM     15  N   UNL     1       4.601   6.336  16.861  0.00  0.00    +0.000 NA
ATOM     16  C   UNL     1       4.211   5.974  18.101  0.00  0.00    +0.000 A 
ATOM     17  H   UNL     1       2.466   8.221  17.064  0.00  0.00    +0.000 HD
ATOM     18  H   UNL     1       1.959   1.499  17.223  0.00  0.00    +0.000 HD
ENDROOT
BRANCH   1  23
ATOM     19  C   UNL     1      -1.181  10.470  17.710  0.00  0.00    +0.000 A 
ATOM     20  C   UNL     1      -0.777  11.574  18.476  0.00  0.00    +0.000 A 
ATOM     21  C   UNL     1       0.480  11.606  19.077  0.00  0.00    +0.000 A 
ATOM     22  C   UNL     1       1.399  10.557  18.876  0.00  0.00    +0.000 A 
ATOM     23  C   UNL     1       1.087   9.420  18.105  0.00  0.00    +0.000 A 
ATOM     24  C   UNL     1      -0.216   9.407  17.559  0.00  0.00    +0.000 A 
BRANCH  19  25
ATOM     25  C   UNL     1      -2.668  10.449  17.041  0.00  0.00    +0.000 C 
ATOM     26  C   UNL     1      -2.902   9.478  15.840  0.00  0.00    +0.000 C 
ATOM     27  O   UNL     1      -3.218  10.561  14.947  0.00  0.00    +0.000 OA
ATOM     28  C   UNL     1      -3.001  11.537  15.987  0.00  0.00    +0.000 C 
BRANCH  25  29
ATOM     29  C   UNL     1      -3.750  10.166  18.100  0.00  0.00    +0.000 C 
BRANCH  29  35
ATOM     30  C   UNL     1      -3.759  12.646  20.053  0.00  0.00    +0.000 C 
ATOM     31  N   UNL     1      -4.786  12.262  19.122  0.00  0.00    +0.000 N 
ATOM     32  C   UNL     1      -5.991  12.881  18.981  0.00  0.00    +0.000 A 
ATOM     33  N   UNL     1      -6.689  12.280  18.049  0.00  0.00    +0.000 NA
ATOM     34  N   UNL     1      -5.933  11.236  17.575  0.00  0.00    +0.000 NA
ATOM     35  C   UNL     1      -4.792  11.217  18.234  0.00  0.00    +0.000 A 
ENDBRANCH  29  35
ENDBRANCH  25  29
ENDBRANCH  19  25
ENDBRANCH   1  23
TORSDOF 4
ENDMDL
MODEL 2
REMARK VINA RESULT:      -9.1      2.069      3.572
REMARK  Name = 
REMARK  5 active torsions:
REMARK  status: ('A' for Active; 'I' for Inactive)
REMARK    1  A    between atoms: C_1  and  N_2
REMARK    2  A    between atoms: C_6  and  C_7
REMARK    3  A    between atoms: C_7  and  C_8
REMARK    4  A    between atoms: C_8  and  C_9
REMARK    5  A    between atoms: C_13  and  N_14
REMARK                            x       y       z     vdW  Elec       q    Type
REMARK                         _______ _______ _______ _____ _____    ______ ____
ROOT
ATOM      1  N   UNL     1       2.030   7.211  20.236  0.00  0.00    +0.000 N 
ATOM      2  C   UNL     1       2.459   6.957  18.936  0.00  0.00    +0.000 C 
ATOM      3  O   UNL     1       2.186   7.691  17.979  0.00  0.00    +0.000 OA
ATOM      4  N   UNL     1       3.481   5.981  18.800  0.00  0.00    +0.000 N 
ATOM      5  C   UNL     1       4.473   6.373  17.762  0.00  0.00    +0.000 C 
ATOM      6  C   UNL     1       5.414   5.201  17.576  0.00  0.00    +0.000 C 
ATOM      7  C   UNL     1       6.864   5.366  17.042  0.00  0.00    +0.000 C 
ATOM      8  N   UNL     1       7.351   4.500  18.139  0.00  0.00    +0.000 NA
ATOM      9  C   UNL     1       6.147   4.811  18.914  0.00  0.00    +0.000 C 
ATOM     10  O   UNL     1       4.619   4.221  16.850  0.00  0.00    +0.000 OA
ATOM     11  C   UNL     1       3.547   3.794  17.624  0.00  0.00    +0.000 A 
ATOM     12  C   UNL     1       3.373   2.422  17.517  0.00  0.00    +0.000 A 
ATOM     13  C   UNL     1       3.242   1.751  18.707  0.00  0.00    +0.000 A 
ATOM     14  C   UNL     1       3.099   2.520  19.862  0.00  0.00    +0.000 A 
ATOM     15  N   UNL     1       2.934   3.890  19.905  0.00  0.00    +0.000 NA
ATOM     16  C   UNL     1       3.144   4.558  18.752  0.00  0.00    +0.000 A 
ATOM     17  H   UNL     1       2.104   6.442  20.882  0.00  0.00    +0.000 HD
ATOM     18  H   UNL     1       8.223   4.781  18.585  0.00  0.00    +0.000 HD
ENDROOT
BRANCH   1  23
ATOM     19  C   UNL     1       0.060  10.498  20.155  0.00  0.00    +0.000 A 
ATOM     20  C   UNL     1       0.006  10.782  21.528  0.00  0.00    +0.000 A 
ATOM     21  C   UNL     1       0.572   9.912  22.459  0.00  0.00    +0.000 A 
ATOM     22  C   UNL     1       1.264   8.760  22.039  0.00  0.00    +0.000 A 
ATOM     23  C   UNL     1       1.386   8.408  20.680  0.00  0.00    +0.000 A 
ATOM     24  C   UNL     1       0.754   9.290  19.776  0.00  0.00    +0.000 A 
BRANCH  19  25
ATOM     25  C   UNL     1      -0.634  11.520  19.090  0.00  0.00    +0.000 C 
ATOM     26  C   UNL     1       0.281  12.601  18.431  0.00  0.00    +0.000 C 
ATOM     27  O   UNL     1      -0.490  13.681  18.988  0.00  0.00    +0.000 OA
ATOM     28  C   UNL     1      -1.375  12.759  19.656  0.00  0.00    +0.000 C 
BRANCH  25  29
ATOM     29  C   UNL     1      -1.348  10.749  17.963  0.00  0.00    +0.000 C 
BRANCH  29  35
ATOM     30  C   UNL     1      -2.991  10.782  15.267  0.00  0.00    +0.000 C 
ATOM     31  N   UNL     1      -3.457  11.139  16.581  0.00  0.00    +0.000 N 
ATOM     32  C   UNL     1      -4.694  11.630  16.869  0.00  0.00    +0.000 A 
ATOM     33  N   UNL     1      -4.791  11.851  18.158  0.00  0.00    +0.000 NA
ATOM     34  N   UNL     1      -3.590  11.509  18.728  0.00  0.00    +0.000 NA
ATOM     35  C   UNL     1      -2.781  11.094  17.773  0.00  0.00    +0.000 A 
ENDBRANCH  29  35
ENDBRANCH  25  29
ENDBRANCH  19  25
ENDBRANCH   1  23
TORSDOF 4
ENDMDL
MODEL 3
REMARK VINA RESULT:      -9.1      2.691      3.820
REMARK  Name = 
REMARK  5 active torsions:
REMARK  status: ('A' for Active; 'I' for Inactive)
REMARK    1  A    between atoms: C_1  and  N_2
REMARK    2  A    between atoms: C_6  and  C_7
REMARK    3  A    between atoms: C_7  and  C_8
REMARK    4  A    between atoms: C_8  and  C_9
REMARK    5  A    between atoms: C_13  and  N_14
REMARK                            x       y       z     vdW  Elec       q    Type
REMARK                         _______ _______ _______ _____ _____    ______ ____
ROOT
ATOM      1  N   UNL     1       1.874   8.315  17.898  0.00  0.00    +0.000 N 
ATOM      2  C   UNL     1       2.306   7.439  18.890  0.00  0.00    +0.000 C 
ATOM      3  O   UNL     1       2.046   7.593  20.088  0.00  0.00    +0.000 OA
ATOM      4  N   UNL     1       2.805   6.189  18.437  0.00  0.00    +0.000 N 
ATOM      5  C   UNL     1       2.379   5.077  19.331  0.00  0.00    +0.000 C 
ATOM      6  C   UNL     1       3.096   3.828  18.864  0.00  0.00    +0.000 C 
ATOM      7  C   UNL     1       2.545   2.398  19.125  0.00  0.00    +0.000 C 
ATOM      8  N   UNL     1       2.798   2.056  17.708  0.00  0.00    +0.000 NA
ATOM      9  C   UNL     1       2.767   3.480  17.364  0.00  0.00    +0.000 C 
ATOM     10  O   UNL     1       4.471   4.025  19.297  0.00  0.00    +0.000 OA
ATOM     11  C   UNL     1       5.035   5.114  18.645  0.00  0.00    +0.000 A 
ATOM     12  C   UNL     1       6.335   4.836  18.247  0.00  0.00    +0.000 A 
ATOM     13  C   UNL     1       6.628   5.139  16.941  0.00  0.00    +0.000 A 
ATOM     14  C   UNL     1       5.676   5.862  16.223  0.00  0.00    +0.000 A 
ATOM     15  N   UNL     1       4.527   6.425  16.743  0.00  0.00    +0.000 NA
ATOM     16  C   UNL     1       4.196   6.061  17.999  0.00  0.00    +0.000 A 
ATOM     17  H   UNL     1       2.330   8.230  17.005  0.00  0.00    +0.000 HD
ATOM     18  H   UNL     1       2.086   1.495  17.243  0.00  0.00    +0.000 HD
ENDROOT
BRANCH   1  23
ATOM     19  C   UNL     1       0.446  11.725  18.913  0.00  0.00    +0.000 A 
ATOM     20  C   UNL     1      -0.856  11.603  18.405  0.00  0.00    +0.000 A 
ATOM     21  C   UNL     1      -1.252  10.452  17.725  0.00  0.00    +0.000 A 
ATOM     22  C   UNL     1      -0.373   9.360  17.587  0.00  0.00    +0.000 A 
ATOM     23  C   UNL     1       0.944   9.387  18.084  0.00  0.00    +0.000 A 
ATOM     24  C   UNL     1       1.319  10.592  18.719  0.00  0.00    +0.000 A 
BRANCH  19  25
ATOM     25  C   UNL     1       0.890  13.094  19.681  0.00  0.00    +0.000 C 
ATOM     26  C   UNL     1       0.969  14.401  18.830  0.00  0.00    +0.000 C 
ATOM     27  O   UNL     1       2.374  14.561  19.095  0.00  0.00    +0.000 OA
ATOM     28  C   UNL     1       2.406  13.350  19.879  0.00  0.00    +0.000 C 
BRANCH  25  29
ATOM     29  C   UNL     1      -0.017  13.369  20.895  0.00  0.00    +0.000 C 
BRANCH  29  35
ATOM     30  C   UNL     1      -2.737  12.648  22.327  0.00  0.00    +0.000 C 
ATOM     31  N   UNL     1      -1.498  11.919  22.383  0.00  0.00    +0.000 N 
ATOM     32  C   UNL     1      -1.273  10.810  23.140  0.00  0.00    +0.000 A 
ATOM     33  N   UNL     1      -0.042  10.396  22.961  0.00  0.00    +0.000 NA
ATOM     34  N   UNL     1       0.558  11.256  22.076  0.00  0.00    +0.000 NA
ATOM     35  C   UNL     1      -0.317  12.183  21.740  0.00  0.00    +0.000 A 
ENDBRANCH  29  35
ENDBRANCH  25  29
ENDBRANCH  19  25
ENDBRANCH   1  23
TORSDOF 4
ENDMDL
MODEL 4
REMARK VINA RESULT:      -9.0      3.303      4.878
REMARK  Name = 
REMARK  5 active torsions:
REMARK  status: ('A' for Active; 'I' for Inactive)
REMARK    1  A    between atoms: C_1  and  N_2
REMARK    2  A    between atoms: C_6  and  C_7
REMARK    3  A    between atoms: C_7  and  C_8
REMARK    4  A    between atoms: C_8  and  C_9
REMARK    5  A    between atoms: C_13  and  N_14
REMARK                            x       y       z     vdW  Elec       q    Type
REMARK                         _______ _______ _______ _____ _____    ______ ____
ROOT
ATOM      1  N   UNL     1       2.024   7.110  20.342  0.00  0.00    +0.000 N 
ATOM      2  C   UNL     1       2.434   6.905  19.028  0.00  0.00    +0.000 C 
ATOM      3  O   UNL     1       2.145   7.671  18.103  0.00  0.00    +0.000 OA
ATOM      4  N   UNL     1       3.457   5.938  18.843  0.00  0.00    +0.000 N 
ATOM      5  C   UNL     1       4.433   6.370  17.805  0.00  0.00    +0.000 C 
ATOM      6  C   UNL     1       5.374   5.208  17.564  0.00  0.00    +0.000 C 
ATOM      7  C   UNL     1       6.816   5.397  17.015  0.00  0.00    +0.000 C 
ATOM      8  N   UNL     1       7.321   4.493  18.072  0.00  0.00    +0.000 NA
ATOM      9  C   UNL     1       6.128   4.772  18.875  0.00  0.00    +0.000 C 
ATOM     10  O   UNL     1       4.571   4.252  16.815  0.00  0.00    +0.000 OA
ATOM     11  C   UNL     1       3.512   3.794  17.588  0.00  0.00    +0.000 A 
ATOM     12  C   UNL     1       3.340   2.426  17.436  0.00  0.00    +0.000 A 
ATOM     13  C   UNL     1       3.229   1.713  18.603  0.00  0.00    +0.000 A 
ATOM     14  C   UNL     1       3.101   2.440  19.786  0.00  0.00    +0.000 A 
ATOM     15  N   UNL     1       2.932   3.807  19.881  0.00  0.00    +0.000 NA
ATOM     16  C   UNL     1       3.124   4.516  18.749  0.00  0.00    +0.000 A 
ATOM     17  H   UNL     1       2.110   6.320  20.960  0.00  0.00    +0.000 HD
ATOM     18  H   UNL     1       8.199   4.762  18.516  0.00  0.00    +0.000 HD
ENDROOT
BRANCH   1  23
ATOM     19  C   UNL     1       0.360  10.563  20.409  0.00  0.00    +0.000 A 
ATOM     20  C   UNL     1       0.021  10.642  21.769  0.00  0.00    +0.000 A 
ATOM     21  C   UNL     1       0.301   9.588  22.637  0.00  0.00    +0.000 A 
ATOM     22  C   UNL     1       0.987   8.445  22.181  0.00  0.00    +0.000 A 
ATOM     23  C   UNL     1       1.384   8.290  20.839  0.00  0.00    +0.000 A 
ATOM     24  C   UNL     1       1.034   9.359  19.985  0.00  0.00    +0.000 A 
BRANCH  19  25
ATOM     25  C   UNL     1      -0.004  11.801  19.411  0.00  0.00    +0.000 C 
ATOM     26  C   UNL     1      -1.143  12.771  19.857  0.00  0.00    +0.000 C 
ATOM     27  O   UNL     1      -1.947  12.453  18.707  0.00  0.00    +0.000 OA
ATOM     28  C   UNL     1      -0.962  11.515  18.226  0.00  0.00    +0.000 C 
BRANCH  25  29
ATOM     29  C   UNL     1       1.246  12.646  19.095  0.00  0.00    +0.000 C 
BRANCH  29  35
ATOM     30  C   UNL     1       0.959  15.790  19.053  0.00  0.00    +0.000 C 
ATOM     31  N   UNL     1       1.538  14.978  20.090  0.00  0.00    +0.000 N 
ATOM     32  C   UNL     1       2.136  15.452  21.218  0.00  0.00    +0.000 A 
ATOM     33  N   UNL     1       2.556  14.448  21.949  0.00  0.00    +0.000 NA
ATOM     34  N   UNL     1       2.238  13.291  21.284  0.00  0.00    +0.000 NA
ATOM     35  C   UNL     1       1.638  13.612  20.155  0.00  0.00    +0.000 A 
ENDBRANCH  29  35
ENDBRANCH  25  29
ENDBRANCH  19  25
ENDBRANCH   1  23
TORSDOF 4
ENDMDL
MODEL 5
REMARK VINA RESULT:      -9.0      2.244      3.587
REMARK  Name = 
REMARK  5 active torsions:
REMARK  status: ('A' for Active; 'I' for Inactive)
REMARK    1  A    between atoms: C_1  and  N_2
REMARK    2  A    between atoms: C_6  and  C_7
REMARK    3  A    between atoms: C_7  and  C_8
REMARK    4  A    between atoms: C_8  and  C_9
REMARK    5  A    between atoms: C_13  and  N_14
REMARK                            x       y       z     vdW  Elec       q    Type
REMARK                         _______ _______ _______ _____ _____    ______ ____
ROOT
ATOM      1  N   UNL     1       1.998   7.121  20.264  0.00  0.00    +0.000 N 
ATOM      2  C   UNL     1       2.454   6.900  18.967  0.00  0.00    +0.000 C 
ATOM      3  O   UNL     1       2.187   7.648  18.021  0.00  0.00    +0.000 OA
ATOM      4  N   UNL     1       3.493   5.942  18.831  0.00  0.00    +0.000 N 
ATOM      5  C   UNL     1       4.498   6.370  17.819  0.00  0.00    +0.000 C 
ATOM      6  C   UNL     1       5.460   5.216  17.628  0.00  0.00    +0.000 C 
ATOM      7  C   UNL     1       6.917   5.413  17.124  0.00  0.00    +0.000 C 
ATOM      8  N   UNL     1       7.397   4.533  18.212  0.00  0.00    +0.000 NA
ATOM      9  C   UNL     1       6.174   4.810  18.971  0.00  0.00    +0.000 C 
ATOM     10  O   UNL     1       4.694   4.239  16.868  0.00  0.00    +0.000 OA
ATOM     11  C   UNL     1       3.615   3.780  17.614  0.00  0.00    +0.000 A 
ATOM     12  C   UNL     1       3.464   2.408  17.478  0.00  0.00    +0.000 A 
ATOM     13  C   UNL     1       3.322   1.712  18.652  0.00  0.00    +0.000 A 
ATOM     14  C   UNL     1       3.146   2.456  19.818  0.00  0.00    +0.000 A 
ATOM     15  N   UNL     1       2.959   3.822  19.886  0.00  0.00    +0.000 NA
ATOM     16  C   UNL     1       3.179   4.515  18.750  0.00  0.00    +0.000 A 
ATOM     17  H   UNL     1       2.072   6.341  20.897  0.00  0.00    +0.000 HD
ATOM     18  H   UNL     1       8.256   4.819  18.680  0.00  0.00    +0.000 HD
ENDROOT
BRANCH   1  23
ATOM     19  C   UNL     1      -0.333  10.164  20.309  0.00  0.00    +0.000 A 
ATOM     20  C   UNL     1      -0.108  10.622  21.617  0.00  0.00    +0.000 A 
ATOM     21  C   UNL     1       0.757   9.941  22.472  0.00  0.00    +0.000 A 
ATOM     22  C   UNL     1       1.475   8.816  22.023  0.00  0.00    +0.000 A 
ATOM     23  C   UNL     1       1.328   8.300  20.720  0.00  0.00    +0.000 A 
ATOM     24  C   UNL     1       0.402   8.989  19.905  0.00  0.00    +0.000 A 
BRANCH  19  25
ATOM     25  C   UNL     1      -1.371  10.965  19.340  0.00  0.00    +0.000 C 
ATOM     26  C   UNL     1      -0.760  11.897  18.246  0.00  0.00    +0.000 C 
ATOM     27  O   UNL     1      -1.388  13.065  18.804  0.00  0.00    +0.000 OA
ATOM     28  C   UNL     1      -1.977  12.290  19.869  0.00  0.00    +0.000 C 
BRANCH  25  29
ATOM     29  C   UNL     1      -2.346   9.993  18.646  0.00  0.00    +0.000 C 
BRANCH  29  35
ATOM     30  C   UNL     1      -4.746  11.804  17.683  0.00  0.00    +0.000 C 
ATOM     31  N   UNL     1      -3.788  11.113  16.863  0.00  0.00    +0.000 N 
ATOM     32  C   UNL     1      -3.805  11.068  15.502  0.00  0.00    +0.000 A 
ATOM     33  N   UNL     1      -2.793  10.355  15.072  0.00  0.00    +0.000 NA
ATOM     34  N   UNL     1      -2.102   9.911  16.172  0.00  0.00    +0.000 NA
ATOM     35  C   UNL     1      -2.712  10.356  17.252  0.00  0.00    +0.000 A 
ENDBRANCH  29  35
ENDBRANCH  25  29
ENDBRANCH  19  25
ENDBRANCH   1  23
TORSDOF 4
ENDMDL
MODEL 6
REMARK VINA RESULT:      -8.8      2.245      4.091
REMARK  Name = 
REMARK  5 active torsions:
REMARK  status: ('A' for Active; 'I' for Inactive)
REMARK    1  A    between atoms: C_1  and  N_2
REMARK    2  A    between atoms: C_6  and  C_7
REMARK    3  A    between atoms: C_7  and  C_8
REMARK    4  A    between atoms: C_8  and  C_9
REMARK    5  A    between atoms: C_13  and  N_14
REMARK                            x       y       z     vdW  Elec       q    Type
REMARK                         _______ _______ _______ _____ _____    ______ ____
ROOT
ATOM      1  N   UNL     1       1.806   7.387  20.427  0.00  0.00    +0.000 N 
ATOM      2  C   UNL     1       2.238   7.166  19.122  0.00  0.00    +0.000 C 
ATOM      3  O   UNL     1       2.027   7.957  18.198  0.00  0.00    +0.000 OA
ATOM      4  N   UNL     1       3.199   6.134  18.955  0.00  0.00    +0.000 N 
ATOM      5  C   UNL     1       4.229   6.509  17.948  0.00  0.00    +0.000 C 
ATOM      6  C   UNL     1       5.097   5.288  17.720  0.00  0.00    +0.000 C 
ATOM      7  C   UNL     1       6.563   5.385  17.213  0.00  0.00    +0.000 C 
ATOM      8  N   UNL     1       6.977   4.441  18.274  0.00  0.00    +0.000 NA
ATOM      9  C   UNL     1       5.784   4.792  19.047  0.00  0.00    +0.000 C 
ATOM     10  O   UNL     1       4.254   4.395  16.940  0.00  0.00    +0.000 OA
ATOM     11  C   UNL     1       3.145   4.002  17.680  0.00  0.00    +0.000 A 
ATOM     12  C   UNL     1       2.887   2.650  17.508  0.00  0.00    +0.000 A 
ATOM     13  C   UNL     1       2.696   1.936  18.664  0.00  0.00    +0.000 A 
ATOM     14  C   UNL     1       2.584   2.660  19.851  0.00  0.00    +0.000 A 
ATOM     15  N   UNL     1       2.504   4.034  19.956  0.00  0.00    +0.000 NA
ATOM     16  C   UNL     1       2.774   4.738  18.837  0.00  0.00    +0.000 A 
ATOM     17  H   UNL     1       1.822   6.587  21.039  0.00  0.00    +0.000 HD
ATOM     18  H   UNL     1       7.858   4.645  18.743  0.00  0.00    +0.000 HD
ENDROOT
BRANCH   1  23
ATOM     19  C   UNL     1       0.686  11.049  20.584  0.00  0.00    +0.000 A 
ATOM     20  C   UNL     1       0.023  11.047  21.821  0.00  0.00    +0.000 A 
ATOM     21  C   UNL     1      -0.082   9.877  22.572  0.00  0.00    +0.000 A 
ATOM     22  C   UNL     1       0.529   8.686  22.136  0.00  0.00    +0.000 A 
ATOM     23  C   UNL     1       1.233   8.602  20.919  0.00  0.00    +0.000 A 
ATOM     24  C   UNL     1       1.269   9.797  20.166  0.00  0.00    +0.000 A 
BRANCH  19  25
ATOM     25  C   UNL     1       0.769  12.426  19.713  0.00  0.00    +0.000 C 
ATOM     26  C   UNL     1       2.186  12.907  19.265  0.00  0.00    +0.000 C 
ATOM     27  O   UNL     1       2.067  14.138  20.000  0.00  0.00    +0.000 OA
ATOM     28  C   UNL     1       0.760  13.770  20.486  0.00  0.00    +0.000 C 
BRANCH  25  29
ATOM     29  C   UNL     1      -0.125  12.348  18.461  0.00  0.00    +0.000 C 
BRANCH  29  35
ATOM     30  C   UNL     1      -1.901  10.094  17.144  0.00  0.00    +0.000 C 
ATOM     31  N   UNL     1      -2.311  11.080  18.107  0.00  0.00    +0.000 N 
ATOM     32  C   UNL     1      -3.583  11.251  18.564  0.00  0.00    +0.000 A 
ATOM     33  N   UNL     1      -3.612  12.235  19.430  0.00  0.00    +0.000 NA
ATOM     34  N   UNL     1      -2.336  12.729  19.537  0.00  0.00    +0.000 NA
ATOM     35  C   UNL     1      -1.556  12.042  18.727  0.00  0.00    +0.000 A 
ENDBRANCH  29  35
ENDBRANCH  25  29
ENDBRANCH  19  25
ENDBRANCH   1  23
TORSDOF 4
ENDMDL
MODEL 7
REMARK VINA RESULT:      -8.7      2.942      4.536
REMARK  Name = 
REMARK  5 active torsions:
REMARK  status: ('A' for Active; 'I' for Inactive)
REMARK    1  A    between atoms: C_1  and  N_2
REMARK    2  A    between atoms: C_6  and  C_7
REMARK    3  A    between atoms: C_7  and  C_8
REMARK    4  A    between atoms: C_8  and  C_9
REMARK    5  A    between atoms: C_13  and  N_14
REMARK                            x       y       z     vdW  Elec       q    Type
REMARK                         _______ _______ _______ _____ _____    ______ ____
ROOT
ATOM      1  N   UNL     1       1.919   7.408  20.300  0.00  0.00    +0.000 N 
ATOM      2  C   UNL     1       2.401   7.193  19.011  0.00  0.00    +0.000 C 
ATOM      3  O   UNL     1       2.142   7.938  18.060  0.00  0.00    +0.000 OA
ATOM      4  N   UNL     1       3.454   6.247  18.894  0.00  0.00    +0.000 N 
ATOM      5  C   UNL     1       4.471   6.687  17.900  0.00  0.00    +0.000 C 
ATOM      6  C   UNL     1       5.450   5.544  17.726  0.00  0.00    +0.000 C 
ATOM      7  C   UNL     1       6.913   5.759  17.248  0.00  0.00    +0.000 C 
ATOM      8  N   UNL     1       7.384   4.884  18.344  0.00  0.00    +0.000 NA
ATOM      9  C   UNL     1       6.145   5.146  19.081  0.00  0.00    +0.000 C 
ATOM     10  O   UNL     1       4.709   4.558  16.952  0.00  0.00    +0.000 OA
ATOM     11  C   UNL     1       3.622   4.087  17.678  0.00  0.00    +0.000 A 
ATOM     12  C   UNL     1       3.490   2.713  17.539  0.00  0.00    +0.000 A 
ATOM     13  C   UNL     1       3.335   2.015  18.710  0.00  0.00    +0.000 A 
ATOM     14  C   UNL     1       3.130   2.756  19.873  0.00  0.00    +0.000 A 
ATOM     15  N   UNL     1       2.925   4.120  19.938  0.00  0.00    +0.000 NA
ATOM     16  C   UNL     1       3.158   4.816  18.806  0.00  0.00    +0.000 A 
ATOM     17  H   UNL     1       1.991   6.628  20.934  0.00  0.00    +0.000 HD
ATOM     18  H   UNL     1       8.232   5.179  18.827  0.00  0.00    +0.000 HD
ENDROOT
BRANCH   1  23
ATOM     19  C   UNL     1      -0.228  10.582  20.227  0.00  0.00    +0.000 A 
ATOM     20  C   UNL     1      -0.248  10.892  21.595  0.00  0.00    +0.000 A 
ATOM     21  C   UNL     1       0.396  10.074  22.522  0.00  0.00    +0.000 A 
ATOM     22  C   UNL     1       1.135   8.952  22.099  0.00  0.00    +0.000 A 
ATOM     23  C   UNL     1       1.228   8.578  20.744  0.00  0.00    +0.000 A 
ATOM     24  C   UNL     1       0.517   9.406  19.846  0.00  0.00    +0.000 A 
BRANCH  19  25
ATOM     25  C   UNL     1      -1.012  11.543  19.168  0.00  0.00    +0.000 C 
ATOM     26  C   UNL     1      -2.573  11.551  19.225  0.00  0.00    +0.000 C 
ATOM     27  O   UNL     1      -2.686  11.061  17.877  0.00  0.00    +0.000 OA
ATOM     28  C   UNL     1      -1.252  10.996  17.737  0.00  0.00    +0.000 C 
BRANCH  25  29
ATOM     29  C   UNL     1      -0.524  13.001  19.273  0.00  0.00    +0.000 C 
BRANCH  29  35
ATOM     30  C   UNL     1       1.374  14.272  21.452  0.00  0.00    +0.000 C 
ATOM     31  N   UNL     1       1.742  13.773  20.154  0.00  0.00    +0.000 N 
ATOM     32  C   UNL     1       2.991  13.835  19.614  0.00  0.00    +0.000 A 
ATOM     33  N   UNL     1       2.983  13.293  18.421  0.00  0.00    +0.000 NA
ATOM     34  N   UNL     1       1.700  12.875  18.166  0.00  0.00    +0.000 NA
ATOM     35  C   UNL     1       0.950  13.179  19.206  0.00  0.00    +0.000 A 
ENDBRANCH  29  35
ENDBRANCH  25  29
ENDBRANCH  19  25
ENDBRANCH   1  23
TORSDOF 4
ENDMDL
MODEL 8
REMARK VINA RESULT:      -8.7      3.391      4.816
REMARK  Name = 
REMARK  5 active torsions:
REMARK  status: ('A' for Active; 'I' for Inactive)
REMARK    1  A    between atoms: C_1  and  N_2
REMARK    2  A    between atoms: C_6  and  C_7
REMARK    3  A    between atoms: C_7  and  C_8
REMARK    4  A    between atoms: C_8  and  C_9
REMARK    5  A    between atoms: C_13  and  N_14
REMARK                            x       y       z     vdW  Elec       q    Type
REMARK                         _______ _______ _______ _____ _____    ______ ____
ROOT
ATOM      1  N   UNL     1       1.889   8.554  18.125  0.00  0.00    +0.000 N 
ATOM      2  C   UNL     1       2.204   7.596  19.084  0.00  0.00    +0.000 C 
ATOM      3  O   UNL     1       1.916   7.717  20.280  0.00  0.00    +0.000 OA
ATOM      4  N   UNL     1       2.603   6.328  18.585  0.00  0.00    +0.000 N 
ATOM      5  C   UNL     1       2.045   5.220  19.408  0.00  0.00    +0.000 C 
ATOM      6  C   UNL     1       2.661   3.933  18.901  0.00  0.00    +0.000 C 
ATOM      7  C   UNL     1       1.974   2.549  19.073  0.00  0.00    +0.000 C 
ATOM      8  N   UNL     1       2.246   2.253  17.649  0.00  0.00    +0.000 NA
ATOM      9  C   UNL     1       2.357   3.688  17.376  0.00  0.00    +0.000 C 
ATOM     10  O   UNL     1       4.032   3.981  19.388  0.00  0.00    +0.000 OA
ATOM     11  C   UNL     1       4.717   5.042  18.809  0.00  0.00    +0.000 A 
ATOM     12  C   UNL     1       5.999   4.664  18.439  0.00  0.00    +0.000 A 
ATOM     13  C   UNL     1       6.366   4.999  17.161  0.00  0.00    +0.000 A 
ATOM     14  C   UNL     1       5.511   5.841  16.450  0.00  0.00    +0.000 A 
ATOM     15  N   UNL     1       4.400   6.483  16.961  0.00  0.00    +0.000 NA
ATOM     16  C   UNL     1       3.991   6.093  18.185  0.00  0.00    +0.000 A 
ATOM     17  H   UNL     1       2.369   8.470  17.243  0.00  0.00    +0.000 HD
ATOM     18  H   UNL     1       1.502   1.783  17.134  0.00  0.00    +0.000 HD
ENDROOT
BRANCH   1  23
ATOM     19  C   UNL     1       0.801  12.113  19.046  0.00  0.00    +0.000 A 
ATOM     20  C   UNL     1      -0.555  12.050  18.692  0.00  0.00    +0.000 A 
ATOM     21  C   UNL     1      -1.097  10.890  18.142  0.00  0.00    +0.000 A 
ATOM     22  C   UNL     1      -0.309   9.732  17.986  0.00  0.00    +0.000 A 
ATOM     23  C   UNL     1       1.056   9.698  18.334  0.00  0.00    +0.000 A 
ATOM     24  C   UNL     1       1.575  10.911  18.839  0.00  0.00    +0.000 A 
BRANCH  19  25
ATOM     25  C   UNL     1       1.414  13.493  19.663  0.00  0.00    +0.000 C 
ATOM     26  C   UNL     1       2.612  13.366  20.656  0.00  0.00    +0.000 C 
ATOM     27  O   UNL     1       1.869  13.974  21.727  0.00  0.00    +0.000 OA
ATOM     28  C   UNL     1       0.700  14.112  20.893  0.00  0.00    +0.000 C 
BRANCH  25  29
ATOM     29  C   UNL     1       1.823  14.469  18.543  0.00  0.00    +0.000 C 
BRANCH  29  35
ATOM     30  C   UNL     1      -0.491  16.610  18.375  0.00  0.00    +0.000 C 
ATOM     31  N   UNL     1       0.862  16.816  18.818  0.00  0.00    +0.000 N 
ATOM     32  C   UNL     1       1.396  18.017  19.178  0.00  0.00    +0.000 A 
ATOM     33  N   UNL     1       2.649  17.854  19.528  0.00  0.00    +0.000 NA
ATOM     34  N   UNL     1       2.949  16.522  19.385  0.00  0.00    +0.000 NA
ATOM     35  C   UNL     1       1.874  15.900  18.942  0.00  0.00    +0.000 A 
ENDBRANCH  29  35
ENDBRANCH  25  29
ENDBRANCH  19  25
ENDBRANCH   1  23
TORSDOF 4
ENDMDL
MODEL 9
REMARK VINA RESULT:      -8.7      2.417      4.167
REMARK  Name = 
REMARK  5 active torsions:
REMARK  status: ('A' for Active; 'I' for Inactive)
REMARK    1  A    between atoms: C_1  and  N_2
REMARK    2  A    between atoms: C_6  and  C_7
REMARK    3  A    between atoms: C_7  and  C_8
REMARK    4  A    between atoms: C_8  and  C_9
REMARK    5  A    between atoms: C_13  and  N_14
REMARK                            x       y       z     vdW  Elec       q    Type
REMARK                         _______ _______ _______ _____ _____    ______ ____
ROOT
ATOM      1  N   UNL     1       1.595   7.518  20.550  0.00  0.00    +0.000 N 
ATOM      2  C   UNL     1       2.053   7.324  19.250  0.00  0.00    +0.000 C 
ATOM      3  O   UNL     1       1.907   8.158  18.350  0.00  0.00    +0.000 OA
ATOM      4  N   UNL     1       2.968   6.253  19.069  0.00  0.00    +0.000 N 
ATOM      5  C   UNL     1       4.045   6.614  18.106  0.00  0.00    +0.000 C 
ATOM      6  C   UNL     1       4.859   5.362  17.856  0.00  0.00    +0.000 C 
ATOM      7  C   UNL     1       6.343   5.406  17.393  0.00  0.00    +0.000 C 
ATOM      8  N   UNL     1       6.680   4.404  18.428  0.00  0.00    +0.000 NA
ATOM      9  C   UNL     1       5.482   4.785  19.182  0.00  0.00    +0.000 C 
ATOM     10  O   UNL     1       3.998   4.540  17.019  0.00  0.00    +0.000 OA
ATOM     11  C   UNL     1       2.851   4.175  17.713  0.00  0.00    +0.000 A 
ATOM     12  C   UNL     1       2.533   2.844  17.483  0.00  0.00    +0.000 A 
ATOM     13  C   UNL     1       2.275   2.099  18.606  0.00  0.00    +0.000 A 
ATOM     14  C   UNL     1       2.162   2.783  19.816  0.00  0.00    +0.000 A 
ATOM     15  N   UNL     1       2.146   4.154  19.970  0.00  0.00    +0.000 NA
ATOM     16  C   UNL     1       2.481   4.885  18.887  0.00  0.00    +0.000 A 
ATOM     17  H   UNL     1       1.554   6.696  21.131  0.00  0.00    +0.000 HD
ATOM     18  H   UNL     1       7.556   4.549  18.930  0.00  0.00    +0.000 HD
ENDROOT
BRANCH   1  23
ATOM     19  C   UNL     1       0.750  11.243  20.871  0.00  0.00    +0.000 A 
ATOM     20  C   UNL     1      -0.045  11.212  22.027  0.00  0.00    +0.000 A 
ATOM     21  C   UNL     1      -0.323  10.007  22.670  0.00  0.00    +0.000 A 
ATOM     22  C   UNL     1       0.239   8.800  22.210  0.00  0.00    +0.000 A 
ATOM     23  C   UNL     1       1.065   8.741  21.071  0.00  0.00    +0.000 A 
ATOM     24  C   UNL     1       1.278   9.977  20.421  0.00  0.00    +0.000 A 
BRANCH  19  25
ATOM     25  C   UNL     1       1.037  12.664  20.125  0.00  0.00    +0.000 C 
ATOM     26  C   UNL     1       1.794  12.619  18.760  0.00  0.00    +0.000 C 
ATOM     27  O   UNL     1       2.887  13.402  19.271  0.00  0.00    +0.000 OA
ATOM     28  C   UNL     1       2.276  13.479  20.576  0.00  0.00    +0.000 C 
BRANCH  25  29
ATOM     29  C   UNL     1      -0.268  13.458  19.919  0.00  0.00    +0.000 C 
BRANCH  29  35
ATOM     30  C   UNL     1      -3.183  12.734  20.892  0.00  0.00    +0.000 C 
ATOM     31  N   UNL     1      -2.575  12.404  19.631  0.00  0.00    +0.000 N 
ATOM     32  C   UNL     1      -3.148  11.645  18.657  0.00  0.00    +0.000 A 
ATOM     33  N   UNL     1      -2.326  11.538  17.641  0.00  0.00    +0.000 NA
ATOM     34  N   UNL     1      -1.184  12.231  17.958  0.00  0.00    +0.000 NA
ATOM     35  C   UNL     1      -1.330  12.740  19.165  0.00  0.00    +0.000 A 
ENDBRANCH  29  35
ENDBRANCH  25  29
ENDBRANCH  19  25
ENDBRANCH   1  23
TORSDOF 4
ENDMDL
