MODEL 1
REMARK VINA RESULT:      -9.4      0.000      0.000
REMARK  Name = 
REMARK  9 active torsions:
REMARK  status: ('A' for Active; 'I' for Inactive)
REMARK    1  A    between atoms: C_1  and  C_2
REMARK    2  A    between atoms: N_6  and  C_7
REMARK    3  A    between atoms: C_7  and  C_8
REMARK    4  A    between atoms: C_12  and  C_13
REMARK    5  A    between atoms: N_19  and  C_20
REMARK    6  A    between atoms: C_24  and  C_25
REMARK    7  A    between atoms: C_25  and  C_26
REMARK    8  A    between atoms: C_26  and  C_27
REMARK    9  A    between atoms: N_31  and  C_32
REMARK                            x       y       z     vdW  Elec       q    Type
REMARK                         _______ _______ _______ _____ _____    ______ ____
ROOT
ATOM      1  C   UNL     1       3.887   4.695  17.964  0.00  0.00    +0.000 A 
ATOM      2  C   UNL     1       3.487   6.031  17.911  0.00  0.00    +0.000 A 
ATOM      3  C   UNL     1       2.675   6.501  18.919  0.00  0.00    +0.000 A 
ATOM      4  C   UNL     1       2.222   5.703  19.963  0.00  0.00    +0.000 A 
ATOM      5  C   UNL     1       2.583   4.361  20.036  0.00  0.00    +0.000 A 
ATOM      6  C   UNL     1       3.439   3.872  19.024  0.00  0.00    +0.000 A 
ATOM      7  C   UNL     1       1.357   6.529  20.859  0.00  0.00    +0.000 C 
ATOM      8  N   UNL     1       1.390   7.853  20.240  0.00  0.00    +0.000 N 
ATOM      9  C   UNL     1       2.150   7.854  19.074  0.00  0.00    +0.000 C 
ATOM     10  O   UNL     1       2.389   8.734  18.268  0.00  0.00    +0.000 OA
ENDROOT
BRANCH   8  11
ATOM     11  C   UNL     1       0.697   8.959  20.783  0.00  0.00    +0.000 A 
ATOM     12  C   UNL     1       0.580   9.161  22.159  0.00  0.00    +0.000 A 
ATOM     13  C   UNL     1      -0.082  10.278  22.664  0.00  0.00    +0.000 A 
ATOM     14  C   UNL     1      -0.662  11.195  21.791  0.00  0.00    +0.000 A 
ATOM     15  C   UNL     1      -0.618  11.014  20.397  0.00  0.00    +0.000 A 
ATOM     16  C   UNL     1       0.093   9.891  19.929  0.00  0.00    +0.000 A 
BRANCH  15  17
ATOM     17  C   UNL     1      -1.356  11.997  19.380  0.00  0.00    +0.000 C 
ATOM     18  C   UNL     1      -1.614  11.514  17.921  0.00  0.00    +0.000 C 
ATOM     19  O   UNL     1      -2.995  11.971  17.995  0.00  0.00    +0.000 OA
ATOM     20  C   UNL     1      -2.910  11.947  19.441  0.00  0.00    +0.000 C 
BRANCH  17  21
ATOM     21  C   UNL     1      -0.783  13.425  19.452  0.00  0.00    +0.000 C 
BRANCH  21  22
ATOM     22  C   UNL     1       0.710  13.466  19.359  0.00  0.00    +0.000 A 
ATOM     23  N   UNL     1       1.430  13.091  18.319  0.00  0.00    +0.000 NA
ATOM     24  N   UNL     1       2.757  13.295  18.613  0.00  0.00    +0.000 NA
ATOM     25  C   UNL     1       2.821  13.792  19.826  0.00  0.00    +0.000 A 
ATOM     26  N   UNL     1       1.566  13.907  20.337  0.00  0.00    +0.000 N 
ATOM     27  C   UNL     1       1.243  14.407  21.645  0.00  0.00    +0.000 C 
ENDBRANCH  21  22
ENDBRANCH  17  21
ENDBRANCH  15  17
ENDBRANCH   8  11
BRANCH   5  28
ATOM     28  C   UNL     1       2.078   3.440  21.117  0.00  0.00    +0.000 C 
ATOM     29  F   UNL     1       2.611   2.188  21.058  0.00  0.00    +0.000 F 
ATOM     30  F   UNL     1       2.361   3.904  22.365  0.00  0.00    +0.000 F 
ATOM     31  F   UNL     1       0.729   3.270  21.074  0.00  0.00    +0.000 F 
ENDBRANCH   5  28
BRANCH   1  32
ATOM     32  C   UNL     1       4.765   4.163  16.852  0.00  0.00    +0.000 C 
BRANCH  32  38
ATOM     33  C   UNL     1       7.380   5.088  17.401  0.00  0.00    +0.000 C 
ATOM     34  C   UNL     1       6.735   5.391  16.045  0.00  0.00    +0.000 C 
ATOM     35  C   UNL     1       7.344   4.578  14.946  0.00  0.00    +0.000 C 
ATOM     36  C   UNL     1       6.408   4.221  14.067  0.00  0.00    +0.000 C 
ATOM     37  C   UNL     1       5.082   4.749  14.493  0.00  0.00    +0.000 C 
ATOM     38  N   UNL     1       5.254   5.180  15.907  0.00  0.00    +0.000 NA
ENDBRANCH  32  38
ENDBRANCH   1  32
TORSDOF 7
ENDMDL
MODEL 2
REMARK VINA RESULT:      -9.4      0.462      1.286
REMARK  Name = 
REMARK  9 active torsions:
REMARK  status: ('A' for Active; 'I' for Inactive)
REMARK    1  A    between atoms: C_1  and  C_2
REMARK    2  A    between atoms: N_6  and  C_7
REMARK    3  A    between atoms: C_7  and  C_8
REMARK    4  A    between atoms: C_12  and  C_13
REMARK    5  A    between atoms: N_19  and  C_20
REMARK    6  A    between atoms: C_24  and  C_25
REMARK    7  A    between atoms: C_25  and  C_26
REMARK    8  A    between atoms: C_26  and  C_27
REMARK    9  A    between atoms: N_31  and  C_32
REMARK                            x       y       z     vdW  Elec       q    Type
REMARK                         _______ _______ _______ _____ _____    ______ ____
ROOT
ATOM      1  C   UNL     1       3.795   4.736  17.854  0.00  0.00    +0.000 A 
ATOM      2  C   UNL     1       3.391   6.071  17.818  0.00  0.00    +0.000 A 
ATOM      3  C   UNL     1       2.613   6.538  18.853  0.00  0.00    +0.000 A 
ATOM      4  C   UNL     1       2.196   5.736  19.910  0.00  0.00    +0.000 A 
ATOM      5  C   UNL     1       2.562   4.395  19.968  0.00  0.00    +0.000 A 
ATOM      6  C   UNL     1       3.384   3.910  18.927  0.00  0.00    +0.000 A 
ATOM      7  C   UNL     1       1.360   6.559  20.837  0.00  0.00    +0.000 C 
ATOM      8  N   UNL     1       1.370   7.883  20.220  0.00  0.00    +0.000 N 
ATOM      9  C   UNL     1       2.090   7.889  19.029  0.00  0.00    +0.000 C 
ATOM     10  O   UNL     1       2.301   8.772  18.217  0.00  0.00    +0.000 OA
ENDROOT
BRANCH   8  11
ATOM     11  C   UNL     1       0.694   8.987  20.788  0.00  0.00    +0.000 A 
ATOM     12  C   UNL     1       0.606   9.175  22.168  0.00  0.00    +0.000 A 
ATOM     13  C   UNL     1      -0.040  10.291  22.698  0.00  0.00    +0.000 A 
ATOM     14  C   UNL     1      -0.634  11.219  21.846  0.00  0.00    +0.000 A 
ATOM     15  C   UNL     1      -0.618  11.052  20.450  0.00  0.00    +0.000 A 
ATOM     16  C   UNL     1       0.077   9.931  19.957  0.00  0.00    +0.000 A 
BRANCH  15  17
ATOM     17  C   UNL     1      -1.372  12.049  19.459  0.00  0.00    +0.000 C 
ATOM     18  C   UNL     1      -1.663  11.583  18.001  0.00  0.00    +0.000 C 
ATOM     19  O   UNL     1      -3.039  12.046  18.107  0.00  0.00    +0.000 OA
ATOM     20  C   UNL     1      -2.925  12.006  19.551  0.00  0.00    +0.000 C 
BRANCH  17  21
ATOM     21  C   UNL     1      -0.791  13.474  19.534  0.00  0.00    +0.000 C 
BRANCH  21  22
ATOM     22  C   UNL     1       0.692  13.516  19.347  0.00  0.00    +0.000 A 
ATOM     23  N   UNL     1       1.345  13.155  18.258  0.00  0.00    +0.000 NA
ATOM     24  N   UNL     1       2.688  13.354  18.470  0.00  0.00    +0.000 NA
ATOM     25  C   UNL     1       2.830  13.833  19.684  0.00  0.00    +0.000 A 
ATOM     26  N   UNL     1       1.609  13.941  20.275  0.00  0.00    +0.000 N 
ATOM     27  C   UNL     1       1.371  14.423  21.608  0.00  0.00    +0.000 C 
ENDBRANCH  21  22
ENDBRANCH  17  21
ENDBRANCH  15  17
ENDBRANCH   8  11
BRANCH   5  28
ATOM     28  C   UNL     1       2.094   3.470  21.063  0.00  0.00    +0.000 C 
ATOM     29  F   UNL     1       0.745   3.286  21.081  0.00  0.00    +0.000 F 
ATOM     30  F   UNL     1       2.636   2.227  20.954  0.00  0.00    +0.000 F 
ATOM     31  F   UNL     1       2.423   3.919  22.304  0.00  0.00    +0.000 F 
ENDBRANCH   5  28
BRANCH   1  32
ATOM     32  C   UNL     1       4.636   4.208  16.711  0.00  0.00    +0.000 C 
BRANCH  32  38
ATOM     33  C   UNL     1       6.303   4.355  14.432  0.00  0.00    +0.000 C 
ATOM     34  C   UNL     1       6.914   4.482  15.832  0.00  0.00    +0.000 C 
ATOM     35  C   UNL     1       7.336   5.888  16.127  0.00  0.00    +0.000 C 
ATOM     36  C   UNL     1       7.106   6.176  17.408  0.00  0.00    +0.000 C 
ATOM     37  C   UNL     1       6.499   5.001  18.093  0.00  0.00    +0.000 C 
ATOM     38  N   UNL     1       6.072   4.076  17.007  0.00  0.00    +0.000 NA
ENDBRANCH  32  38
ENDBRANCH   1  32
TORSDOF 7
ENDMDL
MODEL 3
REMARK VINA RESULT:      -9.4      0.639      1.197
REMARK  Name = 
REMARK  9 active torsions:
REMARK  status: ('A' for Active; 'I' for Inactive)
REMARK    1  A    between atoms: C_1  and  C_2
REMARK    2  A    between atoms: N_6  and  C_7
REMARK    3  A    between atoms: C_7  and  C_8
REMARK    4  A    between atoms: C_12  and  C_13
REMARK    5  A    between atoms: N_19  and  C_20
REMARK    6  A    between atoms: C_24  and  C_25
REMARK    7  A    between atoms: C_25  and  C_26
REMARK    8  A    between atoms: C_26  and  C_27
REMARK    9  A    between atoms: N_31  and  C_32
REMARK                            x       y       z     vdW  Elec       q    Type
REMARK                         _______ _______ _______ _____ _____    ______ ____
ROOT
ATOM      1  C   UNL     1       3.986   4.687  17.950  0.00  0.00    +0.000 A 
ATOM      2  C   UNL     1       3.588   6.023  17.876  0.00  0.00    +0.000 A 
ATOM      3  C   UNL     1       2.754   6.502  18.860  0.00  0.00    +0.000 A 
ATOM      4  C   UNL     1       2.275   5.714  19.900  0.00  0.00    +0.000 A 
ATOM      5  C   UNL     1       2.632   4.372  19.993  0.00  0.00    +0.000 A 
ATOM      6  C   UNL     1       3.511   3.873  19.006  0.00  0.00    +0.000 A 
ATOM      7  C   UNL     1       1.389   6.549  20.768  0.00  0.00    +0.000 C 
ATOM      8  N   UNL     1       1.439   7.866  20.138  0.00  0.00    +0.000 N 
ATOM      9  C   UNL     1       2.226   7.857  18.990  0.00  0.00    +0.000 C 
ATOM     10  O   UNL     1       2.486   8.730  18.182  0.00  0.00    +0.000 OA
ENDROOT
BRANCH   8  11
ATOM     11  C   UNL     1       0.735   8.978  20.654  0.00  0.00    +0.000 A 
ATOM     12  C   UNL     1       0.736   9.293  22.014  0.00  0.00    +0.000 A 
ATOM     13  C   UNL     1       0.058  10.414  22.489  0.00  0.00    +0.000 A 
ATOM     14  C   UNL     1      -0.656  11.220  21.605  0.00  0.00    +0.000 A 
ATOM     15  C   UNL     1      -0.732  10.920  20.234  0.00  0.00    +0.000 A 
ATOM     16  C   UNL     1      -0.003   9.800  19.791  0.00  0.00    +0.000 A 
BRANCH  15  17
ATOM     17  C   UNL     1      -1.621  11.771  19.218  0.00  0.00    +0.000 C 
ATOM     18  C   UNL     1      -2.708  11.039  18.375  0.00  0.00    +0.000 C 
ATOM     19  O   UNL     1      -3.687  12.061  18.716  0.00  0.00    +0.000 OA
ATOM     20  C   UNL     1      -2.874  12.438  19.853  0.00  0.00    +0.000 C 
BRANCH  17  21
ATOM     21  C   UNL     1      -0.762  12.742  18.386  0.00  0.00    +0.000 C 
BRANCH  21  22
ATOM     22  C   UNL     1       0.282  13.446  19.194  0.00  0.00    +0.000 A 
ATOM     23  N   UNL     1       0.059  14.380  20.099  0.00  0.00    +0.000 NA
ATOM     24  N   UNL     1       1.266  14.765  20.632  0.00  0.00    +0.000 NA
ATOM     25  C   UNL     1       2.202  14.058  20.043  0.00  0.00    +0.000 A 
ATOM     26  N   UNL     1       1.634  13.227  19.128  0.00  0.00    +0.000 N 
ATOM     27  C   UNL     1       2.348  12.306  18.286  0.00  0.00    +0.000 C 
ENDBRANCH  21  22
ENDBRANCH  17  21
ENDBRANCH  15  17
ENDBRANCH   8  11
BRANCH   5  28
ATOM     28  C   UNL     1       2.100   3.461  21.070  0.00  0.00    +0.000 C 
ATOM     29  F   UNL     1       2.392   3.882  22.332  0.00  0.00    +0.000 F 
ATOM     30  F   UNL     1       0.745   3.344  21.024  0.00  0.00    +0.000 F 
ATOM     31  F   UNL     1       2.592   2.197  20.978  0.00  0.00    +0.000 F 
ENDBRANCH   5  28
BRANCH   1  32
ATOM     32  C   UNL     1       4.889   4.144  16.863  0.00  0.00    +0.000 C 
BRANCH  32  38
ATOM     33  C   UNL     1       7.276   5.620  17.210  0.00  0.00    +0.000 C 
ATOM     34  C   UNL     1       6.590   5.592  15.840  0.00  0.00    +0.000 C 
ATOM     35  C   UNL     1       7.349   4.757  14.856  0.00  0.00    +0.000 C 
ATOM     36  C   UNL     1       6.503   4.103  14.061  0.00  0.00    +0.000 C 
ATOM     37  C   UNL     1       5.099   4.426  14.437  0.00  0.00    +0.000 C 
ATOM     38  N   UNL     1       5.178   5.085  15.769  0.00  0.00    +0.000 NA
ENDBRANCH  32  38
ENDBRANCH   1  32
TORSDOF 7
ENDMDL
MODEL 4
REMARK VINA RESULT:      -9.3      0.876      1.598
REMARK  Name = 
REMARK  9 active torsions:
REMARK  status: ('A' for Active; 'I' for Inactive)
REMARK    1  A    between atoms: C_1  and  C_2
REMARK    2  A    between atoms: N_6  and  C_7
REMARK    3  A    between atoms: C_7  and  C_8
REMARK    4  A    between atoms: C_12  and  C_13
REMARK    5  A    between atoms: N_19  and  C_20
REMARK    6  A    between atoms: C_24  and  C_25
REMARK    7  A    between atoms: C_25  and  C_26
REMARK    8  A    between atoms: C_26  and  C_27
REMARK    9  A    between atoms: N_31  and  C_32
REMARK                            x       y       z     vdW  Elec       q    Type
REMARK                         _______ _______ _______ _____ _____    ______ ____
ROOT
ATOM      1  C   UNL     1       3.943   4.717  17.842  0.00  0.00    +0.000 A 
ATOM      2  C   UNL     1       3.541   6.050  17.755  0.00  0.00    +0.000 A 
ATOM      3  C   UNL     1       2.731   6.546  18.752  0.00  0.00    +0.000 A 
ATOM      4  C   UNL     1       2.281   5.775  19.817  0.00  0.00    +0.000 A 
ATOM      5  C   UNL     1       2.644   4.435  19.925  0.00  0.00    +0.000 A 
ATOM      6  C   UNL     1       3.499   3.921  18.924  0.00  0.00    +0.000 A 
ATOM      7  C   UNL     1       1.417   6.623  20.693  0.00  0.00    +0.000 C 
ATOM      8  N   UNL     1       1.447   7.929  20.040  0.00  0.00    +0.000 N 
ATOM      9  C   UNL     1       2.204   7.901  18.872  0.00  0.00    +0.000 C 
ATOM     10  O   UNL     1       2.440   8.760  18.042  0.00  0.00    +0.000 OA
ENDROOT
BRANCH   8  11
ATOM     11  C   UNL     1       0.754   9.049  20.554  0.00  0.00    +0.000 A 
ATOM     12  C   UNL     1       0.810   9.402  21.904  0.00  0.00    +0.000 A 
ATOM     13  C   UNL     1       0.141  10.529  22.376  0.00  0.00    +0.000 A 
ATOM     14  C   UNL     1      -0.619  11.303  21.502  0.00  0.00    +0.000 A 
ATOM     15  C   UNL     1      -0.750  10.964  20.144  0.00  0.00    +0.000 A 
ATOM     16  C   UNL     1      -0.028   9.838  19.702  0.00  0.00    +0.000 A 
BRANCH  15  17
ATOM     17  C   UNL     1      -1.690  11.778  19.144  0.00  0.00    +0.000 C 
ATOM     18  C   UNL     1      -2.823  11.018  18.391  0.00  0.00    +0.000 C 
ATOM     19  O   UNL     1      -3.779  12.059  18.743  0.00  0.00    +0.000 OA
ATOM     20  C   UNL     1      -2.905  12.478  19.818  0.00  0.00    +0.000 C 
BRANCH  17  21
ATOM     21  C   UNL     1      -0.874  12.710  18.227  0.00  0.00    +0.000 C 
BRANCH  21  22
ATOM     22  C   UNL     1       0.065  13.600  18.978  0.00  0.00    +0.000 A 
ATOM     23  N   UNL     1      -0.277  14.642  19.711  0.00  0.00    +0.000 NA
ATOM     24  N   UNL     1       0.863  15.188  20.249  0.00  0.00    +0.000 NA
ATOM     25  C   UNL     1       1.879  14.469  19.836  0.00  0.00    +0.000 A 
ATOM     26  N   UNL     1       1.430  13.470  19.029  0.00  0.00    +0.000 N 
ATOM     27  C   UNL     1       2.256  12.485  18.386  0.00  0.00    +0.000 C 
ENDBRANCH  21  22
ENDBRANCH  17  21
ENDBRANCH  15  17
ENDBRANCH   8  11
BRANCH   5  28
ATOM     28  C   UNL     1       2.142   3.542  21.031  0.00  0.00    +0.000 C 
ATOM     29  F   UNL     1       2.654   2.281  20.986  0.00  0.00    +0.000 F 
ATOM     30  F   UNL     1       2.454   4.024  22.265  0.00  0.00    +0.000 F 
ATOM     31  F   UNL     1       0.791   3.394  21.013  0.00  0.00    +0.000 F 
ENDBRANCH   5  28
BRANCH   1  32
ATOM     32  C   UNL     1       4.819   4.156  16.742  0.00  0.00    +0.000 C 
BRANCH  32  38
ATOM     33  C   UNL     1       6.489   4.943  14.600  0.00  0.00    +0.000 C 
ATOM     34  C   UNL     1       7.065   4.840  16.016  0.00  0.00    +0.000 C 
ATOM     35  C   UNL     1       7.329   6.190  16.607  0.00  0.00    +0.000 C 
ATOM     36  C   UNL     1       7.053   6.182  17.911  0.00  0.00    +0.000 C 
ATOM     37  C   UNL     1       6.568   4.835  18.319  0.00  0.00    +0.000 C 
ATOM     38  N   UNL     1       6.257   4.116  17.053  0.00  0.00    +0.000 NA
ENDBRANCH  32  38
ENDBRANCH   1  32
TORSDOF 7
ENDMDL
MODEL 5
REMARK VINA RESULT:      -9.3      1.250      1.937
REMARK  Name = 
REMARK  9 active torsions:
REMARK  status: ('A' for Active; 'I' for Inactive)
REMARK    1  A    between atoms: C_1  and  C_2
REMARK    2  A    between atoms: N_6  and  C_7
REMARK    3  A    between atoms: C_7  and  C_8
REMARK    4  A    between atoms: C_12  and  C_13
REMARK    5  A    between atoms: N_19  and  C_20
REMARK    6  A    between atoms: C_24  and  C_25
REMARK    7  A    between atoms: C_25  and  C_26
REMARK    8  A    between atoms: C_26  and  C_27
REMARK    9  A    between atoms: N_31  and  C_32
REMARK                            x       y       z     vdW  Elec       q    Type
REMARK                         _______ _______ _______ _____ _____    ______ ____
ROOT
ATOM      1  C   UNL     1       3.751   4.755  17.860  0.00  0.00    +0.000 A 
ATOM      2  C   UNL     1       3.371   6.098  17.880  0.00  0.00    +0.000 A 
ATOM      3  C   UNL     1       2.614   6.538  18.942  0.00  0.00    +0.000 A 
ATOM      4  C   UNL     1       2.195   5.703  19.972  0.00  0.00    +0.000 A 
ATOM      5  C   UNL     1       2.536   4.354  19.973  0.00  0.00    +0.000 A 
ATOM      6  C   UNL     1       3.337   3.895  18.904  0.00  0.00    +0.000 A 
ATOM      7  C   UNL     1       1.384   6.504  20.940  0.00  0.00    +0.000 C 
ATOM      8  N   UNL     1       1.412   7.851  20.375  0.00  0.00    +0.000 N 
ATOM      9  C   UNL     1       2.118   7.890  19.177  0.00  0.00    +0.000 C 
ATOM     10  O   UNL     1       2.336   8.800  18.397  0.00  0.00    +0.000 OA
ENDROOT
BRANCH   8  11
ATOM     11  C   UNL     1       0.763   8.944  20.994  0.00  0.00    +0.000 A 
ATOM     12  C   UNL     1       0.285   8.880  22.304  0.00  0.00    +0.000 A 
ATOM     13  C   UNL     1      -0.323   9.985  22.897  0.00  0.00    +0.000 A 
ATOM     14  C   UNL     1      -0.485  11.162  22.171  0.00  0.00    +0.000 A 
ATOM     15  C   UNL     1      -0.068  11.264  20.832  0.00  0.00    +0.000 A 
ATOM     16  C   UNL     1       0.574  10.137  20.284  0.00  0.00    +0.000 A 
BRANCH  15  17
ATOM     17  C   UNL     1      -0.329  12.567  19.950  0.00  0.00    +0.000 C 
ATOM     18  C   UNL     1       0.608  12.855  18.738  0.00  0.00    +0.000 C 
ATOM     19  O   UNL     1      -0.543  13.117  17.886  0.00  0.00    +0.000 OA
ATOM     20  C   UNL     1      -1.378  12.385  18.816  0.00  0.00    +0.000 C 
BRANCH  17  21
ATOM     21  C   UNL     1      -0.580  13.808  20.827  0.00  0.00    +0.000 C 
BRANCH  21  22
ATOM     22  C   UNL     1       0.678  14.513  21.225  0.00  0.00    +0.000 A 
ATOM     23  N   UNL     1       1.524  14.117  22.157  0.00  0.00    +0.000 NA
ATOM     24  N   UNL     1       2.560  15.018  22.215  0.00  0.00    +0.000 NA
ATOM     25  C   UNL     1       2.328  15.946  21.317  0.00  0.00    +0.000 A 
ATOM     26  N   UNL     1       1.156  15.677  20.680  0.00  0.00    +0.000 N 
ATOM     27  C   UNL     1       0.574  16.478  19.637  0.00  0.00    +0.000 C 
ENDBRANCH  21  22
ENDBRANCH  17  21
ENDBRANCH  15  17
ENDBRANCH   8  11
BRANCH   5  28
ATOM     28  C   UNL     1       2.064   3.396  21.038  0.00  0.00    +0.000 C 
ATOM     29  F   UNL     1       2.339   3.812  22.305  0.00  0.00    +0.000 F 
ATOM     30  F   UNL     1       0.718   3.201  20.996  0.00  0.00    +0.000 F 
ATOM     31  F   UNL     1       2.629   2.165  20.922  0.00  0.00    +0.000 F 
ENDBRANCH   5  28
BRANCH   1  32
ATOM     32  C   UNL     1       4.569   4.257  16.687  0.00  0.00    +0.000 C 
BRANCH  32  38
ATOM     33  C   UNL     1       6.245   4.676  14.449  0.00  0.00    +0.000 C 
ATOM     34  C   UNL     1       6.853   4.613  15.854  0.00  0.00    +0.000 C 
ATOM     35  C   UNL     1       7.293   5.962  16.329  0.00  0.00    +0.000 C 
ATOM     36  C   UNL     1       7.062   6.085  17.636  0.00  0.00    +0.000 C 
ATOM     37  C   UNL     1       6.437   4.840  18.162  0.00  0.00    +0.000 C 
ATOM     38  N   UNL     1       6.002   4.069  16.965  0.00  0.00    +0.000 NA
ENDBRANCH  32  38
ENDBRANCH   1  32
TORSDOF 7
ENDMDL
MODEL 6
REMARK VINA RESULT:      -9.2      1.133      1.522
REMARK  Name = 
REMARK  9 active torsions:
REMARK  status: ('A' for Active; 'I' for Inactive)
REMARK    1  A    between atoms: C_1  and  C_2
REMARK    2  A    between atoms: N_6  and  C_7
REMARK    3  A    between atoms: C_7  and  C_8
REMARK    4  A    between atoms: C_12  and  C_13
REMARK    5  A    between atoms: N_19  and  C_20
REMARK    6  A    between atoms: C_24  and  C_25
REMARK    7  A    between atoms: C_25  and  C_26
REMARK    8  A    between atoms: C_26  and  C_27
REMARK    9  A    between atoms: N_31  and  C_32
REMARK                            x       y       z     vdW  Elec       q    Type
REMARK                         _______ _______ _______ _____ _____    ______ ____
ROOT
ATOM      1  C   UNL     1       3.860   4.727  18.043  0.00  0.00    +0.000 A 
ATOM      2  C   UNL     1       3.474   6.068  18.051  0.00  0.00    +0.000 A 
ATOM      3  C   UNL     1       2.665   6.499  19.078  0.00  0.00    +0.000 A 
ATOM      4  C   UNL     1       2.200   5.658  20.082  0.00  0.00    +0.000 A 
ATOM      5  C   UNL     1       2.546   4.310  20.093  0.00  0.00    +0.000 A 
ATOM      6  C   UNL     1       3.400   3.860  19.062  0.00  0.00    +0.000 A 
ATOM      7  C   UNL     1       1.340   6.450  21.014  0.00  0.00    +0.000 C 
ATOM      8  N   UNL     1       1.390   7.801  20.457  0.00  0.00    +0.000 N 
ATOM      9  C   UNL     1       2.153   7.849  19.295  0.00  0.00    +0.000 C 
ATOM     10  O   UNL     1       2.404   8.763  18.531  0.00  0.00    +0.000 OA
ENDROOT
BRANCH   8  11
ATOM     11  C   UNL     1       0.708   8.888  21.050  0.00  0.00    +0.000 A 
ATOM     12  C   UNL     1       0.210   8.833  22.353  0.00  0.00    +0.000 A 
ATOM     13  C   UNL     1      -0.431   9.933  22.920  0.00  0.00    +0.000 A 
ATOM     14  C   UNL     1      -0.607  11.095  22.174  0.00  0.00    +0.000 A 
ATOM     15  C   UNL     1      -0.170  11.187  20.841  0.00  0.00    +0.000 A 
ATOM     16  C   UNL     1       0.504  10.066  20.319  0.00  0.00    +0.000 A 
BRANCH  15  17
ATOM     17  C   UNL     1      -0.445  12.471  19.935  0.00  0.00    +0.000 C 
ATOM     18  C   UNL     1       0.474  12.733  18.703  0.00  0.00    +0.000 C 
ATOM     19  O   UNL     1      -0.691  12.977  17.864  0.00  0.00    +0.000 OA
ATOM     20  C   UNL     1      -1.512  12.265  18.821  0.00  0.00    +0.000 C 
BRANCH  17  21
ATOM     21  C   UNL     1      -0.683  13.731  20.790  0.00  0.00    +0.000 C 
BRANCH  21  22
ATOM     22  C   UNL     1       0.584  14.422  21.185  0.00  0.00    +0.000 A 
ATOM     23  N   UNL     1       1.410  14.035  22.139  0.00  0.00    +0.000 NA
ATOM     24  N   UNL     1       2.462  14.918  22.186  0.00  0.00    +0.000 NA
ATOM     25  C   UNL     1       2.259  15.825  21.260  0.00  0.00    +0.000 A 
ATOM     26  N   UNL     1       1.091  15.562  20.615  0.00  0.00    +0.000 N 
ATOM     27  C   UNL     1       0.538  16.345  19.544  0.00  0.00    +0.000 C 
ENDBRANCH  21  22
ENDBRANCH  17  21
ENDBRANCH  15  17
ENDBRANCH   8  11
BRANCH   5  28
ATOM     28  C   UNL     1       2.027   3.345  21.129  0.00  0.00    +0.000 C 
ATOM     29  F   UNL     1       2.317   3.712  22.408  0.00  0.00    +0.000 F 
ATOM     30  F   UNL     1       0.674   3.213  21.079  0.00  0.00    +0.000 F 
ATOM     31  F   UNL     1       2.535   2.092  20.979  0.00  0.00    +0.000 F 
ENDBRANCH   5  28
BRANCH   1  32
ATOM     32  C   UNL     1       4.735   4.237  16.908  0.00  0.00    +0.000 C 
BRANCH  32  38
ATOM     33  C   UNL     1       7.297   5.205  17.614  0.00  0.00    +0.000 C 
ATOM     34  C   UNL     1       6.712   5.534  16.237  0.00  0.00    +0.000 C 
ATOM     35  C   UNL     1       7.394   4.768  15.147  0.00  0.00    +0.000 C 
ATOM     36  C   UNL     1       6.511   4.416  14.212  0.00  0.00    +0.000 C 
ATOM     37  C   UNL     1       5.154   4.900  14.586  0.00  0.00    +0.000 C 
ATOM     38  N   UNL     1       5.246   5.293  16.019  0.00  0.00    +0.000 NA
ENDBRANCH  32  38
ENDBRANCH   1  32
TORSDOF 7
ENDMDL
MODEL 7
REMARK VINA RESULT:      -9.2      1.315      1.970
REMARK  Name = 
REMARK  9 active torsions:
REMARK  status: ('A' for Active; 'I' for Inactive)
REMARK    1  A    between atoms: C_1  and  C_2
REMARK    2  A    between atoms: N_6  and  C_7
REMARK    3  A    between atoms: C_7  and  C_8
REMARK    4  A    between atoms: C_12  and  C_13
REMARK    5  A    between atoms: N_19  and  C_20
REMARK    6  A    between atoms: C_24  and  C_25
REMARK    7  A    between atoms: C_25  and  C_26
REMARK    8  A    between atoms: C_26  and  C_27
REMARK    9  A    between atoms: N_31  and  C_32
REMARK                            x       y       z     vdW  Elec       q    Type
REMARK                         _______ _______ _______ _____ _____    ______ ____
ROOT
ATOM      1  C   UNL     1       3.673   4.693  17.740  0.00  0.00    +0.000 A 
ATOM      2  C   UNL     1       3.332   6.046  17.720  0.00  0.00    +0.000 A 
ATOM      3  C   UNL     1       2.615   6.547  18.783  0.00  0.00    +0.000 A 
ATOM      4  C   UNL     1       2.200   5.764  19.855  0.00  0.00    +0.000 A 
ATOM      5  C   UNL     1       2.503   4.406  19.898  0.00  0.00    +0.000 A 
ATOM      6  C   UNL     1       3.263   3.885  18.827  0.00  0.00    +0.000 A 
ATOM      7  C   UNL     1       1.438   6.623  20.812  0.00  0.00    +0.000 C 
ATOM      8  N   UNL     1       1.489   7.947  20.195  0.00  0.00    +0.000 N 
ATOM      9  C   UNL     1       2.164   7.921  18.979  0.00  0.00    +0.000 C 
ATOM     10  O   UNL     1       2.386   8.794  18.160  0.00  0.00    +0.000 OA
ENDROOT
BRANCH   8  11
ATOM     11  C   UNL     1       0.887   9.080  20.789  0.00  0.00    +0.000 A 
ATOM     12  C   UNL     1       0.187   9.005  21.994  0.00  0.00    +0.000 A 
ATOM     13  C   UNL     1      -0.368  10.146  22.570  0.00  0.00    +0.000 A 
ATOM     14  C   UNL     1      -0.252  11.376  21.927  0.00  0.00    +0.000 A 
ATOM     15  C   UNL     1       0.399  11.499  20.687  0.00  0.00    +0.000 A 
ATOM     16  C   UNL     1       0.977  10.328  20.158  0.00  0.00    +0.000 A 
BRANCH  15  17
ATOM     17  C   UNL     1       0.462  12.877  19.884  0.00  0.00    +0.000 C 
ATOM     18  C   UNL     1      -0.561  13.125  18.735  0.00  0.00    +0.000 C 
ATOM     19  O   UNL     1      -0.852  14.453  19.256  0.00  0.00    +0.000 OA
ATOM     20  C   UNL     1      -0.323  14.048  20.542  0.00  0.00    +0.000 C 
BRANCH  17  21
ATOM     21  C   UNL     1       1.907  13.245  19.497  0.00  0.00    +0.000 C 
BRANCH  21  22
ATOM     22  C   UNL     1       2.600  14.075  20.531  0.00  0.00    +0.000 A 
ATOM     23  N   UNL     1       3.046  13.646  21.696  0.00  0.00    +0.000 NA
ATOM     24  N   UNL     1       3.634  14.700  22.352  0.00  0.00    +0.000 NA
ATOM     25  C   UNL     1       3.536  15.753  21.575  0.00  0.00    +0.000 A 
ATOM     26  N   UNL     1       2.887  15.413  20.429  0.00  0.00    +0.000 N 
ATOM     27  C   UNL     1       2.591  16.308  19.344  0.00  0.00    +0.000 C 
ENDBRANCH  21  22
ENDBRANCH  17  21
ENDBRANCH  15  17
ENDBRANCH   8  11
BRANCH   5  28
ATOM     28  C   UNL     1       2.033   3.502  21.009  0.00  0.00    +0.000 C 
ATOM     29  F   UNL     1       2.512   2.231  20.916  0.00  0.00    +0.000 F 
ATOM     30  F   UNL     1       2.414   3.952  22.236  0.00  0.00    +0.000 F 
ATOM     31  F   UNL     1       0.679   3.385  21.053  0.00  0.00    +0.000 F 
ENDBRANCH   5  28
BRANCH   1  32
ATOM     32  C   UNL     1       4.445   4.128  16.567  0.00  0.00    +0.000 C 
BRANCH  32  38
ATOM     33  C   UNL     1       6.031   4.047  14.227  0.00  0.00    +0.000 C 
ATOM     34  C   UNL     1       6.702   4.190  15.597  0.00  0.00    +0.000 C 
ATOM     35  C   UNL     1       7.238   5.571  15.812  0.00  0.00    +0.000 C 
ATOM     36  C   UNL     1       7.079   5.932  17.084  0.00  0.00    +0.000 C 
ATOM     37  C   UNL     1       6.413   4.838  17.844  0.00  0.00    +0.000 C 
ATOM     38  N   UNL     1       5.877   3.901  16.819  0.00  0.00    +0.000 NA
ENDBRANCH  32  38
ENDBRANCH   1  32
TORSDOF 7
ENDMDL
MODEL 8
REMARK VINA RESULT:      -9.2      0.872      1.445
REMARK  Name = 
REMARK  9 active torsions:
REMARK  status: ('A' for Active; 'I' for Inactive)
REMARK    1  A    between atoms: C_1  and  C_2
REMARK    2  A    between atoms: N_6  and  C_7
REMARK    3  A    between atoms: C_7  and  C_8
REMARK    4  A    between atoms: C_12  and  C_13
REMARK    5  A    between atoms: N_19  and  C_20
REMARK    6  A    between atoms: C_24  and  C_25
REMARK    7  A    between atoms: C_25  and  C_26
REMARK    8  A    between atoms: C_26  and  C_27
REMARK    9  A    between atoms: N_31  and  C_32
REMARK                            x       y       z     vdW  Elec       q    Type
REMARK                         _______ _______ _______ _____ _____    ______ ____
ROOT
ATOM      1  C   UNL     1       3.831   4.727  17.823  0.00  0.00    +0.000 A 
ATOM      2  C   UNL     1       3.440   6.067  17.851  0.00  0.00    +0.000 A 
ATOM      3  C   UNL     1       2.657   6.487  18.903  0.00  0.00    +0.000 A 
ATOM      4  C   UNL     1       2.224   5.637  19.914  0.00  0.00    +0.000 A 
ATOM      5  C   UNL     1       2.576   4.291  19.906  0.00  0.00    +0.000 A 
ATOM      6  C   UNL     1       3.403   3.852  18.848  0.00  0.00    +0.000 A 
ATOM      7  C   UNL     1       1.387   6.420  20.874  0.00  0.00    +0.000 C 
ATOM      8  N   UNL     1       1.415   7.774  20.326  0.00  0.00    +0.000 N 
ATOM      9  C   UNL     1       2.146   7.833  19.143  0.00  0.00    +0.000 C 
ATOM     10  O   UNL     1       2.372   8.754  18.379  0.00  0.00    +0.000 OA
ENDROOT
BRANCH   8  11
ATOM     11  C   UNL     1       0.744   8.854  20.944  0.00  0.00    +0.000 A 
ATOM     12  C   UNL     1       0.578   8.932  22.328  0.00  0.00    +0.000 A 
ATOM     13  C   UNL     1      -0.060  10.025  22.910  0.00  0.00    +0.000 A 
ATOM     14  C   UNL     1      -0.567  11.043  22.106  0.00  0.00    +0.000 A 
ATOM     15  C   UNL     1      -0.471  10.990  20.705  0.00  0.00    +0.000 A 
ATOM     16  C   UNL     1       0.213   9.887  20.160  0.00  0.00    +0.000 A 
BRANCH  15  17
ATOM     17  C   UNL     1      -1.127  12.095  19.758  0.00  0.00    +0.000 C 
ATOM     18  C   UNL     1      -1.053  11.901  18.214  0.00  0.00    +0.000 C 
ATOM     19  O   UNL     1      -2.469  12.214  18.088  0.00  0.00    +0.000 OA
ATOM     20  C   UNL     1      -2.647  11.902  19.491  0.00  0.00    +0.000 C 
BRANCH  17  21
ATOM     21  C   UNL     1      -0.757  13.522  20.207  0.00  0.00    +0.000 C 
BRANCH  21  22
ATOM     22  C   UNL     1       0.552  13.991  19.656  0.00  0.00    +0.000 A 
ATOM     23  N   UNL     1       1.706  13.360  19.760  0.00  0.00    +0.000 NA
ATOM     24  N   UNL     1       2.666  14.100  19.113  0.00  0.00    +0.000 NA
ATOM     25  C   UNL     1       2.080  15.168  18.626  0.00  0.00    +0.000 A 
ATOM     26  N   UNL     1       0.759  15.149  18.950  0.00  0.00    +0.000 N 
ATOM     27  C   UNL     1      -0.200  16.159  18.592  0.00  0.00    +0.000 C 
ENDBRANCH  21  22
ENDBRANCH  17  21
ENDBRANCH  15  17
ENDBRANCH   8  11
BRANCH   5  28
ATOM     28  C   UNL     1       2.090   3.317  20.949  0.00  0.00    +0.000 C 
ATOM     29  F   UNL     1       2.589   2.059  20.792  0.00  0.00    +0.000 F 
ATOM     30  F   UNL     1       2.433   3.696  22.210  0.00  0.00    +0.000 F 
ATOM     31  F   UNL     1       0.738   3.180  20.950  0.00  0.00    +0.000 F 
ENDBRANCH   5  28
BRANCH   1  32
ATOM     32  C   UNL     1       4.677   4.250  16.662  0.00  0.00    +0.000 C 
BRANCH  32  38
ATOM     33  C   UNL     1       6.357   4.811  14.458  0.00  0.00    +0.000 C 
ATOM     34  C   UNL     1       6.951   4.735  15.868  0.00  0.00    +0.000 C 
ATOM     35  C   UNL     1       7.322   6.089  16.388  0.00  0.00    +0.000 C 
ATOM     36  C   UNL     1       7.071   6.163  17.695  0.00  0.00    +0.000 C 
ATOM     37  C   UNL     1       6.499   4.875  18.177  0.00  0.00    +0.000 C 
ATOM     38  N   UNL     1       6.114   4.121  16.952  0.00  0.00    +0.000 NA
ENDBRANCH  32  38
ENDBRANCH   1  32
TORSDOF 7
ENDMDL
MODEL 9
REMARK VINA RESULT:      -9.2      1.796      2.999
REMARK  Name = 
REMARK  9 active torsions:
REMARK  status: ('A' for Active; 'I' for Inactive)
REMARK    1  A    between atoms: C_1  and  C_2
REMARK    2  A    between atoms: N_6  and  C_7
REMARK    3  A    between atoms: C_7  and  C_8
REMARK    4  A    between atoms: C_12  and  C_13
REMARK    5  A    between atoms: N_19  and  C_20
REMARK    6  A    between atoms: C_24  and  C_25
REMARK    7  A    between atoms: C_25  and  C_26
REMARK    8  A    between atoms: C_26  and  C_27
REMARK    9  A    between atoms: N_31  and  C_32
REMARK                            x       y       z     vdW  Elec       q    Type
REMARK                         _______ _______ _______ _____ _____    ______ ____
ROOT
ATOM      1  C   UNL     1       3.697   4.747  17.810  0.00  0.00    +0.000 A 
ATOM      2  C   UNL     1       3.329   6.093  17.815  0.00  0.00    +0.000 A 
ATOM      3  C   UNL     1       2.592   6.555  18.882  0.00  0.00    +0.000 A 
ATOM      4  C   UNL     1       2.182   5.741  19.932  0.00  0.00    +0.000 A 
ATOM      5  C   UNL     1       2.512   4.389  19.949  0.00  0.00    +0.000 A 
ATOM      6  C   UNL     1       3.292   3.907  18.875  0.00  0.00    +0.000 A 
ATOM      7  C   UNL     1       1.393   6.563  20.899  0.00  0.00    +0.000 C 
ATOM      8  N   UNL     1       1.424   7.901  20.313  0.00  0.00    +0.000 N 
ATOM      9  C   UNL     1       2.111   7.916  19.103  0.00  0.00    +0.000 C 
ATOM     10  O   UNL     1       2.324   8.811  18.306  0.00  0.00    +0.000 OA
ENDROOT
BRANCH   8  11
ATOM     11  C   UNL     1       0.794   9.009  20.924  0.00  0.00    +0.000 A 
ATOM     12  C   UNL     1       0.171   8.916  22.170  0.00  0.00    +0.000 A 
ATOM     13  C   UNL     1      -0.414  10.034  22.762  0.00  0.00    +0.000 A 
ATOM     14  C   UNL     1      -0.408  11.257  22.095  0.00  0.00    +0.000 A 
ATOM     15  C   UNL     1       0.161  11.394  20.817  0.00  0.00    +0.000 A 
ATOM     16  C   UNL     1       0.773  10.249  20.272  0.00  0.00    +0.000 A 
BRANCH  15  17
ATOM     17  C   UNL     1       0.097  12.758  19.992  0.00  0.00    +0.000 C 
ATOM     18  C   UNL     1      -0.414  14.046  20.706  0.00  0.00    +0.000 C 
ATOM     19  O   UNL     1       0.713  14.805  20.185  0.00  0.00    +0.000 OA
ATOM     20  C   UNL     1       1.427  13.564  19.965  0.00  0.00    +0.000 C 
BRANCH  17  21
ATOM     21  C   UNL     1      -0.526  12.553  18.598  0.00  0.00    +0.000 C 
BRANCH  21  22
ATOM     22  C   UNL     1      -1.944  12.077  18.652  0.00  0.00    +0.000 A 
ATOM     23  N   UNL     1      -2.923  12.638  19.336  0.00  0.00    +0.000 NA
ATOM     24  N   UNL     1      -4.073  11.920  19.116  0.00  0.00    +0.000 NA
ATOM     25  C   UNL     1      -3.776  10.935  18.302  0.00  0.00    +0.000 A 
ATOM     26  N   UNL     1      -2.452  10.986  17.992  0.00  0.00    +0.000 N 
ATOM     27  C   UNL     1      -1.764  10.065  17.130  0.00  0.00    +0.000 C 
ENDBRANCH  21  22
ENDBRANCH  17  21
ENDBRANCH  15  17
ENDBRANCH   8  11
BRANCH   5  28
ATOM     28  C   UNL     1       2.049   3.452  21.035  0.00  0.00    +0.000 C 
ATOM     29  F   UNL     1       2.389   3.862  22.289  0.00  0.00    +0.000 F 
ATOM     30  F   UNL     1       0.696   3.305  21.048  0.00  0.00    +0.000 F 
ATOM     31  F   UNL     1       2.564   2.200  20.903  0.00  0.00    +0.000 F 
ENDBRANCH   5  28
BRANCH   1  32
ATOM     32  C   UNL     1       4.492   4.223  16.633  0.00  0.00    +0.000 C 
BRANCH  32  38
ATOM     33  C   UNL     1       6.108   4.227  14.312  0.00  0.00    +0.000 C 
ATOM     34  C   UNL     1       6.760   4.344  15.694  0.00  0.00    +0.000 C 
ATOM     35  C   UNL     1       7.272   5.727  15.951  0.00  0.00    +0.000 C 
ATOM     36  C   UNL     1       7.091   6.052  17.231  0.00  0.00    +0.000 C 
ATOM     37  C   UNL     1       6.433   4.929  17.953  0.00  0.00    +0.000 C 
ATOM     38  N   UNL     1       5.924   4.011  16.897  0.00  0.00    +0.000 NA
ENDBRANCH  32  38
ENDBRANCH   1  32
TORSDOF 7
ENDMDL
