MODEL 1
REMARK VINA RESULT:      -9.1      0.000      0.000
REMARK  Name = 
REMARK  10 active torsions:
REMARK  status: ('A' for Active; 'I' for Inactive)
REMARK    1  A    between atoms: C_1  and  N_2
REMARK    2  A    between atoms: C_6  and  C_7
REMARK    3  A    between atoms: C_7  and  C_8
REMARK    4  A    between atoms: C_8  and  C_9
REMARK    5  A    between atoms: C_13  and  N_14
REMARK    6  A    between atoms: C_19  and  C_20
REMARK    7  A    between atoms: C_20  and  N_21
REMARK    8  A    between atoms: C_23  and  C_24
REMARK    9  A    between atoms: C_23  and  C_25
REMARK   10  A    between atoms: C_29  and  C_30
REMARK                            x       y       z     vdW  Elec       q    Type
REMARK                         _______ _______ _______ _____ _____    ______ ____
ROOT
ATOM      1  N   UNL     1       2.396   7.349  19.186  0.00  0.00    +0.000 N 
ATOM      2  C   UNL     1       1.594   7.670  20.341  0.00  0.00    +0.000 C 
ATOM      3  C   UNL     1       1.140   9.046  20.095  0.00  0.00    +0.000 A 
ATOM      4  C   UNL     1       1.445   9.433  18.795  0.00  0.00    +0.000 A 
ATOM      5  C   UNL     1       0.981  10.652  18.308  0.00  0.00    +0.000 A 
ATOM      6  C   UNL     1       0.289  11.522  19.197  0.00  0.00    +0.000 A 
ATOM      7  C   UNL     1       0.145  11.137  20.551  0.00  0.00    +0.000 A 
ATOM      8  C   UNL     1       0.522   9.882  21.013  0.00  0.00    +0.000 A 
ATOM      9  C   UNL     1       2.329   8.363  18.230  0.00  0.00    +0.000 C 
ATOM     10  O   UNL     1       2.912   8.475  17.160  0.00  0.00    +0.000 OA
ENDROOT
BRANCH   1  15
ATOM     11  C   UNL     1       5.466   5.259  18.784  0.00  0.00    +0.000 A 
ATOM     12  C   UNL     1       4.969   4.015  19.187  0.00  0.00    +0.000 A 
ATOM     13  C   UNL     1       3.639   3.854  19.609  0.00  0.00    +0.000 A 
ATOM     14  C   UNL     1       2.752   4.937  19.630  0.00  0.00    +0.000 A 
ATOM     15  C   UNL     1       3.207   6.192  19.266  0.00  0.00    +0.000 A 
ATOM     16  C   UNL     1       4.561   6.316  18.889  0.00  0.00    +0.000 A 
BRANCH  11  17
ATOM     17  C   UNL     1       6.963   5.539  18.270  0.00  0.00    +0.000 C 
ATOM     18  C   UNL     1       7.956   5.844  19.430  0.00  0.00    +0.000 C 
ATOM     19  O   UNL     1       8.211   7.179  18.958  0.00  0.00    +0.000 OA
ATOM     20  C   UNL     1       7.328   6.994  17.832  0.00  0.00    +0.000 C 
BRANCH  17  21
ATOM     21  C   UNL     1       7.462   4.444  17.262  0.00  0.00    +0.000 C 
BRANCH  21  27
ATOM     22  C   UNL     1       4.733   3.320  15.748  0.00  0.00    +0.000 C 
ATOM     23  N   UNL     1       5.839   4.092  15.235  0.00  0.00    +0.000 N 
ATOM     24  C   UNL     1       5.883   4.467  13.913  0.00  0.00    +0.000 A 
ATOM     25  N   UNL     1       7.027   5.070  13.682  0.00  0.00    +0.000 NA
ATOM     26  N   UNL     1       7.737   5.114  14.862  0.00  0.00    +0.000 NA
ATOM     27  C   UNL     1       7.006   4.564  15.819  0.00  0.00    +0.000 A 
ENDBRANCH  21  27
ENDBRANCH  17  21
ENDBRANCH  11  17
ENDBRANCH   1  15
BRANCH   8  28
ATOM     28  C   UNL     1       0.285   9.488  22.446  0.00  0.00    +0.000 C 
ATOM     29  F   UNL     1      -0.294  10.450  23.212  0.00  0.00    +0.000 F 
ATOM     30  F   UNL     1      -0.513   8.392  22.539  0.00  0.00    +0.000 F 
ATOM     31  F   UNL     1       1.446   9.174  23.079  0.00  0.00    +0.000 F 
ENDBRANCH   8  28
BRANCH   6  32
ATOM     32  C   UNL     1      -0.427  12.779  18.714  0.00  0.00    +0.000 C 
BRANCH  32  33
ATOM     33  N   UNL     1      -1.802  12.603  18.204  0.00  0.00    +0.000 NA
ATOM     34  C   UNL     1      -1.944  11.652  17.084  0.00  0.00    +0.000 C 
ATOM     35  C   UNL     1      -3.148  10.979  17.823  0.00  0.00    +0.000 C 
ATOM     36  C   UNL     1      -3.186   9.456  17.898  0.00  0.00    +0.000 C 
ATOM     37  C   UNL     1      -2.597  11.714  19.083  0.00  0.00    +0.000 C 
BRANCH  35  38
ATOM     38  C   UNL     1      -4.434  11.485  17.393  0.00  0.00    +0.000 C 
ATOM     39  N   UNL     1      -5.493  11.866  17.078  0.00  0.00    +0.000 NA
ENDBRANCH  35  38
ENDBRANCH  32  33
ENDBRANCH   6  32
TORSDOF 8
ENDMDL
MODEL 2
REMARK VINA RESULT:      -9.0      0.754      1.159
REMARK  Name = 
REMARK  10 active torsions:
REMARK  status: ('A' for Active; 'I' for Inactive)
REMARK    1  A    between atoms: C_1  and  N_2
REMARK    2  A    between atoms: C_6  and  C_7
REMARK    3  A    between atoms: C_7  and  C_8
REMARK    4  A    between atoms: C_8  and  C_9
REMARK    5  A    between atoms: C_13  and  N_14
REMARK    6  A    between atoms: C_19  and  C_20
REMARK    7  A    between atoms: C_20  and  N_21
REMARK    8  A    between atoms: C_23  and  C_24
REMARK    9  A    between atoms: C_23  and  C_25
REMARK   10  A    between atoms: C_29  and  C_30
REMARK                            x       y       z     vdW  Elec       q    Type
REMARK                         _______ _______ _______ _____ _____    ______ ____
ROOT
ATOM      1  N   UNL     1       2.176   7.294  19.237  0.00  0.00    +0.000 N 
ATOM      2  C   UNL     1       1.435   7.608  20.434  0.00  0.00    +0.000 C 
ATOM      3  C   UNL     1       1.020   9.005  20.246  0.00  0.00    +0.000 A 
ATOM      4  C   UNL     1       1.284   9.420  18.946  0.00  0.00    +0.000 A 
ATOM      5  C   UNL     1       0.844  10.668  18.513  0.00  0.00    +0.000 A 
ATOM      6  C   UNL     1       0.221  11.534  19.455  0.00  0.00    +0.000 A 
ATOM      7  C   UNL     1       0.120  11.115  20.803  0.00  0.00    +0.000 A 
ATOM      8  C   UNL     1       0.472   9.835  21.213  0.00  0.00    +0.000 A 
ATOM      9  C   UNL     1       2.105   8.337  18.314  0.00  0.00    +0.000 C 
ATOM     10  O   UNL     1       2.646   8.460  17.223  0.00  0.00    +0.000 OA
ENDROOT
BRANCH   1  15
ATOM     11  C   UNL     1       4.911   4.952  18.241  0.00  0.00    +0.000 A 
ATOM     12  C   UNL     1       4.550   3.824  18.986  0.00  0.00    +0.000 A 
ATOM     13  C   UNL     1       3.426   3.826  19.829  0.00  0.00    +0.000 A 
ATOM     14  C   UNL     1       2.614   4.960  19.947  0.00  0.00    +0.000 A 
ATOM     15  C   UNL     1       2.949   6.108  19.250  0.00  0.00    +0.000 A 
ATOM     16  C   UNL     1       4.109   6.075  18.448  0.00  0.00    +0.000 A 
BRANCH  11  17
ATOM     17  C   UNL     1       6.165   5.041  17.240  0.00  0.00    +0.000 C 
ATOM     18  C   UNL     1       7.524   4.749  17.941  0.00  0.00    +0.000 C 
ATOM     19  O   UNL     1       8.024   6.075  17.687  0.00  0.00    +0.000 OA
ATOM     20  C   UNL     1       6.811   6.443  16.997  0.00  0.00    +0.000 C 
BRANCH  17  21
ATOM     21  C   UNL     1       5.931   4.229  15.917  0.00  0.00    +0.000 C 
BRANCH  21  27
ATOM     22  C   UNL     1       5.644   3.320  12.740  0.00  0.00    +0.000 C 
ATOM     23  N   UNL     1       6.537   4.264  13.368  0.00  0.00    +0.000 N 
ATOM     24  C   UNL     1       7.475   4.946  12.629  0.00  0.00    +0.000 A 
ATOM     25  N   UNL     1       8.217   5.661  13.443  0.00  0.00    +0.000 NA
ATOM     26  N   UNL     1       7.756   5.469  14.727  0.00  0.00    +0.000 NA
ATOM     27  C   UNL     1       6.709   4.660  14.687  0.00  0.00    +0.000 A 
ENDBRANCH  21  27
ENDBRANCH  17  21
ENDBRANCH  11  17
ENDBRANCH   1  15
BRANCH   8  28
ATOM     28  C   UNL     1       0.281   9.408  22.643  0.00  0.00    +0.000 C 
ATOM     29  F   UNL     1      -0.522   8.325  22.812  0.00  0.00    +0.000 F 
ATOM     30  F   UNL     1       1.465   9.103  23.237  0.00  0.00    +0.000 F 
ATOM     31  F   UNL     1      -0.282  10.393  23.391  0.00  0.00    +0.000 F 
ENDBRANCH   8  28
BRANCH   6  32
ATOM     32  C   UNL     1      -0.469  12.829  19.038  0.00  0.00    +0.000 C 
BRANCH  32  33
ATOM     33  N   UNL     1      -1.804  12.698  18.418  0.00  0.00    +0.000 NA
ATOM     34  C   UNL     1      -1.866  11.821  17.232  0.00  0.00    +0.000 C 
ATOM     35  C   UNL     1      -3.123  11.112  17.835  0.00  0.00    +0.000 C 
ATOM     36  C   UNL     1      -3.172   9.588  17.809  0.00  0.00    +0.000 C 
ATOM     37  C   UNL     1      -2.665  11.761  19.176  0.00  0.00    +0.000 C 
BRANCH  35  38
ATOM     38  C   UNL     1      -4.372  11.656  17.345  0.00  0.00    +0.000 C 
ATOM     39  N   UNL     1      -5.403  12.058  16.969  0.00  0.00    +0.000 NA
ENDBRANCH  35  38
ENDBRANCH  32  33
ENDBRANCH   6  32
TORSDOF 8
ENDMDL
MODEL 3
REMARK VINA RESULT:      -9.0      1.688      2.972
REMARK  Name = 
REMARK  10 active torsions:
REMARK  status: ('A' for Active; 'I' for Inactive)
REMARK    1  A    between atoms: C_1  and  N_2
REMARK    2  A    between atoms: C_6  and  C_7
REMARK    3  A    between atoms: C_7  and  C_8
REMARK    4  A    between atoms: C_8  and  C_9
REMARK    5  A    between atoms: C_13  and  N_14
REMARK    6  A    between atoms: C_19  and  C_20
REMARK    7  A    between atoms: C_20  and  N_21
REMARK    8  A    between atoms: C_23  and  C_24
REMARK    9  A    between atoms: C_23  and  C_25
REMARK   10  A    between atoms: C_29  and  C_30
REMARK                            x       y       z     vdW  Elec       q    Type
REMARK                         _______ _______ _______ _____ _____    ______ ____
ROOT
ATOM      1  N   UNL     1       2.382   7.401  19.224  0.00  0.00    +0.000 N 
ATOM      2  C   UNL     1       1.584   7.711  20.386  0.00  0.00    +0.000 C 
ATOM      3  C   UNL     1       1.125   9.087  20.152  0.00  0.00    +0.000 A 
ATOM      4  C   UNL     1       1.423   9.486  18.855  0.00  0.00    +0.000 A 
ATOM      5  C   UNL     1       0.953  10.707  18.380  0.00  0.00    +0.000 A 
ATOM      6  C   UNL     1       0.263  11.567  19.279  0.00  0.00    +0.000 A 
ATOM      7  C   UNL     1       0.126  11.171  20.631  0.00  0.00    +0.000 A 
ATOM      8  C   UNL     1       0.509   9.914  21.081  0.00  0.00    +0.000 A 
ATOM      9  C   UNL     1       2.307   8.423  18.277  0.00  0.00    +0.000 C 
ATOM     10  O   UNL     1       2.885   8.545  17.204  0.00  0.00    +0.000 OA
ENDROOT
BRANCH   1  15
ATOM     11  C   UNL     1       5.450   5.319  18.772  0.00  0.00    +0.000 A 
ATOM     12  C   UNL     1       4.963   4.073  19.183  0.00  0.00    +0.000 A 
ATOM     13  C   UNL     1       3.640   3.909  19.626  0.00  0.00    +0.000 A 
ATOM     14  C   UNL     1       2.751   4.990  19.662  0.00  0.00    +0.000 A 
ATOM     15  C   UNL     1       3.197   6.247  19.291  0.00  0.00    +0.000 A 
ATOM     16  C   UNL     1       4.545   6.374  18.892  0.00  0.00    +0.000 A 
BRANCH  11  17
ATOM     17  C   UNL     1       6.938   5.602  18.235  0.00  0.00    +0.000 C 
ATOM     18  C   UNL     1       7.940   5.950  19.375  0.00  0.00    +0.000 C 
ATOM     19  O   UNL     1       8.174   7.275  18.865  0.00  0.00    +0.000 OA
ATOM     20  C   UNL     1       7.280   7.049  17.754  0.00  0.00    +0.000 C 
BRANCH  17  21
ATOM     21  C   UNL     1       7.439   4.486  17.251  0.00  0.00    +0.000 C 
BRANCH  21  27
ATOM     22  C   UNL     1       4.710   3.354  15.744  0.00  0.00    +0.000 C 
ATOM     23  N   UNL     1       5.825   4.107  15.222  0.00  0.00    +0.000 N 
ATOM     24  C   UNL     1       5.879   4.455  13.893  0.00  0.00    +0.000 A 
ATOM     25  N   UNL     1       7.029   5.044  13.656  0.00  0.00    +0.000 NA
ATOM     26  N   UNL     1       7.733   5.105  14.839  0.00  0.00    +0.000 NA
ATOM     27  C   UNL     1       6.992   4.581  15.803  0.00  0.00    +0.000 A 
ENDBRANCH  21  27
ENDBRANCH  17  21
ENDBRANCH  11  17
ENDBRANCH   1  15
BRANCH   8  28
ATOM     28  C   UNL     1       0.280   9.508  22.512  0.00  0.00    +0.000 C 
ATOM     29  F   UNL     1       1.396   9.102  23.173  0.00  0.00    +0.000 F 
ATOM     30  F   UNL     1      -0.250  10.524  23.242  0.00  0.00    +0.000 F 
ATOM     31  F   UNL     1      -0.591   8.470  22.606  0.00  0.00    +0.000 F 
ENDBRANCH   8  28
BRANCH   6  32
ATOM     32  C   UNL     1      -0.460  12.826  18.809  0.00  0.00    +0.000 C 
BRANCH  32  33
ATOM     33  N   UNL     1       0.388  13.982  18.453  0.00  0.00    +0.000 NA
ATOM     34  C   UNL     1      -0.204  15.307  18.724  0.00  0.00    +0.000 C 
ATOM     35  C   UNL     1       1.130  15.750  19.413  0.00  0.00    +0.000 C 
ATOM     36  C   UNL     1       1.042  16.471  20.754  0.00  0.00    +0.000 C 
ATOM     37  C   UNL     1       1.434  14.222  19.474  0.00  0.00    +0.000 C 
BRANCH  35  38
ATOM     38  C   UNL     1       2.019  16.466  18.523  0.00  0.00    +0.000 C 
ATOM     39  N   UNL     1       2.698  17.062  17.783  0.00  0.00    +0.000 NA
ENDBRANCH  35  38
ENDBRANCH  32  33
ENDBRANCH   6  32
TORSDOF 8
ENDMDL
MODEL 4
REMARK VINA RESULT:      -8.9      2.353     10.094
REMARK  Name = 
REMARK  10 active torsions:
REMARK  status: ('A' for Active; 'I' for Inactive)
REMARK    1  A    between atoms: C_1  and  N_2
REMARK    2  A    between atoms: C_6  and  C_7
REMARK    3  A    between atoms: C_7  and  C_8
REMARK    4  A    between atoms: C_8  and  C_9
REMARK    5  A    between atoms: C_13  and  N_14
REMARK    6  A    between atoms: C_19  and  C_20
REMARK    7  A    between atoms: C_20  and  N_21
REMARK    8  A    between atoms: C_23  and  C_24
REMARK    9  A    between atoms: C_23  and  C_25
REMARK   10  A    between atoms: C_29  and  C_30
REMARK                            x       y       z     vdW  Elec       q    Type
REMARK                         _______ _______ _______ _____ _____    ______ ____
ROOT
ATOM      1  N   UNL     1       1.395   9.077  19.256  0.00  0.00    +0.000 N 
ATOM      2  C   UNL     1       1.426   7.874  20.050  0.00  0.00    +0.000 C 
ATOM      3  C   UNL     1       2.316   6.972  19.306  0.00  0.00    +0.000 A 
ATOM      4  C   UNL     1       2.953   7.657  18.278  0.00  0.00    +0.000 A 
ATOM      5  C   UNL     1       3.945   7.024  17.534  0.00  0.00    +0.000 A 
ATOM      6  C   UNL     1       4.207   5.647  17.780  0.00  0.00    +0.000 A 
ATOM      7  C   UNL     1       3.417   4.964  18.734  0.00  0.00    +0.000 A 
ATOM      8  C   UNL     1       2.495   5.617  19.543  0.00  0.00    +0.000 A 
ATOM      9  C   UNL     1       2.299   9.002  18.195  0.00  0.00    +0.000 C 
ATOM     10  O   UNL     1       2.511   9.793  17.285  0.00  0.00    +0.000 OA
ENDROOT
BRANCH   1  15
ATOM     11  C   UNL     1      -1.750  11.042  18.805  0.00  0.00    +0.000 A 
ATOM     12  C   UNL     1      -1.639  11.931  19.880  0.00  0.00    +0.000 A 
ATOM     13  C   UNL     1      -0.551  11.883  20.766  0.00  0.00    +0.000 A 
ATOM     14  C   UNL     1       0.476  10.946  20.599  0.00  0.00    +0.000 A 
ATOM     15  C   UNL     1       0.395  10.029  19.565  0.00  0.00    +0.000 A 
ATOM     16  C   UNL     1      -0.736  10.086  18.724  0.00  0.00    +0.000 A 
BRANCH  11  17
ATOM     17  C   UNL     1      -2.945  11.029  17.730  0.00  0.00    +0.000 C 
ATOM     18  C   UNL     1      -3.494   9.599  17.448  0.00  0.00    +0.000 C 
ATOM     19  O   UNL     1      -3.088   9.635  16.068  0.00  0.00    +0.000 OA
ATOM     20  C   UNL     1      -2.567  10.973  16.214  0.00  0.00    +0.000 C 
BRANCH  17  21
ATOM     21  C   UNL     1      -4.050  12.095  18.054  0.00  0.00    +0.000 C 
BRANCH  21  27
ATOM     22  C   UNL     1      -4.998  12.629  21.188  0.00  0.00    +0.000 C 
ATOM     23  N   UNL     1      -5.640  11.889  20.127  0.00  0.00    +0.000 N 
ATOM     24  C   UNL     1      -6.836  11.245  20.341  0.00  0.00    +0.000 A 
ATOM     25  N   UNL     1      -7.154  10.572  19.259  0.00  0.00    +0.000 NA
ATOM     26  N   UNL     1      -6.173  10.787  18.315  0.00  0.00    +0.000 NA
ATOM     27  C   UNL     1      -5.275  11.620  18.816  0.00  0.00    +0.000 A 
ENDBRANCH  21  27
ENDBRANCH  17  21
ENDBRANCH  11  17
ENDBRANCH   1  15
BRANCH   8  28
ATOM     28  C   UNL     1       1.727   4.863  20.595  0.00  0.00    +0.000 C 
ATOM     29  F   UNL     1       1.334   3.615  20.228  0.00  0.00    +0.000 F 
ATOM     30  F   UNL     1       2.450   4.717  21.736  0.00  0.00    +0.000 F 
ATOM     31  F   UNL     1       0.585   5.512  20.943  0.00  0.00    +0.000 F 
ENDBRANCH   8  28
BRANCH   6  32
ATOM     32  C   UNL     1       5.400   4.922  17.164  0.00  0.00    +0.000 C 
BRANCH  32  33
ATOM     33  N   UNL     1       5.244   4.457  15.770  0.00  0.00    +0.000 NA
ATOM     34  C   UNL     1       5.453   5.487  14.733  0.00  0.00    +0.000 C 
ATOM     35  C   UNL     1       6.385   4.499  13.956  0.00  0.00    +0.000 C 
ATOM     36  C   UNL     1       7.715   5.029  13.428  0.00  0.00    +0.000 C 
ATOM     37  C   UNL     1       6.444   3.722  15.306  0.00  0.00    +0.000 C 
BRANCH  35  38
ATOM     38  C   UNL     1       5.695   3.767  12.915  0.00  0.00    +0.000 C 
ATOM     39  N   UNL     1       5.149   3.136  12.097  0.00  0.00    +0.000 NA
ENDBRANCH  35  38
ENDBRANCH  32  33
ENDBRANCH   6  32
TORSDOF 8
ENDMDL
MODEL 5
REMARK VINA RESULT:      -8.9      3.664      4.990
REMARK  Name = 
REMARK  10 active torsions:
REMARK  status: ('A' for Active; 'I' for Inactive)
REMARK    1  A    between atoms: C_1  and  N_2
REMARK    2  A    between atoms: C_6  and  C_7
REMARK    3  A    between atoms: C_7  and  C_8
REMARK    4  A    between atoms: C_8  and  C_9
REMARK    5  A    between atoms: C_13  and  N_14
REMARK    6  A    between atoms: C_19  and  C_20
REMARK    7  A    between atoms: C_20  and  N_21
REMARK    8  A    between atoms: C_23  and  C_24
REMARK    9  A    between atoms: C_23  and  C_25
REMARK   10  A    between atoms: C_29  and  C_30
REMARK                            x       y       z     vdW  Elec       q    Type
REMARK                         _______ _______ _______ _____ _____    ______ ____
ROOT
ATOM      1  N   UNL     1       1.332   9.153  19.745  0.00  0.00    +0.000 N 
ATOM      2  C   UNL     1       1.106  10.481  19.229  0.00  0.00    +0.000 C 
ATOM      3  C   UNL     1       0.113  11.060  20.143  0.00  0.00    +0.000 A 
ATOM      4  C   UNL     1      -0.066  10.240  21.251  0.00  0.00    +0.000 A 
ATOM      5  C   UNL     1      -0.862  10.667  22.309  0.00  0.00    +0.000 A 
ATOM      6  C   UNL     1      -1.562  11.900  22.180  0.00  0.00    +0.000 A 
ATOM      7  C   UNL     1      -1.461  12.616  20.965  0.00  0.00    +0.000 A 
ATOM      8  C   UNL     1      -0.593  12.239  19.947  0.00  0.00    +0.000 A 
ATOM      9  C   UNL     1       0.665   8.965  20.956  0.00  0.00    +0.000 C 
ATOM     10  O   UNL     1       0.572   7.964  21.656  0.00  0.00    +0.000 OA
ENDROOT
BRANCH   1  15
ATOM     11  C   UNL     1       2.848   5.904  18.696  0.00  0.00    +0.000 A 
ATOM     12  C   UNL     1       3.476   6.299  17.510  0.00  0.00    +0.000 A 
ATOM     13  C   UNL     1       3.394   7.619  17.036  0.00  0.00    +0.000 A 
ATOM     14  C   UNL     1       2.685   8.598  17.745  0.00  0.00    +0.000 A 
ATOM     15  C   UNL     1       2.026   8.246  18.910  0.00  0.00    +0.000 A 
ATOM     16  C   UNL     1       2.101   6.900  19.326  0.00  0.00    +0.000 A 
BRANCH  11  17
ATOM     17  C   UNL     1       2.900   4.426  19.326  0.00  0.00    +0.000 C 
ATOM     18  C   UNL     1       1.556   3.653  19.171  0.00  0.00    +0.000 C 
ATOM     19  O   UNL     1       1.352   3.577  20.593  0.00  0.00    +0.000 OA
ATOM     20  C   UNL     1       2.592   4.268  20.850  0.00  0.00    +0.000 C 
BRANCH  17  21
ATOM     21  C   UNL     1       4.166   3.623  18.862  0.00  0.00    +0.000 C 
BRANCH  21  27
ATOM     22  C   UNL     1       6.373   4.208  16.455  0.00  0.00    +0.000 C 
ATOM     23  N   UNL     1       6.383   4.585  17.848  0.00  0.00    +0.000 N 
ATOM     24  C   UNL     1       7.436   5.291  18.379  0.00  0.00    +0.000 A 
ATOM     25  N   UNL     1       7.250   5.422  19.673  0.00  0.00    +0.000 NA
ATOM     26  N   UNL     1       6.056   4.817  19.998  0.00  0.00    +0.000 NA
ATOM     27  C   UNL     1       5.500   4.347  18.892  0.00  0.00    +0.000 A 
ENDBRANCH  21  27
ENDBRANCH  17  21
ENDBRANCH  11  17
ENDBRANCH   1  15
BRANCH   8  28
ATOM     28  C   UNL     1      -0.465  13.070  18.700  0.00  0.00    +0.000 C 
ATOM     29  F   UNL     1      -1.166  12.605  17.632  0.00  0.00    +0.000 F 
ATOM     30  F   UNL     1      -0.880  14.348  18.904  0.00  0.00    +0.000 F 
ATOM     31  F   UNL     1       0.824  13.146  18.278  0.00  0.00    +0.000 F 
ENDBRANCH   8  28
BRANCH   6  32
ATOM     32  C   UNL     1      -2.294  12.547  23.352  0.00  0.00    +0.000 C 
BRANCH  32  33
ATOM     33  N   UNL     1      -3.721  12.201  23.514  0.00  0.00    +0.000 NA
ATOM     34  C   UNL     1      -4.403  12.846  24.653  0.00  0.00    +0.000 C 
ATOM     35  C   UNL     1      -5.585  13.242  23.708  0.00  0.00    +0.000 C 
ATOM     36  C   UNL     1      -6.120  14.668  23.783  0.00  0.00    +0.000 C 
ATOM     37  C   UNL     1      -4.572  12.949  22.559  0.00  0.00    +0.000 C 
BRANCH  35  38
ATOM     38  C   UNL     1      -6.683  12.299  23.744  0.00  0.00    +0.000 C 
ATOM     39  N   UNL     1      -7.563  11.531  23.727  0.00  0.00    +0.000 NA
ENDBRANCH  35  38
ENDBRANCH  32  33
ENDBRANCH   6  32
TORSDOF 8
ENDMDL
MODEL 6
REMARK VINA RESULT:      -8.9      1.988      3.209
REMARK  Name = 
REMARK  10 active torsions:
REMARK  status: ('A' for Active; 'I' for Inactive)
REMARK    1  A    between atoms: C_1  and  N_2
REMARK    2  A    between atoms: C_6  and  C_7
REMARK    3  A    between atoms: C_7  and  C_8
REMARK    4  A    between atoms: C_8  and  C_9
REMARK    5  A    between atoms: C_13  and  N_14
REMARK    6  A    between atoms: C_19  and  C_20
REMARK    7  A    between atoms: C_20  and  N_21
REMARK    8  A    between atoms: C_23  and  C_24
REMARK    9  A    between atoms: C_23  and  C_25
REMARK   10  A    between atoms: C_29  and  C_30
REMARK                            x       y       z     vdW  Elec       q    Type
REMARK                         _______ _______ _______ _____ _____    ______ ____
ROOT
ATOM      1  N   UNL     1       2.015   7.582  19.215  0.00  0.00    +0.000 N 
ATOM      2  C   UNL     1       1.227   7.858  20.391  0.00  0.00    +0.000 C 
ATOM      3  C   UNL     1       0.866   9.276  20.259  0.00  0.00    +0.000 A 
ATOM      4  C   UNL     1       1.206   9.750  18.998  0.00  0.00    +0.000 A 
ATOM      5  C   UNL     1       0.828  11.033  18.613  0.00  0.00    +0.000 A 
ATOM      6  C   UNL     1       0.188  11.869  19.571  0.00  0.00    +0.000 A 
ATOM      7  C   UNL     1       0.008  11.383  20.887  0.00  0.00    +0.000 A 
ATOM      8  C   UNL     1       0.298  10.072  21.244  0.00  0.00    +0.000 A 
ATOM      9  C   UNL     1       2.022   8.674  18.347  0.00  0.00    +0.000 C 
ATOM     10  O   UNL     1       2.620   8.836  17.291  0.00  0.00    +0.000 OA
ENDROOT
BRANCH   1  15
ATOM     11  C   UNL     1       4.687   5.184  18.182  0.00  0.00    +0.000 A 
ATOM     12  C   UNL     1       4.278   4.045  18.883  0.00  0.00    +0.000 A 
ATOM     13  C   UNL     1       3.142   4.056  19.709  0.00  0.00    +0.000 A 
ATOM     14  C   UNL     1       2.365   5.213  19.852  0.00  0.00    +0.000 A 
ATOM     15  C   UNL     1       2.748   6.371  19.199  0.00  0.00    +0.000 A 
ATOM     16  C   UNL     1       3.919   6.326  18.414  0.00  0.00    +0.000 A 
BRANCH  11  17
ATOM     17  C   UNL     1       5.959   5.265  17.203  0.00  0.00    +0.000 C 
ATOM     18  C   UNL     1       7.302   4.940  17.922  0.00  0.00    +0.000 C 
ATOM     19  O   UNL     1       7.828   6.260  17.694  0.00  0.00    +0.000 OA
ATOM     20  C   UNL     1       6.633   6.659  16.990  0.00  0.00    +0.000 C 
BRANCH  17  21
ATOM     21  C   UNL     1       5.734   4.474  15.866  0.00  0.00    +0.000 C 
BRANCH  21  27
ATOM     22  C   UNL     1       5.681   3.441  12.714  0.00  0.00    +0.000 C 
ATOM     23  N   UNL     1       6.565   4.365  13.383  0.00  0.00    +0.000 N 
ATOM     24  C   UNL     1       7.601   4.964  12.706  0.00  0.00    +0.000 A 
ATOM     25  N   UNL     1       8.307   5.675  13.555  0.00  0.00    +0.000 NA
ATOM     26  N   UNL     1       7.724   5.564  14.798  0.00  0.00    +0.000 NA
ATOM     27  C   UNL     1       6.641   4.809  14.695  0.00  0.00    +0.000 A 
ENDBRANCH  21  27
ENDBRANCH  17  21
ENDBRANCH  11  17
ENDBRANCH   1  15
BRANCH   8  28
ATOM     28  C   UNL     1       0.024   9.577  22.638  0.00  0.00    +0.000 C 
ATOM     29  F   UNL     1      -0.574  10.482  23.456  0.00  0.00    +0.000 F 
ATOM     30  F   UNL     1      -0.776   8.478  22.632  0.00  0.00    +0.000 F 
ATOM     31  F   UNL     1       1.169   9.217  23.276  0.00  0.00    +0.000 F 
ENDBRANCH   8  28
BRANCH   6  32
ATOM     32  C   UNL     1      -0.441  13.207  19.192  0.00  0.00    +0.000 C 
BRANCH  32  33
ATOM     33  N   UNL     1       0.476  14.251  18.691  0.00  0.00    +0.000 NA
ATOM     34  C   UNL     1      -0.066  15.624  18.694  0.00  0.00    +0.000 C 
ATOM     35  C   UNL     1       1.250  16.131  19.371  0.00  0.00    +0.000 C 
ATOM     36  C   UNL     1       1.129  17.079  20.559  0.00  0.00    +0.000 C 
ATOM     37  C   UNL     1       1.481  14.628  19.713  0.00  0.00    +0.000 C 
BRANCH  35  38
ATOM     38  C   UNL     1       2.215  16.647  18.422  0.00  0.00    +0.000 C 
ATOM     39  N   UNL     1       2.960  17.094  17.642  0.00  0.00    +0.000 NA
ENDBRANCH  35  38
ENDBRANCH  32  33
ENDBRANCH   6  32
TORSDOF 8
ENDMDL
MODEL 7
REMARK VINA RESULT:      -8.8      1.488      2.518
REMARK  Name = 
REMARK  10 active torsions:
REMARK  status: ('A' for Active; 'I' for Inactive)
REMARK    1  A    between atoms: C_1  and  N_2
REMARK    2  A    between atoms: C_6  and  C_7
REMARK    3  A    between atoms: C_7  and  C_8
REMARK    4  A    between atoms: C_8  and  C_9
REMARK    5  A    between atoms: C_13  and  N_14
REMARK    6  A    between atoms: C_19  and  C_20
REMARK    7  A    between atoms: C_20  and  N_21
REMARK    8  A    between atoms: C_23  and  C_24
REMARK    9  A    between atoms: C_23  and  C_25
REMARK   10  A    between atoms: C_29  and  C_30
REMARK                            x       y       z     vdW  Elec       q    Type
REMARK                         _______ _______ _______ _____ _____    ______ ____
ROOT
ATOM      1  N   UNL     1       2.282   7.207  19.052  0.00  0.00    +0.000 N 
ATOM      2  C   UNL     1       1.537   7.525  20.245  0.00  0.00    +0.000 C 
ATOM      3  C   UNL     1       1.130   8.924  20.055  0.00  0.00    +0.000 A 
ATOM      4  C   UNL     1       1.402   9.338  18.756  0.00  0.00    +0.000 A 
ATOM      5  C   UNL     1       0.971  10.588  18.321  0.00  0.00    +0.000 A 
ATOM      6  C   UNL     1       0.348  11.458  19.260  0.00  0.00    +0.000 A 
ATOM      7  C   UNL     1       0.239  11.039  20.607  0.00  0.00    +0.000 A 
ATOM      8  C   UNL     1       0.581   9.757  21.020  0.00  0.00    +0.000 A 
ATOM      9  C   UNL     1       2.221   8.251  18.128  0.00  0.00    +0.000 C 
ATOM     10  O   UNL     1       2.768   8.371  17.039  0.00  0.00    +0.000 OA
ENDROOT
BRANCH   1  15
ATOM     11  C   UNL     1       4.733   4.670  17.824  0.00  0.00    +0.000 A 
ATOM     12  C   UNL     1       4.567   3.678  18.796  0.00  0.00    +0.000 A 
ATOM     13  C   UNL     1       3.670   3.838  19.866  0.00  0.00    +0.000 A 
ATOM     14  C   UNL     1       2.896   4.998  19.992  0.00  0.00    +0.000 A 
ATOM     15  C   UNL     1       3.048   6.017  19.068  0.00  0.00    +0.000 A 
ATOM     16  C   UNL     1       3.990   5.832  18.034  0.00  0.00    +0.000 A 
BRANCH  11  17
ATOM     17  C   UNL     1       5.719   4.573  16.558  0.00  0.00    +0.000 C 
ATOM     18  C   UNL     1       5.248   5.441  15.353  0.00  0.00    +0.000 C 
ATOM     19  O   UNL     1       5.059   4.293  14.506  0.00  0.00    +0.000 OA
ATOM     20  C   UNL     1       5.502   3.399  15.549  0.00  0.00    +0.000 C 
BRANCH  17  21
ATOM     21  C   UNL     1       7.223   4.779  16.956  0.00  0.00    +0.000 C 
BRANCH  21  27
ATOM     22  C   UNL     1       8.115   5.783  19.989  0.00  0.00    +0.000 C 
ATOM     23  N   UNL     1       8.014   6.517  18.750  0.00  0.00    +0.000 N 
ATOM     24  C   UNL     1       8.294   7.863  18.704  0.00  0.00    +0.000 A 
ATOM     25  N   UNL     1       8.033   8.308  17.496  0.00  0.00    +0.000 NA
ATOM     26  N   UNL     1       7.599   7.248  16.731  0.00  0.00    +0.000 NA
ATOM     27  C   UNL     1       7.627   6.150  17.470  0.00  0.00    +0.000 A 
ENDBRANCH  21  27
ENDBRANCH  17  21
ENDBRANCH  11  17
ENDBRANCH   1  15
BRANCH   8  28
ATOM     28  C   UNL     1       0.382   9.331  22.449  0.00  0.00    +0.000 C 
ATOM     29  F   UNL     1       1.503   8.880  23.070  0.00  0.00    +0.000 F 
ATOM     30  F   UNL     1      -0.095  10.349  23.213  0.00  0.00    +0.000 F 
ATOM     31  F   UNL     1      -0.518   8.319  22.550  0.00  0.00    +0.000 F 
ENDBRANCH   8  28
BRANCH   6  32
ATOM     32  C   UNL     1      -0.333  12.756  18.840  0.00  0.00    +0.000 C 
BRANCH  32  33
ATOM     33  N   UNL     1      -1.701  12.639  18.295  0.00  0.00    +0.000 NA
ATOM     34  C   UNL     1      -1.841  11.755  17.120  0.00  0.00    +0.000 C 
ATOM     35  C   UNL     1      -3.073  11.068  17.798  0.00  0.00    +0.000 C 
ATOM     36  C   UNL     1      -3.144   9.545  17.786  0.00  0.00    +0.000 C 
ATOM     37  C   UNL     1      -2.532  11.720  19.107  0.00  0.00    +0.000 C 
BRANCH  35  38
ATOM     38  C   UNL     1      -4.339  11.627  17.373  0.00  0.00    +0.000 C 
ATOM     39  N   UNL     1      -5.360  12.106  17.068  0.00  0.00    +0.000 NA
ENDBRANCH  35  38
ENDBRANCH  32  33
ENDBRANCH   6  32
TORSDOF 8
ENDMDL
MODEL 8
REMARK VINA RESULT:      -8.6      2.884      9.284
REMARK  Name = 
REMARK  10 active torsions:
REMARK  status: ('A' for Active; 'I' for Inactive)
REMARK    1  A    between atoms: C_1  and  N_2
REMARK    2  A    between atoms: C_6  and  C_7
REMARK    3  A    between atoms: C_7  and  C_8
REMARK    4  A    between atoms: C_8  and  C_9
REMARK    5  A    between atoms: C_13  and  N_14
REMARK    6  A    between atoms: C_19  and  C_20
REMARK    7  A    between atoms: C_20  and  N_21
REMARK    8  A    between atoms: C_23  and  C_24
REMARK    9  A    between atoms: C_23  and  C_25
REMARK   10  A    between atoms: C_29  and  C_30
REMARK                            x       y       z     vdW  Elec       q    Type
REMARK                         _______ _______ _______ _____ _____    ______ ____
ROOT
ATOM      1  N   UNL     1       1.605   8.113  20.233  0.00  0.00    +0.000 N 
ATOM      2  C   UNL     1       1.723   6.788  20.792  0.00  0.00    +0.000 C 
ATOM      3  C   UNL     1       2.540   6.055  19.815  0.00  0.00    +0.000 A 
ATOM      4  C   UNL     1       3.067   6.926  18.869  0.00  0.00    +0.000 A 
ATOM      5  C   UNL     1       3.982   6.460  17.930  0.00  0.00    +0.000 A 
ATOM      6  C   UNL     1       4.276   5.067  17.900  0.00  0.00    +0.000 A 
ATOM      7  C   UNL     1       3.590   4.207  18.789  0.00  0.00    +0.000 A 
ATOM      8  C   UNL     1       2.750   4.683  19.788  0.00  0.00    +0.000 A 
ATOM      9  C   UNL     1       2.398   8.249  19.092  0.00  0.00    +0.000 C 
ATOM     10  O   UNL     1       2.514   9.194  18.323  0.00  0.00    +0.000 OA
ENDROOT
BRANCH   1  15
ATOM     11  C   UNL     1      -0.793  10.971  20.406  0.00  0.00    +0.000 A 
ATOM     12  C   UNL     1      -1.182  10.883  21.746  0.00  0.00    +0.000 A 
ATOM     13  C   UNL     1      -0.681   9.883  22.595  0.00  0.00    +0.000 A 
ATOM     14  C   UNL     1       0.243   8.938  22.131  0.00  0.00    +0.000 A 
ATOM     15  C   UNL     1       0.636   8.970  20.804  0.00  0.00    +0.000 A 
ATOM     16  C   UNL     1       0.075   9.966  19.977  0.00  0.00    +0.000 A 
BRANCH  11  17
ATOM     17  C   UNL     1      -1.296  12.087  19.364  0.00  0.00    +0.000 C 
ATOM     18  C   UNL     1      -2.831  12.029  19.106  0.00  0.00    +0.000 C 
ATOM     19  O   UNL     1      -2.659  11.703  17.715  0.00  0.00    +0.000 OA
ATOM     20  C   UNL     1      -1.222  11.753  17.839  0.00  0.00    +0.000 C 
BRANCH  17  21
ATOM     21  C   UNL     1      -0.753  13.518  19.713  0.00  0.00    +0.000 C 
BRANCH  21  27
ATOM     22  C   UNL     1       2.233  12.912  18.402  0.00  0.00    +0.000 C 
ATOM     23  N   UNL     1       1.863  13.363  19.722  0.00  0.00    +0.000 N 
ATOM     24  C   UNL     1       2.820  13.596  20.681  0.00  0.00    +0.000 A 
ATOM     25  N   UNL     1       2.223  13.898  21.811  0.00  0.00    +0.000 NA
ATOM     26  N   UNL     1       0.863  13.886  21.595  0.00  0.00    +0.000 NA
ATOM     27  C   UNL     1       0.636  13.607  20.321  0.00  0.00    +0.000 A 
ENDBRANCH  21  27
ENDBRANCH  17  21
ENDBRANCH  11  17
ENDBRANCH   1  15
BRANCH   8  28
ATOM     28  C   UNL     1       2.096   3.737  20.757  0.00  0.00    +0.000 C 
ATOM     29  F   UNL     1       2.348   3.999  22.067  0.00  0.00    +0.000 F 
ATOM     30  F   UNL     1       0.744   3.736  20.621  0.00  0.00    +0.000 F 
ATOM     31  F   UNL     1       2.504   2.456  20.561  0.00  0.00    +0.000 F 
ENDBRANCH   8  28
BRANCH   6  32
ATOM     32  C   UNL     1       5.405   4.492  17.050  0.00  0.00    +0.000 C 
BRANCH  32  33
ATOM     33  N   UNL     1       5.087   4.196  15.638  0.00  0.00    +0.000 NA
ATOM     34  C   UNL     1       5.339   5.298  14.689  0.00  0.00    +0.000 C 
ATOM     35  C   UNL     1       6.081   4.297  13.742  0.00  0.00    +0.000 C 
ATOM     36  C   UNL     1       7.420   4.724  13.150  0.00  0.00    +0.000 C 
ATOM     37  C   UNL     1       6.148   3.382  15.002  0.00  0.00    +0.000 C 
BRANCH  35  38
ATOM     38  C   UNL     1       5.228   3.761  12.701  0.00  0.00    +0.000 C 
ATOM     39  N   UNL     1       4.505   3.326  11.894  0.00  0.00    +0.000 NA
ENDBRANCH  35  38
ENDBRANCH  32  33
ENDBRANCH   6  32
TORSDOF 8
ENDMDL
MODEL 9
REMARK VINA RESULT:      -8.6      2.030      3.287
REMARK  Name = 
REMARK  10 active torsions:
REMARK  status: ('A' for Active; 'I' for Inactive)
REMARK    1  A    between atoms: C_1  and  N_2
REMARK    2  A    between atoms: C_6  and  C_7
REMARK    3  A    between atoms: C_7  and  C_8
REMARK    4  A    between atoms: C_8  and  C_9
REMARK    5  A    between atoms: C_13  and  N_14
REMARK    6  A    between atoms: C_19  and  C_20
REMARK    7  A    between atoms: C_20  and  N_21
REMARK    8  A    between atoms: C_23  and  C_24
REMARK    9  A    between atoms: C_23  and  C_25
REMARK   10  A    between atoms: C_29  and  C_30
REMARK                            x       y       z     vdW  Elec       q    Type
REMARK                         _______ _______ _______ _____ _____    ______ ____
ROOT
ATOM      1  N   UNL     1       1.866   7.717  19.312  0.00  0.00    +0.000 N 
ATOM      2  C   UNL     1       1.082   7.994  20.490  0.00  0.00    +0.000 C 
ATOM      3  C   UNL     1       0.729   9.415  20.362  0.00  0.00    +0.000 A 
ATOM      4  C   UNL     1       1.069   9.890  19.101  0.00  0.00    +0.000 A 
ATOM      5  C   UNL     1       0.696  11.175  18.721  0.00  0.00    +0.000 A 
ATOM      6  C   UNL     1       0.063  12.013  19.681  0.00  0.00    +0.000 A 
ATOM      7  C   UNL     1      -0.117  11.525  20.997  0.00  0.00    +0.000 A 
ATOM      8  C   UNL     1       0.166  10.212  21.350  0.00  0.00    +0.000 A 
ATOM      9  C   UNL     1       1.878   8.811  18.446  0.00  0.00    +0.000 C 
ATOM     10  O   UNL     1       2.474   8.972  17.390  0.00  0.00    +0.000 OA
ENDROOT
BRANCH   1  15
ATOM     11  C   UNL     1       4.593   5.347  18.360  0.00  0.00    +0.000 A 
ATOM     12  C   UNL     1       4.130   4.180  18.977  0.00  0.00    +0.000 A 
ATOM     13  C   UNL     1       2.938   4.163  19.721  0.00  0.00    +0.000 A 
ATOM     14  C   UNL     1       2.159   5.318  19.862  0.00  0.00    +0.000 A 
ATOM     15  C   UNL     1       2.593   6.502  19.292  0.00  0.00    +0.000 A 
ATOM     16  C   UNL     1       3.816   6.483  18.589  0.00  0.00    +0.000 A 
BRANCH  11  17
ATOM     17  C   UNL     1       5.931   5.462  17.477  0.00  0.00    +0.000 C 
ATOM     18  C   UNL     1       7.221   5.586  18.341  0.00  0.00    +0.000 C 
ATOM     19  O   UNL     1       7.521   6.900  17.836  0.00  0.00    +0.000 OA
ATOM     20  C   UNL     1       6.361   6.879  16.978  0.00  0.00    +0.000 C 
BRANCH  17  21
ATOM     21  C   UNL     1       6.004   4.362  16.359  0.00  0.00    +0.000 C 
BRANCH  21  27
ATOM     22  C   UNL     1       5.349   3.514  13.220  0.00  0.00    +0.000 C 
ATOM     23  N   UNL     1       6.380   4.365  13.766  0.00  0.00    +0.000 N 
ATOM     24  C   UNL     1       7.307   4.963  12.945  0.00  0.00    +0.000 A 
ATOM     25  N   UNL     1       8.184   5.597  13.690  0.00  0.00    +0.000 NA
ATOM     26  N   UNL     1       7.824   5.437  15.010  0.00  0.00    +0.000 NA
ATOM     27  C   UNL     1       6.706   4.730  15.064  0.00  0.00    +0.000 A 
ENDBRANCH  21  27
ENDBRANCH  17  21
ENDBRANCH  11  17
ENDBRANCH   1  15
BRANCH   8  28
ATOM     28  C   UNL     1      -0.107   9.715  22.743  0.00  0.00    +0.000 C 
ATOM     29  F   UNL     1      -0.889   8.604  22.808  0.00  0.00    +0.000 F 
ATOM     30  F   UNL     1       1.042   9.413  23.402  0.00  0.00    +0.000 F 
ATOM     31  F   UNL     1      -0.747  10.650  23.493  0.00  0.00    +0.000 F 
ENDBRANCH   8  28
BRANCH   6  32
ATOM     32  C   UNL     1      -0.559  13.355  19.307  0.00  0.00    +0.000 C 
BRANCH  32  33
ATOM     33  N   UNL     1       0.124  14.565  19.810  0.00  0.00    +0.000 NA
ATOM     34  C   UNL     1       1.596  14.474  19.884  0.00  0.00    +0.000 C 
ATOM     35  C   UNL     1       1.706  15.863  19.172  0.00  0.00    +0.000 C 
ATOM     36  C   UNL     1       2.705  16.008  18.028  0.00  0.00    +0.000 C 
ATOM     37  C   UNL     1       0.225  15.607  18.761  0.00  0.00    +0.000 C 
BRANCH  35  38
ATOM     38  C   UNL     1       1.851  16.967  20.098  0.00  0.00    +0.000 C 
ATOM     39  N   UNL     1       2.013  17.845  20.850  0.00  0.00    +0.000 NA
ENDBRANCH  35  38
ENDBRANCH  32  33
ENDBRANCH   6  32
TORSDOF 8
ENDMDL
