MODEL 1
REMARK VINA RESULT:     -10.0      0.000      0.000
REMARK  Name = 
REMARK  9 active torsions:
REMARK  status: ('A' for Active; 'I' for Inactive)
REMARK    1  A    between atoms: C_1  and  N_2
REMARK    2  A    between atoms: N_9  and  C_10
REMARK    3  A    between atoms: C_14  and  C_15
REMARK    4  A    between atoms: N_21  and  C_22
REMARK    5  A    between atoms: C_26  and  C_27
REMARK    6  A    between atoms: C_27  and  C_28
REMARK    7  A    between atoms: C_27  and  C_30
REMARK    8  A    between atoms: C_30  and  C_33
REMARK    9  A    between atoms: N_37  and  C_38
REMARK                            x       y       z     vdW  Elec       q    Type
REMARK                         _______ _______ _______ _____ _____    ______ ____
ROOT
ATOM      1  C   UNL     1       3.665   5.504  17.699  0.00  0.00    +0.000 A 
ATOM      2  C   UNL     1       3.252   6.820  17.879  0.00  0.00    +0.000 A 
ATOM      3  C   UNL     1       2.518   7.148  18.997  0.00  0.00    +0.000 A 
ATOM      4  C   UNL     1       2.097   6.246  19.958  0.00  0.00    +0.000 A 
ATOM      5  C   UNL     1       2.435   4.907  19.809  0.00  0.00    +0.000 A 
ATOM      6  C   UNL     1       3.217   4.557  18.665  0.00  0.00    +0.000 A 
ATOM      7  C   UNL     1       1.287   6.979  20.993  0.00  0.00    +0.000 C 
ATOM      8  N   UNL     1       1.304   8.356  20.499  0.00  0.00    +0.000 N 
ATOM      9  C   UNL     1       2.057   8.484  19.339  0.00  0.00    +0.000 C 
ATOM     10  O   UNL     1       2.344   9.463  18.677  0.00  0.00    +0.000 OA
ENDROOT
BRANCH   1  19
ATOM     11  C   UNL     1       6.215   3.682  13.109  0.00  0.00    +0.000 C 
ATOM     12  N   UNL     1       5.573   4.195  14.312  0.00  0.00    +0.000 NA
ATOM     13  C   UNL     1       5.745   3.327  15.490  0.00  0.00    +0.000 C 
ATOM     14  C   UNL     1       5.406   4.003  16.867  0.00  0.00    +0.000 C 
ATOM     15  C   UNL     1       6.640   4.732  17.464  0.00  0.00    +0.000 C 
ATOM     16  C   UNL     1       6.560   6.174  16.945  0.00  0.00    +0.000 C 
ATOM     17  C   UNL     1       5.378   6.131  15.964  0.00  0.00    +0.000 C 
ATOM     18  C   UNL     1       5.919   5.591  14.589  0.00  0.00    +0.000 C 
ATOM     19  N   UNL     1       4.464   5.125  16.611  0.00  0.00    +0.000 N 
ENDBRANCH   1  19
BRANCH   8  20
ATOM     20  C   UNL     1       0.442   9.367  20.982  0.00  0.00    +0.000 A 
ATOM     21  C   UNL     1       0.028   9.339  22.320  0.00  0.00    +0.000 A 
ATOM     22  C   UNL     1      -0.787  10.333  22.841  0.00  0.00    +0.000 A 
ATOM     23  C   UNL     1      -1.233  11.360  22.012  0.00  0.00    +0.000 A 
ATOM     24  C   UNL     1      -0.865  11.403  20.655  0.00  0.00    +0.000 A 
ATOM     25  C   UNL     1      -0.005  10.405  20.154  0.00  0.00    +0.000 A 
BRANCH  24  26
ATOM     26  C   UNL     1      -1.511  12.477  19.777  0.00  0.00    +0.000 C 
ATOM     27  C   UNL     1      -1.651  11.880  18.364  0.00  0.00    +0.000 C 
ATOM     28  F   UNL     1      -2.805  12.725  20.201  0.00  0.00    +0.000 F 
BRANCH  26  29
ATOM     29  C   UNL     1      -0.808  13.856  19.686  0.00  0.00    +0.000 C 
ATOM     30  F   UNL     1      -0.690  14.230  18.376  0.00  0.00    +0.000 F 
ATOM     31  F   UNL     1      -1.640  14.802  20.231  0.00  0.00    +0.000 F 
BRANCH  29  32
ATOM     32  C   UNL     1       0.522  13.904  20.367  0.00  0.00    +0.000 A 
ATOM     33  N   UNL     1       0.749  14.293  21.610  0.00  0.00    +0.000 NA
ATOM     34  N   UNL     1       2.086  14.141  21.876  0.00  0.00    +0.000 NA
ATOM     35  C   UNL     1       2.653  13.658  20.798  0.00  0.00    +0.000 A 
ATOM     36  N   UNL     1       1.718  13.501  19.820  0.00  0.00    +0.000 N 
ATOM     37  C   UNL     1       1.979  12.991  18.500  0.00  0.00    +0.000 C 
ENDBRANCH  29  32
ENDBRANCH  26  29
ENDBRANCH  24  26
ENDBRANCH   8  20
BRANCH   5  38
ATOM     38  C   UNL     1       2.016   3.852  20.799  0.00  0.00    +0.000 C 
ATOM     39  F   UNL     1       2.430   4.110  22.073  0.00  0.00    +0.000 F 
ATOM     40  F   UNL     1       0.665   3.700  20.871  0.00  0.00    +0.000 F 
ATOM     41  F   UNL     1       2.518   2.623  20.492  0.00  0.00    +0.000 F 
ENDBRANCH   5  38
TORSDOF 6
ENDMDL
MODEL 2
REMARK VINA RESULT:      -9.7      2.912      9.235
REMARK  Name = 
REMARK  9 active torsions:
REMARK  status: ('A' for Active; 'I' for Inactive)
REMARK    1  A    between atoms: C_1  and  N_2
REMARK    2  A    between atoms: N_9  and  C_10
REMARK    3  A    between atoms: C_14  and  C_15
REMARK    4  A    between atoms: N_21  and  C_22
REMARK    5  A    between atoms: C_26  and  C_27
REMARK    6  A    between atoms: C_27  and  C_28
REMARK    7  A    between atoms: C_27  and  C_30
REMARK    8  A    between atoms: C_30  and  C_33
REMARK    9  A    between atoms: N_37  and  C_38
REMARK                            x       y       z     vdW  Elec       q    Type
REMARK                         _______ _______ _______ _____ _____    ______ ____
ROOT
ATOM      1  C   UNL     1       0.530  12.127  20.011  0.00  0.00    +0.000 A 
ATOM      2  C   UNL     1       1.179  11.264  19.135  0.00  0.00    +0.000 A 
ATOM      3  C   UNL     1       1.294   9.931  19.463  0.00  0.00    +0.000 A 
ATOM      4  C   UNL     1       0.855   9.370  20.648  0.00  0.00    +0.000 A 
ATOM      5  C   UNL     1       0.243  10.190  21.588  0.00  0.00    +0.000 A 
ATOM      6  C   UNL     1       0.095  11.571  21.249  0.00  0.00    +0.000 A 
ATOM      7  C   UNL     1       1.201   7.905  20.651  0.00  0.00    +0.000 C 
ATOM      8  N   UNL     1       1.871   7.730  19.363  0.00  0.00    +0.000 N 
ATOM      9  C   UNL     1       1.905   8.909  18.629  0.00  0.00    +0.000 C 
ATOM     10  O   UNL     1       2.322   9.142  17.510  0.00  0.00    +0.000 OA
ENDROOT
BRANCH   1  19
ATOM     11  C   UNL     1      -0.533  17.248  18.128  0.00  0.00    +0.000 C 
ATOM     12  N   UNL     1      -0.264  15.919  18.663  0.00  0.00    +0.000 NA
ATOM     13  C   UNL     1       1.132  15.481  18.482  0.00  0.00    +0.000 C 
ATOM     14  C   UNL     1       1.558  14.247  19.357  0.00  0.00    +0.000 C 
ATOM     15  C   UNL     1       2.078  14.688  20.751  0.00  0.00    +0.000 C 
ATOM     16  C   UNL     1       0.852  14.684  21.672  0.00  0.00    +0.000 C 
ATOM     17  C   UNL     1      -0.311  14.394  20.710  0.00  0.00    +0.000 C 
ATOM     18  C   UNL     1      -0.728  15.757  20.043  0.00  0.00    +0.000 C 
ATOM     19  N   UNL     1       0.331  13.480  19.701  0.00  0.00    +0.000 N 
ENDBRANCH   1  19
BRANCH   8  20
ATOM     20  C   UNL     1       2.629   6.585  19.029  0.00  0.00    +0.000 A 
ATOM     21  C   UNL     1       2.561   5.451  19.848  0.00  0.00    +0.000 A 
ATOM     22  C   UNL     1       3.260   4.294  19.534  0.00  0.00    +0.000 A 
ATOM     23  C   UNL     1       4.073   4.269  18.404  0.00  0.00    +0.000 A 
ATOM     24  C   UNL     1       4.192   5.400  17.576  0.00  0.00    +0.000 A 
ATOM     25  C   UNL     1       3.443   6.552  17.890  0.00  0.00    +0.000 A 
BRANCH  24  26
ATOM     26  C   UNL     1       5.214   5.344  16.437  0.00  0.00    +0.000 C 
ATOM     27  C   UNL     1       4.818   4.161  15.534  0.00  0.00    +0.000 C 
ATOM     28  F   UNL     1       5.103   6.469  15.640  0.00  0.00    +0.000 F 
BRANCH  26  29
ATOM     29  C   UNL     1       6.713   5.221  16.818  0.00  0.00    +0.000 C 
ATOM     30  F   UNL     1       6.879   4.207  17.721  0.00  0.00    +0.000 F 
ATOM     31  F   UNL     1       7.406   4.800  15.710  0.00  0.00    +0.000 F 
BRANCH  29  32
ATOM     32  C   UNL     1       7.313   6.489  17.335  0.00  0.00    +0.000 A 
ATOM     33  N   UNL     1       7.331   7.655  16.712  0.00  0.00    +0.000 NA
ATOM     34  N   UNL     1       7.923   8.578  17.536  0.00  0.00    +0.000 NA
ATOM     35  C   UNL     1       8.251   7.967  18.647  0.00  0.00    +0.000 A 
ATOM     36  N   UNL     1       7.900   6.653  18.568  0.00  0.00    +0.000 N 
ATOM     37  C   UNL     1       8.106   5.678  19.605  0.00  0.00    +0.000 C 
ENDBRANCH  29  32
ENDBRANCH  26  29
ENDBRANCH  24  26
ENDBRANCH   8  20
BRANCH   5  38
ATOM     38  C   UNL     1      -0.260   9.670  22.909  0.00  0.00    +0.000 C 
ATOM     39  F   UNL     1       0.738   9.384  23.794  0.00  0.00    +0.000 F 
ATOM     40  F   UNL     1      -1.081  10.550  23.546  0.00  0.00    +0.000 F 
ATOM     41  F   UNL     1      -0.973   8.517  22.776  0.00  0.00    +0.000 F 
ENDBRANCH   5  38
TORSDOF 6
ENDMDL
MODEL 3
REMARK VINA RESULT:      -9.6      0.496      1.116
REMARK  Name = 
REMARK  9 active torsions:
REMARK  status: ('A' for Active; 'I' for Inactive)
REMARK    1  A    between atoms: C_1  and  N_2
REMARK    2  A    between atoms: N_9  and  C_10
REMARK    3  A    between atoms: C_14  and  C_15
REMARK    4  A    between atoms: N_21  and  C_22
REMARK    5  A    between atoms: C_26  and  C_27
REMARK    6  A    between atoms: C_27  and  C_28
REMARK    7  A    between atoms: C_27  and  C_30
REMARK    8  A    between atoms: C_30  and  C_33
REMARK    9  A    between atoms: N_37  and  C_38
REMARK                            x       y       z     vdW  Elec       q    Type
REMARK                         _______ _______ _______ _____ _____    ______ ____
ROOT
ATOM      1  C   UNL     1       3.701   5.424  17.659  0.00  0.00    +0.000 A 
ATOM      2  C   UNL     1       3.298   6.739  17.859  0.00  0.00    +0.000 A 
ATOM      3  C   UNL     1       2.561   7.056  18.978  0.00  0.00    +0.000 A 
ATOM      4  C   UNL     1       2.127   6.143  19.922  0.00  0.00    +0.000 A 
ATOM      5  C   UNL     1       2.455   4.803  19.753  0.00  0.00    +0.000 A 
ATOM      6  C   UNL     1       3.240   4.465  18.608  0.00  0.00    +0.000 A 
ATOM      7  C   UNL     1       1.318   6.866  20.965  0.00  0.00    +0.000 C 
ATOM      8  N   UNL     1       1.349   8.250  20.493  0.00  0.00    +0.000 N 
ATOM      9  C   UNL     1       2.109   8.390  19.340  0.00  0.00    +0.000 C 
ATOM     10  O   UNL     1       2.408   9.377  18.694  0.00  0.00    +0.000 OA
ENDROOT
BRANCH   1  19
ATOM     11  C   UNL     1       6.265   3.633  13.065  0.00  0.00    +0.000 C 
ATOM     12  N   UNL     1       5.619   4.139  14.269  0.00  0.00    +0.000 NA
ATOM     13  C   UNL     1       5.810   3.276  15.449  0.00  0.00    +0.000 C 
ATOM     14  C   UNL     1       5.465   3.951  16.826  0.00  0.00    +0.000 C 
ATOM     15  C   UNL     1       6.688   4.703  17.415  0.00  0.00    +0.000 C 
ATOM     16  C   UNL     1       6.581   6.141  16.893  0.00  0.00    +0.000 C 
ATOM     17  C   UNL     1       5.396   6.076  15.917  0.00  0.00    +0.000 C 
ATOM     18  C   UNL     1       5.941   5.541  14.541  0.00  0.00    +0.000 C 
ATOM     19  N   UNL     1       4.502   5.055  16.569  0.00  0.00    +0.000 N 
ENDBRANCH   1  19
BRANCH   8  20
ATOM     20  C   UNL     1       0.493   9.261  20.988  0.00  0.00    +0.000 A 
ATOM     21  C   UNL     1       0.162   9.278  22.349  0.00  0.00    +0.000 A 
ATOM     22  C   UNL     1      -0.645  10.274  22.880  0.00  0.00    +0.000 A 
ATOM     23  C   UNL     1      -1.165  11.256  22.039  0.00  0.00    +0.000 A 
ATOM     24  C   UNL     1      -0.881  11.251  20.662  0.00  0.00    +0.000 A 
ATOM     25  C   UNL     1      -0.028  10.254  20.149  0.00  0.00    +0.000 A 
BRANCH  24  26
ATOM     26  C   UNL     1      -1.606  12.275  19.784  0.00  0.00    +0.000 C 
ATOM     27  C   UNL     1      -2.138  11.516  18.554  0.00  0.00    +0.000 C 
ATOM     28  F   UNL     1      -2.729  12.752  20.436  0.00  0.00    +0.000 F 
BRANCH  26  29
ATOM     29  C   UNL     1      -0.808  13.519  19.315  0.00  0.00    +0.000 C 
ATOM     30  F   UNL     1      -0.741  13.538  17.949  0.00  0.00    +0.000 F 
ATOM     31  F   UNL     1      -1.533  14.641  19.631  0.00  0.00    +0.000 F 
BRANCH  29  32
ATOM     32  C   UNL     1       0.560  13.621  19.910  0.00  0.00    +0.000 A 
ATOM     33  N   UNL     1       1.692  13.256  19.332  0.00  0.00    +0.000 NA
ATOM     34  N   UNL     1       2.729  13.559  20.178  0.00  0.00    +0.000 NA
ATOM     35  C   UNL     1       2.218  14.107  21.252  0.00  0.00    +0.000 A 
ATOM     36  N   UNL     1       0.862  14.159  21.139  0.00  0.00    +0.000 N 
ATOM     37  C   UNL     1      -0.031  14.700  22.129  0.00  0.00    +0.000 C 
ENDBRANCH  29  32
ENDBRANCH  26  29
ENDBRANCH  24  26
ENDBRANCH   8  20
BRANCH   5  38
ATOM     38  C   UNL     1       2.022   3.736  20.724  0.00  0.00    +0.000 C 
ATOM     39  F   UNL     1       0.668   3.590  20.799  0.00  0.00    +0.000 F 
ATOM     40  F   UNL     1       2.512   2.505  20.412  0.00  0.00    +0.000 F 
ATOM     41  F   UNL     1       2.433   3.994  21.997  0.00  0.00    +0.000 F 
ENDBRANCH   5  38
TORSDOF 6
ENDMDL
MODEL 4
REMARK VINA RESULT:      -9.5      0.787      1.150
REMARK  Name = 
REMARK  9 active torsions:
REMARK  status: ('A' for Active; 'I' for Inactive)
REMARK    1  A    between atoms: C_1  and  N_2
REMARK    2  A    between atoms: N_9  and  C_10
REMARK    3  A    between atoms: C_14  and  C_15
REMARK    4  A    between atoms: N_21  and  C_22
REMARK    5  A    between atoms: C_26  and  C_27
REMARK    6  A    between atoms: C_27  and  C_28
REMARK    7  A    between atoms: C_27  and  C_30
REMARK    8  A    between atoms: C_30  and  C_33
REMARK    9  A    between atoms: N_37  and  C_38
REMARK                            x       y       z     vdW  Elec       q    Type
REMARK                         _______ _______ _______ _____ _____    ______ ____
ROOT
ATOM      1  C   UNL     1       3.659   5.452  17.745  0.00  0.00    +0.000 A 
ATOM      2  C   UNL     1       3.263   6.768  17.953  0.00  0.00    +0.000 A 
ATOM      3  C   UNL     1       2.541   7.085  19.082  0.00  0.00    +0.000 A 
ATOM      4  C   UNL     1       2.117   6.171  20.029  0.00  0.00    +0.000 A 
ATOM      5  C   UNL     1       2.439   4.830  19.854  0.00  0.00    +0.000 A 
ATOM      6  C   UNL     1       3.208   4.492  18.697  0.00  0.00    +0.000 A 
ATOM      7  C   UNL     1       1.323   6.894  21.084  0.00  0.00    +0.000 C 
ATOM      8  N   UNL     1       1.352   8.279  20.614  0.00  0.00    +0.000 N 
ATOM      9  C   UNL     1       2.098   8.419  19.452  0.00  0.00    +0.000 C 
ATOM     10  O   UNL     1       2.392   9.407  18.804  0.00  0.00    +0.000 OA
ENDROOT
BRANCH   1  19
ATOM     11  C   UNL     1       6.165   3.650  13.122  0.00  0.00    +0.000 C 
ATOM     12  N   UNL     1       5.534   4.159  14.333  0.00  0.00    +0.000 NA
ATOM     13  C   UNL     1       5.758   3.311  15.518  0.00  0.00    +0.000 C 
ATOM     14  C   UNL     1       5.428   3.994  16.894  0.00  0.00    +0.000 C 
ATOM     15  C   UNL     1       6.651   4.768  17.454  0.00  0.00    +0.000 C 
ATOM     16  C   UNL     1       6.516   6.199  16.921  0.00  0.00    +0.000 C 
ATOM     17  C   UNL     1       5.315   6.109  15.966  0.00  0.00    +0.000 C 
ATOM     18  C   UNL     1       5.842   5.568  14.586  0.00  0.00    +0.000 C 
ATOM     19  N   UNL     1       4.446   5.083  16.645  0.00  0.00    +0.000 N 
ENDBRANCH   1  19
BRANCH   8  20
ATOM     20  C   UNL     1       0.506   9.291  21.122  0.00  0.00    +0.000 A 
ATOM     21  C   UNL     1      -0.027   9.161  22.411  0.00  0.00    +0.000 A 
ATOM     22  C   UNL     1      -0.832  10.150  22.959  0.00  0.00    +0.000 A 
ATOM     23  C   UNL     1      -1.147  11.276  22.201  0.00  0.00    +0.000 A 
ATOM     24  C   UNL     1      -0.657  11.425  20.891  0.00  0.00    +0.000 A 
ATOM     25  C   UNL     1       0.190  10.428  20.368  0.00  0.00    +0.000 A 
BRANCH  24  26
ATOM     26  C   UNL     1      -1.165  12.615  20.074  0.00  0.00    +0.000 C 
ATOM     27  C   UNL     1      -1.866  12.041  18.829  0.00  0.00    +0.000 C 
ATOM     28  F   UNL     1      -2.151  13.289  20.774  0.00  0.00    +0.000 F 
BRANCH  26  29
ATOM     29  C   UNL     1      -0.130  13.684  19.635  0.00  0.00    +0.000 C 
ATOM     30  F   UNL     1       0.734  13.143  18.723  0.00  0.00    +0.000 F 
ATOM     31  F   UNL     1      -0.791  14.660  18.931  0.00  0.00    +0.000 F 
BRANCH  29  32
ATOM     32  C   UNL     1       0.621  14.302  20.769  0.00  0.00    +0.000 A 
ATOM     33  N   UNL     1       1.768  13.877  21.270  0.00  0.00    +0.000 NA
ATOM     34  N   UNL     1       2.157  14.742  22.262  0.00  0.00    +0.000 NA
ATOM     35  C   UNL     1       1.248  15.682  22.347  0.00  0.00    +0.000 A 
ATOM     36  N   UNL     1       0.260  15.447  21.440  0.00  0.00    +0.000 N 
ATOM     37  C   UNL     1      -0.901  16.276  21.249  0.00  0.00    +0.000 C 
ENDBRANCH  29  32
ENDBRANCH  26  29
ENDBRANCH  24  26
ENDBRANCH   8  20
BRANCH   5  38
ATOM     38  C   UNL     1       2.015   3.763  20.828  0.00  0.00    +0.000 C 
ATOM     39  F   UNL     1       2.432   3.998  22.104  0.00  0.00    +0.000 F 
ATOM     40  F   UNL     1       0.663   3.618  20.899  0.00  0.00    +0.000 F 
ATOM     41  F   UNL     1       2.508   2.535  20.501  0.00  0.00    +0.000 F 
ENDBRANCH   5  38
TORSDOF 6
ENDMDL
MODEL 5
REMARK VINA RESULT:      -9.4      1.977      3.051
REMARK  Name = 
REMARK  9 active torsions:
REMARK  status: ('A' for Active; 'I' for Inactive)
REMARK    1  A    between atoms: C_1  and  N_2
REMARK    2  A    between atoms: N_9  and  C_10
REMARK    3  A    between atoms: C_14  and  C_15
REMARK    4  A    between atoms: N_21  and  C_22
REMARK    5  A    between atoms: C_26  and  C_27
REMARK    6  A    between atoms: C_27  and  C_28
REMARK    7  A    between atoms: C_27  and  C_30
REMARK    8  A    between atoms: C_30  and  C_33
REMARK    9  A    between atoms: N_37  and  C_38
REMARK                            x       y       z     vdW  Elec       q    Type
REMARK                         _______ _______ _______ _____ _____    ______ ____
ROOT
ATOM      1  C   UNL     1       3.655   5.616  17.765  0.00  0.00    +0.000 A 
ATOM      2  C   UNL     1       3.215   6.924  17.928  0.00  0.00    +0.000 A 
ATOM      3  C   UNL     1       2.475   7.253  19.042  0.00  0.00    +0.000 A 
ATOM      4  C   UNL     1       2.074   6.356  20.015  0.00  0.00    +0.000 A 
ATOM      5  C   UNL     1       2.441   5.022  19.884  0.00  0.00    +0.000 A 
ATOM      6  C   UNL     1       3.229   4.672  18.744  0.00  0.00    +0.000 A 
ATOM      7  C   UNL     1       1.250   7.085  21.041  0.00  0.00    +0.000 C 
ATOM      8  N   UNL     1       1.237   8.455  20.529  0.00  0.00    +0.000 N 
ATOM      9  C   UNL     1       1.986   8.583  19.366  0.00  0.00    +0.000 C 
ATOM     10  O   UNL     1       2.252   9.559  18.690  0.00  0.00    +0.000 OA
ENDROOT
BRANCH   1  19
ATOM     11  C   UNL     1       6.250   3.754  13.215  0.00  0.00    +0.000 C 
ATOM     12  N   UNL     1       5.594   4.279  14.406  0.00  0.00    +0.000 NA
ATOM     13  C   UNL     1       5.834   3.474  15.617  0.00  0.00    +0.000 C 
ATOM     14  C   UNL     1       5.473   4.187  16.970  0.00  0.00    +0.000 C 
ATOM     15  C   UNL     1       6.668   5.013  17.515  0.00  0.00    +0.000 C 
ATOM     16  C   UNL     1       6.495   6.424  16.939  0.00  0.00    +0.000 C 
ATOM     17  C   UNL     1       5.305   6.269  15.979  0.00  0.00    +0.000 C 
ATOM     18  C   UNL     1       5.859   5.704  14.619  0.00  0.00    +0.000 C 
ATOM     19  N   UNL     1       4.462   5.239  16.681  0.00  0.00    +0.000 N 
ENDBRANCH   1  19
BRANCH   8  20
ATOM     20  C   UNL     1       0.355   9.454  20.998  0.00  0.00    +0.000 A 
ATOM     21  C   UNL     1      -0.014   9.468  22.349  0.00  0.00    +0.000 A 
ATOM     22  C   UNL     1      -0.849  10.454  22.857  0.00  0.00    +0.000 A 
ATOM     23  C   UNL     1      -1.359  11.427  22.002  0.00  0.00    +0.000 A 
ATOM     24  C   UNL     1      -1.038  11.426  20.632  0.00  0.00    +0.000 A 
ATOM     25  C   UNL     1      -0.158  10.439  20.144  0.00  0.00    +0.000 A 
BRANCH  24  26
ATOM     26  C   UNL     1      -1.752  12.438  19.733  0.00  0.00    +0.000 C 
ATOM     27  C   UNL     1      -1.862  13.750  20.532  0.00  0.00    +0.000 C 
ATOM     28  F   UNL     1      -0.965  12.739  18.635  0.00  0.00    +0.000 F 
BRANCH  26  29
ATOM     29  C   UNL     1      -3.149  12.054  19.180  0.00  0.00    +0.000 C 
ATOM     30  F   UNL     1      -3.749  11.158  20.022  0.00  0.00    +0.000 F 
ATOM     31  F   UNL     1      -3.957  13.162  19.240  0.00  0.00    +0.000 F 
BRANCH  29  32
ATOM     32  C   UNL     1      -3.124  11.526  17.782  0.00  0.00    +0.000 A 
ATOM     33  N   UNL     1      -2.110  10.911  17.198  0.00  0.00    +0.000 NA
ATOM     34  N   UNL     1      -2.497  10.534  15.937  0.00  0.00    +0.000 NA
ATOM     35  C   UNL     1      -3.739  10.917  15.773  0.00  0.00    +0.000 A 
ATOM     36  N   UNL     1      -4.175  11.553  16.896  0.00  0.00    +0.000 N 
ATOM     37  C   UNL     1      -5.491  12.106  17.076  0.00  0.00    +0.000 C 
ENDBRANCH  29  32
ENDBRANCH  26  29
ENDBRANCH  24  26
ENDBRANCH   8  20
BRANCH   5  38
ATOM     38  C   UNL     1       2.045   3.972  20.889  0.00  0.00    +0.000 C 
ATOM     39  F   UNL     1       2.564   2.740  20.619  0.00  0.00    +0.000 F 
ATOM     40  F   UNL     1       2.443   4.274  22.156  0.00  0.00    +0.000 F 
ATOM     41  F   UNL     1       0.695   3.795  20.951  0.00  0.00    +0.000 F 
ENDBRANCH   5  38
TORSDOF 6
ENDMDL
MODEL 6
REMARK VINA RESULT:      -9.3      1.107      1.671
REMARK  Name = 
REMARK  9 active torsions:
REMARK  status: ('A' for Active; 'I' for Inactive)
REMARK    1  A    between atoms: C_1  and  N_2
REMARK    2  A    between atoms: N_9  and  C_10
REMARK    3  A    between atoms: C_14  and  C_15
REMARK    4  A    between atoms: N_21  and  C_22
REMARK    5  A    between atoms: C_26  and  C_27
REMARK    6  A    between atoms: C_27  and  C_28
REMARK    7  A    between atoms: C_27  and  C_30
REMARK    8  A    between atoms: C_30  and  C_33
REMARK    9  A    between atoms: N_37  and  C_38
REMARK                            x       y       z     vdW  Elec       q    Type
REMARK                         _______ _______ _______ _____ _____    ______ ____
ROOT
ATOM      1  C   UNL     1       3.650   5.522  17.745  0.00  0.00    +0.000 A 
ATOM      2  C   UNL     1       3.236   6.836  17.931  0.00  0.00    +0.000 A 
ATOM      3  C   UNL     1       2.506   7.161  19.052  0.00  0.00    +0.000 A 
ATOM      4  C   UNL     1       2.088   6.256  20.011  0.00  0.00    +0.000 A 
ATOM      5  C   UNL     1       2.427   4.917  19.857  0.00  0.00    +0.000 A 
ATOM      6  C   UNL     1       3.206   4.571  18.710  0.00  0.00    +0.000 A 
ATOM      7  C   UNL     1       1.280   6.985  21.051  0.00  0.00    +0.000 C 
ATOM      8  N   UNL     1       1.295   8.363  20.561  0.00  0.00    +0.000 N 
ATOM      9  C   UNL     1       2.044   8.495  19.399  0.00  0.00    +0.000 C 
ATOM     10  O   UNL     1       2.329   9.477  18.739  0.00  0.00    +0.000 OA
ENDROOT
BRANCH   1  19
ATOM     11  C   UNL     1       6.193   3.701  13.150  0.00  0.00    +0.000 C 
ATOM     12  N   UNL     1       5.552   4.214  14.354  0.00  0.00    +0.000 NA
ATOM     13  C   UNL     1       5.751   3.361  15.539  0.00  0.00    +0.000 C 
ATOM     14  C   UNL     1       5.412   4.045  16.913  0.00  0.00    +0.000 C 
ATOM     15  C   UNL     1       6.637   4.803  17.491  0.00  0.00    +0.000 C 
ATOM     16  C   UNL     1       6.526   6.237  16.959  0.00  0.00    +0.000 C 
ATOM     17  C   UNL     1       5.335   6.163  15.989  0.00  0.00    +0.000 C 
ATOM     18  C   UNL     1       5.874   5.619  14.614  0.00  0.00    +0.000 C 
ATOM     19  N   UNL     1       4.446   5.146  16.654  0.00  0.00    +0.000 N 
ENDBRANCH   1  19
BRANCH   8  20
ATOM     20  C   UNL     1       0.434   9.372  21.049  0.00  0.00    +0.000 A 
ATOM     21  C   UNL     1      -0.036   9.299  22.367  0.00  0.00    +0.000 A 
ATOM     22  C   UNL     1      -0.853  10.289  22.895  0.00  0.00    +0.000 A 
ATOM     23  C   UNL     1      -1.244  11.357  22.091  0.00  0.00    +0.000 A 
ATOM     24  C   UNL     1      -0.819  11.446  20.753  0.00  0.00    +0.000 A 
ATOM     25  C   UNL     1       0.042  10.452  20.247  0.00  0.00    +0.000 A 
BRANCH  24  26
ATOM     26  C   UNL     1      -1.408  12.568  19.893  0.00  0.00    +0.000 C 
ATOM     27  C   UNL     1      -2.126  11.898  18.707  0.00  0.00    +0.000 C 
ATOM     28  F   UNL     1      -2.398  13.235  20.594  0.00  0.00    +0.000 F 
BRANCH  26  29
ATOM     29  C   UNL     1      -0.439  13.655  19.361  0.00  0.00    +0.000 C 
ATOM     30  F   UNL     1       0.855  13.249  19.540  0.00  0.00    +0.000 F 
ATOM     31  F   UNL     1      -0.580  13.729  17.998  0.00  0.00    +0.000 F 
BRANCH  29  32
ATOM     32  C   UNL     1      -0.653  15.007  19.963  0.00  0.00    +0.000 A 
ATOM     33  N   UNL     1      -1.271  16.026  19.392  0.00  0.00    +0.000 NA
ATOM     34  N   UNL     1      -1.308  17.067  20.285  0.00  0.00    +0.000 NA
ATOM     35  C   UNL     1      -0.721  16.668  21.385  0.00  0.00    +0.000 A 
ATOM     36  N   UNL     1      -0.283  15.387  21.232  0.00  0.00    +0.000 N 
ATOM     37  C   UNL     1       0.406  14.622  22.237  0.00  0.00    +0.000 C 
ENDBRANCH  29  32
ENDBRANCH  26  29
ENDBRANCH  24  26
ENDBRANCH   8  20
BRANCH   5  38
ATOM     38  C   UNL     1       2.011   3.859  20.845  0.00  0.00    +0.000 C 
ATOM     39  F   UNL     1       0.661   3.685  20.916  0.00  0.00    +0.000 F 
ATOM     40  F   UNL     1       2.530   2.633  20.559  0.00  0.00    +0.000 F 
ATOM     41  F   UNL     1       2.410   4.150  22.116  0.00  0.00    +0.000 F 
ENDBRANCH   5  38
TORSDOF 6
ENDMDL
MODEL 7
REMARK VINA RESULT:      -9.2      3.018     10.768
REMARK  Name = 
REMARK  9 active torsions:
REMARK  status: ('A' for Active; 'I' for Inactive)
REMARK    1  A    between atoms: C_1  and  N_2
REMARK    2  A    between atoms: N_9  and  C_10
REMARK    3  A    between atoms: C_14  and  C_15
REMARK    4  A    between atoms: N_21  and  C_22
REMARK    5  A    between atoms: C_26  and  C_27
REMARK    6  A    between atoms: C_27  and  C_28
REMARK    7  A    between atoms: C_27  and  C_30
REMARK    8  A    between atoms: C_30  and  C_33
REMARK    9  A    between atoms: N_37  and  C_38
REMARK                            x       y       z     vdW  Elec       q    Type
REMARK                         _______ _______ _______ _____ _____    ______ ____
ROOT
ATOM      1  C   UNL     1      -2.627  12.956  21.281  0.00  0.00    +0.000 A 
ATOM      2  C   UNL     1      -1.357  12.394  21.328  0.00  0.00    +0.000 A 
ATOM      3  C   UNL     1      -0.931  11.600  20.286  0.00  0.00    +0.000 A 
ATOM      4  C   UNL     1      -1.701  11.259  19.189  0.00  0.00    +0.000 A 
ATOM      5  C   UNL     1      -2.998  11.749  19.106  0.00  0.00    +0.000 A 
ATOM      6  C   UNL     1      -3.444  12.593  20.170  0.00  0.00    +0.000 A 
ATOM      7  C   UNL     1      -0.902  10.346  18.298  0.00  0.00    +0.000 C 
ATOM      8  N   UNL     1       0.365  10.221  19.018  0.00  0.00    +0.000 N 
ATOM      9  C   UNL     1       0.381  10.984  20.179  0.00  0.00    +0.000 C 
ATOM     10  O   UNL     1       1.262  11.176  20.996  0.00  0.00    +0.000 OA
ENDROOT
BRANCH   1  19
ATOM     11  C   UNL     1      -3.937  16.859  25.015  0.00  0.00    +0.000 C 
ATOM     12  N   UNL     1      -3.636  15.823  24.035  0.00  0.00    +0.000 NA
ATOM     13  C   UNL     1      -2.740  14.770  24.543  0.00  0.00    +0.000 C 
ATOM     14  C   UNL     1      -2.691  13.463  23.672  0.00  0.00    +0.000 C 
ATOM     15  C   UNL     1      -3.796  12.457  24.089  0.00  0.00    +0.000 C 
ATOM     16  C   UNL     1      -5.007  12.781  23.205  0.00  0.00    +0.000 C 
ATOM     17  C   UNL     1      -4.568  14.048  22.454  0.00  0.00    +0.000 C 
ATOM     18  C   UNL     1      -4.837  15.278  23.397  0.00  0.00    +0.000 C 
ATOM     19  N   UNL     1      -3.090  13.820  22.284  0.00  0.00    +0.000 N 
ENDBRANCH   1  19
BRANCH   8  20
ATOM     20  C   UNL     1       1.337   9.240  18.719  0.00  0.00    +0.000 A 
ATOM     21  C   UNL     1       2.240   9.461  17.672  0.00  0.00    +0.000 A 
ATOM     22  C   UNL     1       3.233   8.539  17.371  0.00  0.00    +0.000 A 
ATOM     23  C   UNL     1       3.312   7.354  18.099  0.00  0.00    +0.000 A 
ATOM     24  C   UNL     1       2.401   7.083  19.136  0.00  0.00    +0.000 A 
ATOM     25  C   UNL     1       1.425   8.049  19.452  0.00  0.00    +0.000 A 
BRANCH  24  26
ATOM     26  C   UNL     1       2.461   5.700  19.790  0.00  0.00    +0.000 C 
ATOM     27  C   UNL     1       3.945   5.292  19.846  0.00  0.00    +0.000 C 
ATOM     28  F   UNL     1       2.051   5.778  21.110  0.00  0.00    +0.000 F 
BRANCH  26  29
ATOM     29  C   UNL     1       1.638   4.557  19.142  0.00  0.00    +0.000 C 
ATOM     30  F   UNL     1       0.544   4.279  19.914  0.00  0.00    +0.000 F 
ATOM     31  F   UNL     1       1.107   5.023  17.964  0.00  0.00    +0.000 F 
BRANCH  29  32
ATOM     32  C   UNL     1       2.426   3.314  18.881  0.00  0.00    +0.000 A 
ATOM     33  N   UNL     1       2.899   2.920  17.711  0.00  0.00    +0.000 NA
ATOM     34  N   UNL     1       3.610   1.762  17.897  0.00  0.00    +0.000 NA
ATOM     35  C   UNL     1       3.566   1.470  19.173  0.00  0.00    +0.000 A 
ATOM     36  N   UNL     1       2.828   2.405  19.832  0.00  0.00    +0.000 N 
ATOM     37  C   UNL     1       2.567   2.408  21.248  0.00  0.00    +0.000 C 
ENDBRANCH  29  32
ENDBRANCH  26  29
ENDBRANCH  24  26
ENDBRANCH   8  20
BRANCH   5  38
ATOM     38  C   UNL     1      -3.913  11.426  17.954  0.00  0.00    +0.000 C 
ATOM     39  F   UNL     1      -5.130  12.035  18.041  0.00  0.00    +0.000 F 
ATOM     40  F   UNL     1      -3.397  11.795  16.749  0.00  0.00    +0.000 F 
ATOM     41  F   UNL     1      -4.177  10.092  17.858  0.00  0.00    +0.000 F 
ENDBRANCH   5  38
TORSDOF 6
ENDMDL
MODEL 8
REMARK VINA RESULT:      -9.1      0.792      1.236
REMARK  Name = 
REMARK  9 active torsions:
REMARK  status: ('A' for Active; 'I' for Inactive)
REMARK    1  A    between atoms: C_1  and  N_2
REMARK    2  A    between atoms: N_9  and  C_10
REMARK    3  A    between atoms: C_14  and  C_15
REMARK    4  A    between atoms: N_21  and  C_22
REMARK    5  A    between atoms: C_26  and  C_27
REMARK    6  A    between atoms: C_27  and  C_28
REMARK    7  A    between atoms: C_27  and  C_30
REMARK    8  A    between atoms: C_30  and  C_33
REMARK    9  A    between atoms: N_37  and  C_38
REMARK                            x       y       z     vdW  Elec       q    Type
REMARK                         _______ _______ _______ _____ _____    ______ ____
ROOT
ATOM      1  C   UNL     1       3.623   5.495  17.801  0.00  0.00    +0.000 A 
ATOM      2  C   UNL     1       3.207   6.804  18.017  0.00  0.00    +0.000 A 
ATOM      3  C   UNL     1       2.478   7.103  19.146  0.00  0.00    +0.000 A 
ATOM      4  C   UNL     1       2.065   6.176  20.086  0.00  0.00    +0.000 A 
ATOM      5  C   UNL     1       2.406   4.842  19.902  0.00  0.00    +0.000 A 
ATOM      6  C   UNL     1       3.183   4.522  18.746  0.00  0.00    +0.000 A 
ATOM      7  C   UNL     1       1.258   6.880  21.144  0.00  0.00    +0.000 C 
ATOM      8  N   UNL     1       1.268   8.269  20.684  0.00  0.00    +0.000 N 
ATOM      9  C   UNL     1       2.015   8.428  19.524  0.00  0.00    +0.000 C 
ATOM     10  O   UNL     1       2.295   9.424  18.884  0.00  0.00    +0.000 OA
ENDROOT
BRANCH   1  19
ATOM     11  C   UNL     1       6.167   3.756  13.175  0.00  0.00    +0.000 C 
ATOM     12  N   UNL     1       5.525   4.249  14.387  0.00  0.00    +0.000 NA
ATOM     13  C   UNL     1       5.766   3.404  15.570  0.00  0.00    +0.000 C 
ATOM     14  C   UNL     1       5.422   4.077  16.947  0.00  0.00    +0.000 C 
ATOM     15  C   UNL     1       6.628   4.875  17.509  0.00  0.00    +0.000 C 
ATOM     16  C   UNL     1       6.463   6.305  16.979  0.00  0.00    +0.000 C 
ATOM     17  C   UNL     1       5.264   6.191  16.024  0.00  0.00    +0.000 C 
ATOM     18  C   UNL     1       5.803   5.664  14.643  0.00  0.00    +0.000 C 
ATOM     19  N   UNL     1       4.418   5.146  16.700  0.00  0.00    +0.000 N 
ENDBRANCH   1  19
BRANCH   8  20
ATOM     20  C   UNL     1       0.406   9.265  21.196  0.00  0.00    +0.000 A 
ATOM     21  C   UNL     1      -0.075   9.152  22.507  0.00  0.00    +0.000 A 
ATOM     22  C   UNL     1      -0.894  10.128  23.059  0.00  0.00    +0.000 A 
ATOM     23  C   UNL     1      -1.275  11.221  22.285  0.00  0.00    +0.000 A 
ATOM     24  C   UNL     1      -0.839  11.351  20.954  0.00  0.00    +0.000 A 
ATOM     25  C   UNL     1       0.024  10.370  20.425  0.00  0.00    +0.000 A 
BRANCH  24  26
ATOM     26  C   UNL     1      -1.417  12.501  20.126  0.00  0.00    +0.000 C 
ATOM     27  C   UNL     1      -1.108  12.192  18.649  0.00  0.00    +0.000 C 
ATOM     28  F   UNL     1      -2.798  12.509  20.219  0.00  0.00    +0.000 F 
BRANCH  26  29
ATOM     29  C   UNL     1      -0.946  13.940  20.460  0.00  0.00    +0.000 C 
ATOM     30  F   UNL     1      -1.886  14.843  20.045  0.00  0.00    +0.000 F 
ATOM     31  F   UNL     1      -0.925  14.081  21.825  0.00  0.00    +0.000 F 
BRANCH  29  32
ATOM     32  C   UNL     1       0.397  14.285  19.899  0.00  0.00    +0.000 A 
ATOM     33  N   UNL     1       1.525  13.631  20.116  0.00  0.00    +0.000 NA
ATOM     34  N   UNL     1       2.520  14.226  19.383  0.00  0.00    +0.000 NA
ATOM     35  C   UNL     1       1.986  15.227  18.727  0.00  0.00    +0.000 A 
ATOM     36  N   UNL     1       0.660  15.313  19.024  0.00  0.00    +0.000 N 
ATOM     37  C   UNL     1      -0.247  16.292  18.485  0.00  0.00    +0.000 C 
ENDBRANCH  29  32
ENDBRANCH  26  29
ENDBRANCH  24  26
ENDBRANCH   8  20
BRANCH   5  38
ATOM     38  C   UNL     1       1.995   3.761  20.868  0.00  0.00    +0.000 C 
ATOM     39  F   UNL     1       2.502   2.534  20.555  0.00  0.00    +0.000 F 
ATOM     40  F   UNL     1       2.393   4.013  22.145  0.00  0.00    +0.000 F 
ATOM     41  F   UNL     1       0.643   3.597  20.919  0.00  0.00    +0.000 F 
ENDBRANCH   5  38
TORSDOF 6
ENDMDL
MODEL 9
REMARK VINA RESULT:      -9.1      0.977      1.382
REMARK  Name = 
REMARK  9 active torsions:
REMARK  status: ('A' for Active; 'I' for Inactive)
REMARK    1  A    between atoms: C_1  and  N_2
REMARK    2  A    between atoms: N_9  and  C_10
REMARK    3  A    between atoms: C_14  and  C_15
REMARK    4  A    between atoms: N_21  and  C_22
REMARK    5  A    between atoms: C_26  and  C_27
REMARK    6  A    between atoms: C_27  and  C_28
REMARK    7  A    between atoms: C_27  and  C_30
REMARK    8  A    between atoms: C_30  and  C_33
REMARK    9  A    between atoms: N_37  and  C_38
REMARK                            x       y       z     vdW  Elec       q    Type
REMARK                         _______ _______ _______ _____ _____    ______ ____
ROOT
ATOM      1  C   UNL     1       3.647   5.437  17.758  0.00  0.00    +0.000 A 
ATOM      2  C   UNL     1       3.266   6.756  17.980  0.00  0.00    +0.000 A 
ATOM      3  C   UNL     1       2.543   7.068  19.110  0.00  0.00    +0.000 A 
ATOM      4  C   UNL     1       2.103   6.147  20.045  0.00  0.00    +0.000 A 
ATOM      5  C   UNL     1       2.409   4.806  19.854  0.00  0.00    +0.000 A 
ATOM      6  C   UNL     1       3.180   4.472  18.697  0.00  0.00    +0.000 A 
ATOM      7  C   UNL     1       1.314   6.868  21.104  0.00  0.00    +0.000 C 
ATOM      8  N   UNL     1       1.362   8.258  20.652  0.00  0.00    +0.000 N 
ATOM      9  C   UNL     1       2.115   8.403  19.494  0.00  0.00    +0.000 C 
ATOM     10  O   UNL     1       2.423   9.395  18.860  0.00  0.00    +0.000 OA
ENDROOT
BRANCH   1  19
ATOM     11  C   UNL     1       6.153   3.653  13.129  0.00  0.00    +0.000 C 
ATOM     12  N   UNL     1       5.522   4.157  14.342  0.00  0.00    +0.000 NA
ATOM     13  C   UNL     1       5.742   3.302  15.522  0.00  0.00    +0.000 C 
ATOM     14  C   UNL     1       5.412   3.979  16.902  0.00  0.00    +0.000 C 
ATOM     15  C   UNL     1       6.637   4.746  17.468  0.00  0.00    +0.000 C 
ATOM     16  C   UNL     1       6.507   6.181  16.942  0.00  0.00    +0.000 C 
ATOM     17  C   UNL     1       5.307   6.099  15.986  0.00  0.00    +0.000 C 
ATOM     18  C   UNL     1       5.834   5.564  14.603  0.00  0.00    +0.000 C 
ATOM     19  N   UNL     1       4.434   5.072  16.657  0.00  0.00    +0.000 N 
ENDBRANCH   1  19
BRANCH   8  20
ATOM     20  C   UNL     1       0.526   9.274  21.168  0.00  0.00    +0.000 A 
ATOM     21  C   UNL     1      -0.115   9.080  22.398  0.00  0.00    +0.000 A 
ATOM     22  C   UNL     1      -0.915  10.068  22.956  0.00  0.00    +0.000 A 
ATOM     23  C   UNL     1      -1.114  11.261  22.264  0.00  0.00    +0.000 A 
ATOM     24  C   UNL     1      -0.513  11.477  21.011  0.00  0.00    +0.000 A 
ATOM     25  C   UNL     1       0.327  10.478  20.480  0.00  0.00    +0.000 A 
BRANCH  24  26
ATOM     26  C   UNL     1      -0.896  12.749  20.250  0.00  0.00    +0.000 C 
ATOM     27  C   UNL     1      -2.399  12.649  19.934  0.00  0.00    +0.000 C 
ATOM     28  F   UNL     1      -0.765  13.855  21.073  0.00  0.00    +0.000 F 
BRANCH  26  29
ATOM     29  C   UNL     1      -0.117  13.075  18.949  0.00  0.00    +0.000 C 
ATOM     30  F   UNL     1       0.099  11.926  18.240  0.00  0.00    +0.000 F 
ATOM     31  F   UNL     1      -0.930  13.823  18.135  0.00  0.00    +0.000 F 
BRANCH  29  32
ATOM     32  C   UNL     1       1.170  13.801  19.179  0.00  0.00    +0.000 A 
ATOM     33  N   UNL     1       2.351  13.248  19.392  0.00  0.00    +0.000 NA
ATOM     34  N   UNL     1       3.285  14.247  19.502  0.00  0.00    +0.000 NA
ATOM     35  C   UNL     1       2.664  15.390  19.349  0.00  0.00    +0.000 A 
ATOM     36  N   UNL     1       1.335  15.167  19.154  0.00  0.00    +0.000 N 
ATOM     37  C   UNL     1       0.345  16.190  18.948  0.00  0.00    +0.000 C 
ENDBRANCH  29  32
ENDBRANCH  26  29
ENDBRANCH  24  26
ENDBRANCH   8  20
BRANCH   5  38
ATOM     38  C   UNL     1       1.968   3.732  20.813  0.00  0.00    +0.000 C 
ATOM     39  F   UNL     1       2.446   2.494  20.498  0.00  0.00    +0.000 F 
ATOM     40  F   UNL     1       2.365   3.969  22.094  0.00  0.00    +0.000 F 
ATOM     41  F   UNL     1       0.612   3.600  20.857  0.00  0.00    +0.000 F 
ENDBRANCH   5  38
TORSDOF 6
ENDMDL
