MODEL 1
REMARK VINA RESULT:      -8.4      0.000      0.000
REMARK  Name = 
REMARK  7 active torsions:
REMARK  status: ('A' for Active; 'I' for Inactive)
REMARK    1  A    between atoms: C_1  and  C_2
REMARK    2  A    between atoms: C_2  and  S_3
REMARK    3  A    between atoms: C_2  and  C_10
REMARK    4  A    between atoms: S_3  and  C_4
REMARK    5  A    between atoms: N_8  and  C_9
REMARK    6  A    between atoms: C_14  and  N_15
REMARK    7  A    between atoms: C_16  and  C_18
REMARK                            x       y       z     vdW  Elec       q    Type
REMARK                         _______ _______ _______ _____ _____    ______ ____
ROOT
ATOM      1  C   UNL     1      -0.397  10.536  20.713  0.00  0.00    +0.000 A 
ATOM      2  C   UNL     1      -0.425  10.376  22.108  0.00  0.00    +0.000 A 
ATOM      3  C   UNL     1       0.358   9.405  22.721  0.00  0.00    +0.000 A 
ATOM      4  C   UNL     1       1.196   8.588  21.961  0.00  0.00    +0.000 A 
ATOM      5  C   UNL     1       1.287   8.727  20.570  0.00  0.00    +0.000 A 
ATOM      6  C   UNL     1       0.494   9.722  19.962  0.00  0.00    +0.000 A 
ENDROOT
BRANCH   5   7
ATOM      7  N   UNL     1       2.110   7.889  19.755  0.00  0.00    +0.000 N 
ATOM      8  C   UNL     1       2.168   6.501  19.825  0.00  0.00    +0.000 C 
ATOM      9  O   UNL     1       1.556   5.805  20.633  0.00  0.00    +0.000 OA
ATOM     10  H   UNL     1       2.663   8.325  19.025  0.00  0.00    +0.000 HD
BRANCH   8  11
ATOM     11  C   UNL     1       3.008   5.768  18.811  0.00  0.00    +0.000 A 
ATOM     12  C   UNL     1       2.505   4.557  18.346  0.00  0.00    +0.000 A 
ATOM     13  C   UNL     1       3.237   3.828  17.421  0.00  0.00    +0.000 A 
ATOM     14  C   UNL     1       4.419   4.357  16.922  0.00  0.00    +0.000 A 
ATOM     15  C   UNL     1       5.107   3.675  15.904  0.00  0.00    +0.000 A 
ATOM     16  C   UNL     1       6.240   4.229  15.326  0.00  0.00    +0.000 A 
ATOM     17  C   UNL     1       6.715   5.445  15.803  0.00  0.00    +0.000 A 
ATOM     18  C   UNL     1       6.038   6.104  16.854  0.00  0.00    +0.000 A 
ATOM     19  C   UNL     1       4.868   5.605  17.425  0.00  0.00    +0.000 A 
ATOM     20  N   UNL     1       4.186   6.304  18.378  0.00  0.00    +0.000 NA
ENDBRANCH   8  11
ENDBRANCH   5   7
BRANCH   1  22
ATOM     21  C   UNL     1      -1.058  12.976  20.292  0.00  0.00    +0.000 C 
ATOM     22  C   UNL     1      -1.364  11.494  20.003  0.00  0.00    +0.000 C 
BRANCH  22  23
ATOM     23  S   UNL     1      -1.408  11.235  18.177  0.00  0.00    +0.000 S 
BRANCH  23  24
ATOM     24  C   UNL     1      -3.106  11.448  17.878  0.00  0.00    +0.000 A 
ATOM     25  N   UNL     1      -4.004  11.814  18.767  0.00  0.00    +0.000 NA
ATOM     26  N   UNL     1      -5.218  11.929  18.128  0.00  0.00    +0.000 NA
ATOM     27  C   UNL     1      -5.028  11.615  16.869  0.00  0.00    +0.000 A 
ATOM     28  N   UNL     1      -3.717  11.294  16.665  0.00  0.00    +0.000 N 
ATOM     29  C   UNL     1      -3.157  10.899  15.402  0.00  0.00    +0.000 C 
ENDBRANCH  23  24
ENDBRANCH  22  23
ENDBRANCH   1  22
TORSDOF 5
ENDMDL
MODEL 2
REMARK VINA RESULT:      -8.4      3.205     10.164
REMARK  Name = 
REMARK  7 active torsions:
REMARK  status: ('A' for Active; 'I' for Inactive)
REMARK    1  A    between atoms: C_1  and  C_2
REMARK    2  A    between atoms: C_2  and  S_3
REMARK    3  A    between atoms: C_2  and  C_10
REMARK    4  A    between atoms: S_3  and  C_4
REMARK    5  A    between atoms: N_8  and  C_9
REMARK    6  A    between atoms: C_14  and  N_15
REMARK    7  A    between atoms: C_16  and  C_18
REMARK                            x       y       z     vdW  Elec       q    Type
REMARK                         _______ _______ _______ _____ _____    ______ ____
ROOT
ATOM      1  C   UNL     1       2.774   6.849  19.334  0.00  0.00    +0.000 A 
ATOM      2  C   UNL     1       3.130   7.295  18.051  0.00  0.00    +0.000 A 
ATOM      3  C   UNL     1       2.538   8.432  17.512  0.00  0.00    +0.000 A 
ATOM      4  C   UNL     1       1.597   9.156  18.246  0.00  0.00    +0.000 A 
ATOM      5  C   UNL     1       1.230   8.774  19.543  0.00  0.00    +0.000 A 
ATOM      6  C   UNL     1       1.845   7.624  20.081  0.00  0.00    +0.000 A 
ENDROOT
BRANCH   5   7
ATOM      7  N   UNL     1       0.249   9.471  20.313  0.00  0.00    +0.000 N 
ATOM      8  C   UNL     1       0.278  10.827  20.620  0.00  0.00    +0.000 C 
ATOM      9  O   UNL     1       1.180  11.605  20.313  0.00  0.00    +0.000 OA
ATOM     10  H   UNL     1      -0.570   8.958  20.624  0.00  0.00    +0.000 HD
BRANCH   8  11
ATOM     11  C   UNL     1      -0.900  11.422  21.347  0.00  0.00    +0.000 A 
ATOM     12  C   UNL     1      -1.003  11.135  22.705  0.00  0.00    +0.000 A 
ATOM     13  C   UNL     1      -2.072  11.643  23.428  0.00  0.00    +0.000 A 
ATOM     14  C   UNL     1      -2.975  12.490  22.799  0.00  0.00    +0.000 A 
ATOM     15  C   UNL     1      -3.995  13.095  23.553  0.00  0.00    +0.000 A 
ATOM     16  C   UNL     1      -4.851  14.015  22.966  0.00  0.00    +0.000 A 
ATOM     17  C   UNL     1      -4.720  14.292  21.611  0.00  0.00    +0.000 A 
ATOM     18  C   UNL     1      -3.716  13.647  20.853  0.00  0.00    +0.000 A 
ATOM     19  C   UNL     1      -2.803  12.757  21.416  0.00  0.00    +0.000 A 
ATOM     20  N   UNL     1      -1.789  12.215  20.682  0.00  0.00    +0.000 NA
ENDBRANCH   8  11
ENDBRANCH   5   7
BRANCH   1  22
ATOM     21  C   UNL     1       2.275   4.798  20.787  0.00  0.00    +0.000 C 
ATOM     22  C   UNL     1       3.298   5.516  19.886  0.00  0.00    +0.000 C 
BRANCH  22  23
ATOM     23  S   UNL     1       3.840   4.360  18.555  0.00  0.00    +0.000 S 
BRANCH  23  24
ATOM     24  C   UNL     1       5.548   4.678  18.551  0.00  0.00    +0.000 A 
ATOM     25  N   UNL     1       6.258   5.087  19.581  0.00  0.00    +0.000 NA
ATOM     26  N   UNL     1       7.575   5.161  19.191  0.00  0.00    +0.000 NA
ATOM     27  C   UNL     1       7.631   4.809  17.929  0.00  0.00    +0.000 A 
ATOM     28  N   UNL     1       6.378   4.506  17.479  0.00  0.00    +0.000 N 
ATOM     29  C   UNL     1       6.069   4.083  16.140  0.00  0.00    +0.000 C 
ENDBRANCH  23  24
ENDBRANCH  22  23
ENDBRANCH   1  22
TORSDOF 5
ENDMDL
MODEL 3
REMARK VINA RESULT:      -8.4      6.736      9.563
REMARK  Name = 
REMARK  7 active torsions:
REMARK  status: ('A' for Active; 'I' for Inactive)
REMARK    1  A    between atoms: C_1  and  C_2
REMARK    2  A    between atoms: C_2  and  S_3
REMARK    3  A    between atoms: C_2  and  C_10
REMARK    4  A    between atoms: S_3  and  C_4
REMARK    5  A    between atoms: N_8  and  C_9
REMARK    6  A    between atoms: C_14  and  N_15
REMARK    7  A    between atoms: C_16  and  C_18
REMARK                            x       y       z     vdW  Elec       q    Type
REMARK                         _______ _______ _______ _____ _____    ______ ____
ROOT
ATOM      1  C   UNL     1       4.564   5.254  17.207  0.00  0.00    +0.000 A 
ATOM      2  C   UNL     1       5.232   4.342  16.375  0.00  0.00    +0.000 A 
ATOM      3  C   UNL     1       6.467   4.665  15.823  0.00  0.00    +0.000 A 
ATOM      4  C   UNL     1       7.066   5.894  16.103  0.00  0.00    +0.000 A 
ATOM      5  C   UNL     1       6.458   6.828  16.952  0.00  0.00    +0.000 A 
ATOM      6  C   UNL     1       5.211   6.483  17.512  0.00  0.00    +0.000 A 
ENDROOT
BRANCH   5   7
ATOM      7  N   UNL     1       7.026   8.108  17.237  0.00  0.00    +0.000 N 
ATOM      8  C   UNL     1       8.033   8.355  18.164  0.00  0.00    +0.000 C 
ATOM      9  O   UNL     1       8.540   7.513  18.904  0.00  0.00    +0.000 OA
ATOM     10  H   UNL     1       6.717   8.903  16.689  0.00  0.00    +0.000 HD
BRANCH   8  11
ATOM     11  C   UNL     1       8.595   9.750  18.256  0.00  0.00    +0.000 A 
ATOM     12  C   UNL     1       7.967  10.726  17.490  0.00  0.00    +0.000 A 
ATOM     13  C   UNL     1       8.445  12.027  17.521  0.00  0.00    +0.000 A 
ATOM     14  C   UNL     1       9.493  12.345  18.375  0.00  0.00    +0.000 A 
ATOM     15  C   UNL     1       9.908  13.683  18.493  0.00  0.00    +0.000 A 
ATOM     16  C   UNL     1      10.890  14.036  19.406  0.00  0.00    +0.000 A 
ATOM     17  C   UNL     1      11.495  13.043  20.167  0.00  0.00    +0.000 A 
ATOM     18  C   UNL     1      11.098  11.695  20.011  0.00  0.00    +0.000 A 
ATOM     19  C   UNL     1      10.079  11.306  19.143  0.00  0.00    +0.000 A 
ATOM     20  N   UNL     1       9.655  10.011  19.076  0.00  0.00    +0.000 NA
ENDBRANCH   8  11
ENDBRANCH   5   7
BRANCH   1  22
ATOM     21  C   UNL     1       2.618   3.589  17.294  0.00  0.00    +0.000 C 
ATOM     22  C   UNL     1       3.136   4.982  17.701  0.00  0.00    +0.000 C 
BRANCH  22  23
ATOM     23  S   UNL     1       2.968   5.173  19.528  0.00  0.00    +0.000 S 
BRANCH  23  24
ATOM     24  C   UNL     1       3.632   3.658  20.057  0.00  0.00    +0.000 A 
ATOM     25  N   UNL     1       4.839   3.210  19.785  0.00  0.00    +0.000 NA
ATOM     26  N   UNL     1       5.007   2.008  20.434  0.00  0.00    +0.000 NA
ATOM     27  C   UNL     1       3.891   1.750  21.074  0.00  0.00    +0.000 A 
ATOM     28  N   UNL     1       2.992   2.754  20.858  0.00  0.00    +0.000 N 
ATOM     29  C   UNL     1       1.664   2.796  21.405  0.00  0.00    +0.000 C 
ENDBRANCH  23  24
ENDBRANCH  22  23
ENDBRANCH   1  22
TORSDOF 5
ENDMDL
MODEL 4
REMARK VINA RESULT:      -8.3      3.312      9.706
REMARK  Name = 
REMARK  7 active torsions:
REMARK  status: ('A' for Active; 'I' for Inactive)
REMARK    1  A    between atoms: C_1  and  C_2
REMARK    2  A    between atoms: C_2  and  S_3
REMARK    3  A    between atoms: C_2  and  C_10
REMARK    4  A    between atoms: S_3  and  C_4
REMARK    5  A    between atoms: N_8  and  C_9
REMARK    6  A    between atoms: C_14  and  N_15
REMARK    7  A    between atoms: C_16  and  C_18
REMARK                            x       y       z     vdW  Elec       q    Type
REMARK                         _______ _______ _______ _____ _____    ______ ____
ROOT
ATOM      1  C   UNL     1       4.451   4.797  17.736  0.00  0.00    +0.000 A 
ATOM      2  C   UNL     1       4.228   3.463  18.114  0.00  0.00    +0.000 A 
ATOM      3  C   UNL     1       3.356   3.162  19.155  0.00  0.00    +0.000 A 
ATOM      4  C   UNL     1       2.677   4.181  19.825  0.00  0.00    +0.000 A 
ATOM      5  C   UNL     1       2.837   5.526  19.467  0.00  0.00    +0.000 A 
ATOM      6  C   UNL     1       3.717   5.816  18.404  0.00  0.00    +0.000 A 
ENDROOT
BRANCH   5   7
ATOM      7  N   UNL     1       2.182   6.598  20.149  0.00  0.00    +0.000 N 
ATOM      8  C   UNL     1       1.836   7.821  19.585  0.00  0.00    +0.000 C 
ATOM      9  O   UNL     1       2.092   8.170  18.433  0.00  0.00    +0.000 OA
ATOM     10  H   UNL     1       1.892   6.448  21.109  0.00  0.00    +0.000 HD
BRANCH   8  11
ATOM     11  C   UNL     1       1.047   8.796  20.419  0.00  0.00    +0.000 A 
ATOM     12  C   UNL     1       1.191   8.695  21.799  0.00  0.00    +0.000 A 
ATOM     13  C   UNL     1       0.481   9.556  22.622  0.00  0.00    +0.000 A 
ATOM     14  C   UNL     1      -0.301  10.550  22.050  0.00  0.00    +0.000 A 
ATOM     15  C   UNL     1      -0.934  11.494  22.877  0.00  0.00    +0.000 A 
ATOM     16  C   UNL     1      -1.644  12.549  22.324  0.00  0.00    +0.000 A 
ATOM     17  C   UNL     1      -1.765  12.633  20.942  0.00  0.00    +0.000 A 
ATOM     18  C   UNL     1      -1.158  11.656  20.121  0.00  0.00    +0.000 A 
ATOM     19  C   UNL     1      -0.392  10.610  20.635  0.00  0.00    +0.000 A 
ATOM     20  N   UNL     1       0.256   9.732  19.817  0.00  0.00    +0.000 NA
ENDBRANCH   8  11
ENDBRANCH   5   7
BRANCH   1  22
ATOM     21  C   UNL     1       6.757   5.835  17.322  0.00  0.00    +0.000 C 
ATOM     22  C   UNL     1       5.521   5.161  16.697  0.00  0.00    +0.000 C 
BRANCH  22  23
ATOM     23  S   UNL     1       6.069   3.707  15.703  0.00  0.00    +0.000 S 
BRANCH  23  24
ATOM     24  C   UNL     1       6.902   4.516  14.411  0.00  0.00    +0.000 A 
ATOM     25  N   UNL     1       7.814   5.455  14.550  0.00  0.00    +0.000 NA
ATOM     26  N   UNL     1       8.275   5.795  13.299  0.00  0.00    +0.000 NA
ATOM     27  C   UNL     1       7.620   5.063  12.429  0.00  0.00    +0.000 A 
ATOM     28  N   UNL     1       6.737   4.251  13.080  0.00  0.00    +0.000 N 
ATOM     29  C   UNL     1       5.853   3.318  12.435  0.00  0.00    +0.000 C 
ENDBRANCH  23  24
ENDBRANCH  22  23
ENDBRANCH   1  22
TORSDOF 5
ENDMDL
MODEL 5
REMARK VINA RESULT:      -8.3      6.251      9.688
REMARK  Name = 
REMARK  7 active torsions:
REMARK  status: ('A' for Active; 'I' for Inactive)
REMARK    1  A    between atoms: C_1  and  C_2
REMARK    2  A    between atoms: C_2  and  S_3
REMARK    3  A    between atoms: C_2  and  C_10
REMARK    4  A    between atoms: S_3  and  C_4
REMARK    5  A    between atoms: N_8  and  C_9
REMARK    6  A    between atoms: C_14  and  N_15
REMARK    7  A    between atoms: C_16  and  C_18
REMARK                            x       y       z     vdW  Elec       q    Type
REMARK                         _______ _______ _______ _____ _____    ______ ____
ROOT
ATOM      1  C   UNL     1       6.188   6.375  17.507  0.00  0.00    +0.000 A 
ATOM      2  C   UNL     1       6.826   5.508  18.407  0.00  0.00    +0.000 A 
ATOM      3  C   UNL     1       7.967   5.915  19.089  0.00  0.00    +0.000 A 
ATOM      4  C   UNL     1       8.482   7.199  18.901  0.00  0.00    +0.000 A 
ATOM      5  C   UNL     1       7.866   8.115  18.040  0.00  0.00    +0.000 A 
ATOM      6  C   UNL     1       6.705   7.692  17.362  0.00  0.00    +0.000 A 
ENDROOT
BRANCH   5   7
ATOM      7  N   UNL     1       8.381   9.426  17.799  0.00  0.00    +0.000 N 
ATOM      8  C   UNL     1       8.933  10.266  18.761  0.00  0.00    +0.000 C 
ATOM      9  O   UNL     1       9.006  10.016  19.963  0.00  0.00    +0.000 OA
ATOM     10  H   UNL     1       8.402   9.765  16.843  0.00  0.00    +0.000 HD
BRANCH   8  11
ATOM     11  C   UNL     1       9.533  11.573  18.312  0.00  0.00    +0.000 A 
ATOM     12  C   UNL     1      10.748  11.501  17.638  0.00  0.00    +0.000 A 
ATOM     13  C   UNL     1      11.358  12.671  17.210  0.00  0.00    +0.000 A 
ATOM     14  C   UNL     1      10.707  13.883  17.396  0.00  0.00    +0.000 A 
ATOM     15  C   UNL     1      11.268  15.057  16.865  0.00  0.00    +0.000 A 
ATOM     16  C   UNL     1      10.591  16.264  16.958  0.00  0.00    +0.000 A 
ATOM     17  C   UNL     1       9.374  16.307  17.628  0.00  0.00    +0.000 A 
ATOM     18  C   UNL     1       8.838  15.127  18.192  0.00  0.00    +0.000 A 
ATOM     19  C   UNL     1       9.461  13.886  18.075  0.00  0.00    +0.000 A 
ATOM     20  N   UNL     1       8.880  12.747  18.552  0.00  0.00    +0.000 NA
ENDBRANCH   8  11
ENDBRANCH   5   7
BRANCH   1  22
ATOM     21  C   UNL     1       5.437   5.639  15.170  0.00  0.00    +0.000 C 
ATOM     22  C   UNL     1       5.021   5.895  16.631  0.00  0.00    +0.000 C 
BRANCH  22  23
ATOM     23  S   UNL     1       4.208   4.380  17.298  0.00  0.00    +0.000 S 
BRANCH  23  24
ATOM     24  C   UNL     1       3.326   5.067  18.627  0.00  0.00    +0.000 A 
ATOM     25  N   UNL     1       2.942   6.321  18.731  0.00  0.00    +0.000 NA
ATOM     26  N   UNL     1       2.219   6.454  19.894  0.00  0.00    +0.000 NA
ATOM     27  C   UNL     1       2.193   5.278  20.475  0.00  0.00    +0.000 A 
ATOM     28  N   UNL     1       2.885   4.375  19.721  0.00  0.00    +0.000 N 
ATOM     29  C   UNL     1       3.063   2.989  20.060  0.00  0.00    +0.000 C 
ENDBRANCH  23  24
ENDBRANCH  22  23
ENDBRANCH   1  22
TORSDOF 5
ENDMDL
MODEL 6
REMARK VINA RESULT:      -8.3      3.745      9.498
REMARK  Name = 
REMARK  7 active torsions:
REMARK  status: ('A' for Active; 'I' for Inactive)
REMARK    1  A    between atoms: C_1  and  C_2
REMARK    2  A    between atoms: C_2  and  S_3
REMARK    3  A    between atoms: C_2  and  C_10
REMARK    4  A    between atoms: S_3  and  C_4
REMARK    5  A    between atoms: N_8  and  C_9
REMARK    6  A    between atoms: C_14  and  N_15
REMARK    7  A    between atoms: C_16  and  C_18
REMARK                            x       y       z     vdW  Elec       q    Type
REMARK                         _______ _______ _______ _____ _____    ______ ____
ROOT
ATOM      1  C   UNL     1       4.689   3.931  16.567  0.00  0.00    +0.000 A 
ATOM      2  C   UNL     1       4.198   2.665  16.923  0.00  0.00    +0.000 A 
ATOM      3  C   UNL     1       3.106   2.548  17.776  0.00  0.00    +0.000 A 
ATOM      4  C   UNL     1       2.472   3.688  18.274  0.00  0.00    +0.000 A 
ATOM      5  C   UNL     1       2.901   4.974  17.924  0.00  0.00    +0.000 A 
ATOM      6  C   UNL     1       4.004   5.078  17.051  0.00  0.00    +0.000 A 
ENDROOT
BRANCH   5   7
ATOM      7  N   UNL     1       2.297   6.164  18.437  0.00  0.00    +0.000 N 
ATOM      8  C   UNL     1       2.109   6.457  19.784  0.00  0.00    +0.000 C 
ATOM      9  O   UNL     1       2.390   5.709  20.719  0.00  0.00    +0.000 OA
ATOM     10  H   UNL     1       2.026   6.886  17.779  0.00  0.00    +0.000 HD
BRANCH   8  11
ATOM     11  C   UNL     1       1.558   7.810  20.152  0.00  0.00    +0.000 A 
ATOM     12  C   UNL     1       1.635   8.800  19.177  0.00  0.00    +0.000 A 
ATOM     13  C   UNL     1       1.157  10.070  19.459  0.00  0.00    +0.000 A 
ATOM     14  C   UNL     1       0.542  10.308  20.682  0.00  0.00    +0.000 A 
ATOM     15  C   UNL     1      -0.043  11.562  20.929  0.00  0.00    +0.000 A 
ATOM     16  C   UNL     1      -0.742  11.791  22.105  0.00  0.00    +0.000 A 
ATOM     17  C   UNL     1      -0.813  10.782  23.058  0.00  0.00    +0.000 A 
ATOM     18  C   UNL     1      -0.187   9.539  22.815  0.00  0.00    +0.000 A 
ATOM     19  C   UNL     1       0.480   9.250  21.625  0.00  0.00    +0.000 A 
ATOM     20  N   UNL     1       1.000   8.013  21.380  0.00  0.00    +0.000 NA
ENDBRANCH   8  11
ENDBRANCH   5   7
BRANCH   1  22
ATOM     21  C   UNL     1       5.805   3.700  14.272  0.00  0.00    +0.000 C 
ATOM     22  C   UNL     1       5.983   4.082  15.753  0.00  0.00    +0.000 C 
BRANCH  22  23
ATOM     23  S   UNL     1       6.692   5.781  15.855  0.00  0.00    +0.000 S 
BRANCH  23  24
ATOM     24  C   UNL     1       7.310   5.759  17.478  0.00  0.00    +0.000 A 
ATOM     25  N   UNL     1       7.448   4.691  18.235  0.00  0.00    +0.000 NA
ATOM     26  N   UNL     1       8.025   5.079  19.423  0.00  0.00    +0.000 NA
ATOM     27  C   UNL     1       8.210   6.376  19.363  0.00  0.00    +0.000 A 
ATOM     28  N   UNL     1       7.765   6.851  18.163  0.00  0.00    +0.000 N 
ATOM     29  C   UNL     1       7.811   8.230  17.760  0.00  0.00    +0.000 C 
ENDBRANCH  23  24
ENDBRANCH  22  23
ENDBRANCH   1  22
TORSDOF 5
ENDMDL
MODEL 7
REMARK VINA RESULT:      -8.2      3.538      9.669
REMARK  Name = 
REMARK  7 active torsions:
REMARK  status: ('A' for Active; 'I' for Inactive)
REMARK    1  A    between atoms: C_1  and  C_2
REMARK    2  A    between atoms: C_2  and  S_3
REMARK    3  A    between atoms: C_2  and  C_10
REMARK    4  A    between atoms: S_3  and  C_4
REMARK    5  A    between atoms: N_8  and  C_9
REMARK    6  A    between atoms: C_14  and  N_15
REMARK    7  A    between atoms: C_16  and  C_18
REMARK                            x       y       z     vdW  Elec       q    Type
REMARK                         _______ _______ _______ _____ _____    ______ ____
ROOT
ATOM      1  C   UNL     1       4.075   5.030  17.435  0.00  0.00    +0.000 A 
ATOM      2  C   UNL     1       4.292   3.922  18.270  0.00  0.00    +0.000 A 
ATOM      3  C   UNL     1       3.799   3.914  19.570  0.00  0.00    +0.000 A 
ATOM      4  C   UNL     1       3.065   4.998  20.055  0.00  0.00    +0.000 A 
ATOM      5  C   UNL     1       2.792   6.113  19.253  0.00  0.00    +0.000 A 
ATOM      6  C   UNL     1       3.290   6.105  17.934  0.00  0.00    +0.000 A 
ENDROOT
BRANCH   5   7
ATOM      7  N   UNL     1       2.071   7.254  19.724  0.00  0.00    +0.000 N 
ATOM      8  C   UNL     1       1.844   8.420  19.001  0.00  0.00    +0.000 C 
ATOM      9  O   UNL     1       2.277   8.651  17.873  0.00  0.00    +0.000 OA
ATOM     10  H   UNL     1       1.638   7.203  20.640  0.00  0.00    +0.000 HD
BRANCH   8  11
ATOM     11  C   UNL     1       0.965   9.481  19.611  0.00  0.00    +0.000 A 
ATOM     12  C   UNL     1       0.506  10.477  18.754  0.00  0.00    +0.000 A 
ATOM     13  C   UNL     1      -0.298  11.489  19.258  0.00  0.00    +0.000 A 
ATOM     14  C   UNL     1      -0.688  11.446  20.589  0.00  0.00    +0.000 A 
ATOM     15  C   UNL     1      -1.591  12.407  21.076  0.00  0.00    +0.000 A 
ATOM     16  C   UNL     1      -2.066  12.330  22.377  0.00  0.00    +0.000 A 
ATOM     17  C   UNL     1      -1.599  11.320  23.209  0.00  0.00    +0.000 A 
ATOM     18  C   UNL     1      -0.661  10.382  22.721  0.00  0.00    +0.000 A 
ATOM     19  C   UNL     1      -0.199  10.394  21.406  0.00  0.00    +0.000 A 
ATOM     20  N   UNL     1       0.639   9.426  20.935  0.00  0.00    +0.000 NA
ENDBRANCH   8  11
ENDBRANCH   5   7
BRANCH   1  22
ATOM     21  C   UNL     1       5.224   6.550  15.721  0.00  0.00    +0.000 C 
ATOM     22  C   UNL     1       4.739   5.126  16.053  0.00  0.00    +0.000 C 
BRANCH  22  23
ATOM     23  S   UNL     1       6.148   3.952  15.859  0.00  0.00    +0.000 S 
BRANCH  23  24
ATOM     24  C   UNL     1       6.925   4.634  14.463  0.00  0.00    +0.000 A 
ATOM     25  N   UNL     1       7.888   5.530  14.479  0.00  0.00    +0.000 NA
ATOM     26  N   UNL     1       8.276   5.767  13.180  0.00  0.00    +0.000 NA
ATOM     27  C   UNL     1       7.528   5.018  12.406  0.00  0.00    +0.000 A 
ATOM     28  N   UNL     1       6.655   4.295  13.167  0.00  0.00    +0.000 N 
ATOM     29  C   UNL     1       5.685   3.371  12.645  0.00  0.00    +0.000 C 
ENDBRANCH  23  24
ENDBRANCH  22  23
ENDBRANCH   1  22
TORSDOF 5
ENDMDL
MODEL 8
REMARK VINA RESULT:      -8.2      3.665     10.137
REMARK  Name = 
REMARK  7 active torsions:
REMARK  status: ('A' for Active; 'I' for Inactive)
REMARK    1  A    between atoms: C_1  and  C_2
REMARK    2  A    between atoms: C_2  and  S_3
REMARK    3  A    between atoms: C_2  and  C_10
REMARK    4  A    between atoms: S_3  and  C_4
REMARK    5  A    between atoms: N_8  and  C_9
REMARK    6  A    between atoms: C_14  and  N_15
REMARK    7  A    between atoms: C_16  and  C_18
REMARK                            x       y       z     vdW  Elec       q    Type
REMARK                         _______ _______ _______ _____ _____    ______ ____
ROOT
ATOM      1  C   UNL     1       2.395   7.160  19.398  0.00  0.00    +0.000 A 
ATOM      2  C   UNL     1       2.491   7.475  18.033  0.00  0.00    +0.000 A 
ATOM      3  C   UNL     1       1.936   8.652  17.541  0.00  0.00    +0.000 A 
ATOM      4  C   UNL     1       1.294   9.544  18.402  0.00  0.00    +0.000 A 
ATOM      5  C   UNL     1       1.200   9.295  19.777  0.00  0.00    +0.000 A 
ATOM      6  C   UNL     1       1.774   8.102  20.263  0.00  0.00    +0.000 A 
ENDROOT
BRANCH   5   7
ATOM      7  N   UNL     1       0.524  10.169  20.683  0.00  0.00    +0.000 N 
ATOM      8  C   UNL     1       0.729  11.541  20.786  0.00  0.00    +0.000 C 
ATOM      9  O   UNL     1       1.559  12.184  20.144  0.00  0.00    +0.000 OA
ATOM     10  H   UNL     1      -0.206   9.780  21.270  0.00  0.00    +0.000 HD
BRANCH   8  11
ATOM     11  C   UNL     1      -0.153  12.330  21.718  0.00  0.00    +0.000 A 
ATOM     12  C   UNL     1       0.186  13.665  21.916  0.00  0.00    +0.000 A 
ATOM     13  C   UNL     1      -0.579  14.440  22.772  0.00  0.00    +0.000 A 
ATOM     14  C   UNL     1      -1.712  13.890  23.357  0.00  0.00    +0.000 A 
ATOM     15  C   UNL     1      -2.552  14.703  24.137  0.00  0.00    +0.000 A 
ATOM     16  C   UNL     1      -3.736  14.198  24.654  0.00  0.00    +0.000 A 
ATOM     17  C   UNL     1      -4.056  12.864  24.434  0.00  0.00    +0.000 A 
ATOM     18  C   UNL     1      -3.185  12.045  23.681  0.00  0.00    +0.000 A 
ATOM     19  C   UNL     1      -2.012  12.527  23.101  0.00  0.00    +0.000 A 
ATOM     20  N   UNL     1      -1.233  11.738  22.306  0.00  0.00    +0.000 NA
ENDBRANCH   8  11
ENDBRANCH   5   7
BRANCH   1  22
ATOM     21  C   UNL     1       1.736   5.011  20.627  0.00  0.00    +0.000 C 
ATOM     22  C   UNL     1       2.863   5.800  19.934  0.00  0.00    +0.000 C 
BRANCH  22  23
ATOM     23  S   UNL     1       3.619   4.742  18.627  0.00  0.00    +0.000 S 
BRANCH  23  24
ATOM     24  C   UNL     1       5.285   5.209  18.780  0.00  0.00    +0.000 A 
ATOM     25  N   UNL     1       6.060   4.970  19.816  0.00  0.00    +0.000 NA
ATOM     26  N   UNL     1       7.320   5.442  19.528  0.00  0.00    +0.000 NA
ATOM     27  C   UNL     1       7.275   5.969  18.327  0.00  0.00    +0.000 A 
ATOM     28  N   UNL     1       6.013   5.857  17.821  0.00  0.00    +0.000 N 
ATOM     29  C   UNL     1       5.605   6.331  16.526  0.00  0.00    +0.000 C 
ENDBRANCH  23  24
ENDBRANCH  22  23
ENDBRANCH   1  22
TORSDOF 5
ENDMDL
MODEL 9
REMARK VINA RESULT:      -8.2      3.167      9.330
REMARK  Name = 
REMARK  7 active torsions:
REMARK  status: ('A' for Active; 'I' for Inactive)
REMARK    1  A    between atoms: C_1  and  C_2
REMARK    2  A    between atoms: C_2  and  S_3
REMARK    3  A    between atoms: C_2  and  C_10
REMARK    4  A    between atoms: S_3  and  C_4
REMARK    5  A    between atoms: N_8  and  C_9
REMARK    6  A    between atoms: C_14  and  N_15
REMARK    7  A    between atoms: C_16  and  C_18
REMARK                            x       y       z     vdW  Elec       q    Type
REMARK                         _______ _______ _______ _____ _____    ______ ____
ROOT
ATOM      1  C   UNL     1       3.408   3.905  19.085  0.00  0.00    +0.000 A 
ATOM      2  C   UNL     1       3.321   2.753  19.883  0.00  0.00    +0.000 A 
ATOM      3  C   UNL     1       2.638   2.784  21.093  0.00  0.00    +0.000 A 
ATOM      4  C   UNL     1       2.013   3.957  21.523  0.00  0.00    +0.000 A 
ATOM      5  C   UNL     1       2.040   5.125  20.750  0.00  0.00    +0.000 A 
ATOM      6  C   UNL     1       2.729   5.076  19.521  0.00  0.00    +0.000 A 
ENDROOT
BRANCH   5   7
ATOM      7  N   UNL     1       1.439   6.351  21.171  0.00  0.00    +0.000 N 
ATOM      8  C   UNL     1       1.549   7.571  20.512  0.00  0.00    +0.000 C 
ATOM      9  O   UNL     1       2.222   7.775  19.502  0.00  0.00    +0.000 OA
ATOM     10  H   UNL     1       0.836   6.335  21.986  0.00  0.00    +0.000 HD
BRANCH   8  11
ATOM     11  C   UNL     1       0.755   8.741  21.033  0.00  0.00    +0.000 A 
ATOM     12  C   UNL     1       0.644   8.852  22.415  0.00  0.00    +0.000 A 
ATOM     13  C   UNL     1      -0.085   9.900  22.957  0.00  0.00    +0.000 A 
ATOM     14  C   UNL     1      -0.626  10.859  22.111  0.00  0.00    +0.000 A 
ATOM     15  C   UNL     1      -1.270  11.981  22.660  0.00  0.00    +0.000 A 
ATOM     16  C   UNL     1      -1.736  12.996  21.837  0.00  0.00    +0.000 A 
ATOM     17  C   UNL     1      -1.605  12.865  20.460  0.00  0.00    +0.000 A 
ATOM     18  C   UNL     1      -0.991  11.713  19.917  0.00  0.00    +0.000 A 
ATOM     19  C   UNL     1      -0.463  10.696  20.711  0.00  0.00    +0.000 A 
ATOM     20  N   UNL     1       0.203   9.638  20.165  0.00  0.00    +0.000 NA
ENDBRANCH   8  11
ENDBRANCH   5   7
BRANCH   1  22
ATOM     21  C   UNL     1       3.574   3.350  16.589  0.00  0.00    +0.000 C 
ATOM     22  C   UNL     1       4.284   3.936  17.824  0.00  0.00    +0.000 C 
BRANCH  22  23
ATOM     23  S   UNL     1       4.890   5.630  17.421  0.00  0.00    +0.000 S 
BRANCH  23  24
ATOM     24  C   UNL     1       6.266   5.722  18.477  0.00  0.00    +0.000 A 
ATOM     25  N   UNL     1       6.463   4.988  19.551  0.00  0.00    +0.000 NA
ATOM     26  N   UNL     1       7.691   5.317  20.076  0.00  0.00    +0.000 NA
ATOM     27  C   UNL     1       8.204   6.254  19.314  0.00  0.00    +0.000 A 
ATOM     28  N   UNL     1       7.339   6.550  18.301  0.00  0.00    +0.000 N 
ATOM     29  C   UNL     1       7.579   7.534  17.281  0.00  0.00    +0.000 C 
ENDBRANCH  23  24
ENDBRANCH  22  23
ENDBRANCH   1  22
TORSDOF 5
ENDMDL
