MODEL 1
REMARK VINA RESULT:      -8.8      0.000      0.000
REMARK  Name = 
REMARK  8 active torsions:
REMARK  status: ('A' for Active; 'I' for Inactive)
REMARK    1  A    between atoms: C_1  and  C_2
REMARK    2  A    between atoms: C_4  and  C_5
REMARK    3  A    between atoms: N_7  and  C_8
REMARK    4  A    between atoms: C_12  and  C_13
REMARK    5  A    between atoms: C_13  and  C_14
REMARK    6  A    between atoms: C_14  and  C_15
REMARK    7  A    between atoms: N_19  and  C_20
REMARK    8  A    between atoms: C_27  and  C_28
REMARK                            x       y       z     vdW  Elec       q    Type
REMARK                         _______ _______ _______ _____ _____    ______ ____
ROOT
ATOM      1  C   UNL     1       2.571   7.968  18.237  0.00  0.00    +0.000 C 
ATOM      2  O   UNL     1       2.485   8.933  17.479  0.00  0.00    +0.000 OA
ATOM      3  N   UNL     1       2.042   7.900  19.508  0.00  0.00    +0.000 N 
ATOM      4  H   UNL     1       2.303   7.097  20.081  0.00  0.00    +0.000 HD
ENDROOT
BRANCH   1   8
ATOM      5  C   UNL     1       6.467   6.079  15.808  0.00  0.00    +0.000 C 
ATOM      6  C   UNL     1       5.221   5.819  16.616  0.00  0.00    +0.000 A 
ATOM      7  C   UNL     1       4.447   7.009  17.069  0.00  0.00    +0.000 A 
ATOM      8  C   UNL     1       3.329   6.766  17.779  0.00  0.00    +0.000 A 
ATOM      9  N   UNL     1       2.965   5.450  18.052  0.00  0.00    +0.000 N 
ATOM     10  N   UNL     1       1.878   5.000  18.745  0.00  0.00    +0.000 NA
ATOM     11  C   UNL     1       2.008   3.658  18.769  0.00  0.00    +0.000 A 
ATOM     12  C   UNL     1       3.166   3.241  18.074  0.00  0.00    +0.000 A 
ATOM     13  C   UNL     1       3.761   4.392  17.609  0.00  0.00    +0.000 A 
ATOM     14  N   UNL     1       4.895   4.585  16.876  0.00  0.00    +0.000 NA
BRANCH  11  15
ATOM     15  C   UNL     1       1.026   2.750  19.462  0.00  0.00    +0.000 C 
ATOM     16  F   UNL     1       0.265   3.398  20.385  0.00  0.00    +0.000 F 
ATOM     17  F   UNL     1       0.168   2.170  18.583  0.00  0.00    +0.000 F 
ATOM     18  F   UNL     1       1.657   1.739  20.117  0.00  0.00    +0.000 F 
ENDBRANCH  11  15
ENDBRANCH   1   8
BRANCH   3  19
ATOM     19  C   UNL     1       1.226   8.880  20.125  0.00  0.00    +0.000 A 
ATOM     20  C   UNL     1       1.160   9.052  21.506  0.00  0.00    +0.000 A 
ATOM     21  C   UNL     1       0.336  10.029  22.057  0.00  0.00    +0.000 A 
ATOM     22  C   UNL     1      -0.443  10.833  21.230  0.00  0.00    +0.000 A 
ATOM     23  C   UNL     1      -0.425  10.696  19.829  0.00  0.00    +0.000 A 
ATOM     24  C   UNL     1       0.453   9.715  19.302  0.00  0.00    +0.000 A 
BRANCH  23  25
ATOM     25  C   UNL     1      -1.399  11.571  18.899  0.00  0.00    +0.000 C 
ATOM     26  C   UNL     1      -2.443  10.847  18.006  0.00  0.00    +0.000 C 
ATOM     27  O   UNL     1      -3.491  11.753  18.446  0.00  0.00    +0.000 OA
ATOM     28  C   UNL     1      -2.672  12.150  19.571  0.00  0.00    +0.000 C 
BRANCH  25  29
ATOM     29  C   UNL     1      -0.613  12.677  18.164  0.00  0.00    +0.000 C 
BRANCH  29  30
ATOM     30  C   UNL     1       0.285  13.480  19.047  0.00  0.00    +0.000 A 
ATOM     31  N   UNL     1      -0.091  14.343  19.970  0.00  0.00    +0.000 NA
ATOM     32  N   UNL     1       1.039  14.844  20.576  0.00  0.00    +0.000 NA
ATOM     33  C   UNL     1       2.079  14.272  20.017  0.00  0.00    +0.000 A 
ATOM     34  N   UNL     1       1.656  13.414  19.050  0.00  0.00    +0.000 N 
ATOM     35  C   UNL     1       2.500  12.596  18.222  0.00  0.00    +0.000 C 
ENDBRANCH  29  30
ENDBRANCH  25  29
ENDBRANCH  23  25
ENDBRANCH   3  19
TORSDOF 6
ENDMDL
MODEL 2
REMARK VINA RESULT:      -8.8      2.563      3.571
REMARK  Name = 
REMARK  8 active torsions:
REMARK  status: ('A' for Active; 'I' for Inactive)
REMARK    1  A    between atoms: C_1  and  C_2
REMARK    2  A    between atoms: C_4  and  C_5
REMARK    3  A    between atoms: N_7  and  C_8
REMARK    4  A    between atoms: C_12  and  C_13
REMARK    5  A    between atoms: C_13  and  C_14
REMARK    6  A    between atoms: C_14  and  C_15
REMARK    7  A    between atoms: N_19  and  C_20
REMARK    8  A    between atoms: C_27  and  C_28
REMARK                            x       y       z     vdW  Elec       q    Type
REMARK                         _______ _______ _______ _____ _____    ______ ____
ROOT
ATOM      1  C   UNL     1       1.845   7.506  19.992  0.00  0.00    +0.000 C 
ATOM      2  O   UNL     1       2.190   8.358  19.174  0.00  0.00    +0.000 OA
ATOM      3  N   UNL     1       1.023   7.727  21.076  0.00  0.00    +0.000 N 
ATOM      4  H   UNL     1       0.927   6.968  21.753  0.00  0.00    +0.000 HD
ENDROOT
BRANCH   1   8
ATOM      5  C   UNL     1       1.960   2.814  21.609  0.00  0.00    +0.000 C 
ATOM      6  C   UNL     1       2.429   3.824  20.592  0.00  0.00    +0.000 A 
ATOM      7  C   UNL     1       1.929   5.219  20.743  0.00  0.00    +0.000 A 
ATOM      8  C   UNL     1       2.365   6.116  19.837  0.00  0.00    +0.000 A 
ATOM      9  N   UNL     1       3.233   5.703  18.830  0.00  0.00    +0.000 N 
ATOM     10  N   UNL     1       3.784   6.453  17.830  0.00  0.00    +0.000 NA
ATOM     11  C   UNL     1       4.506   5.582  17.096  0.00  0.00    +0.000 A 
ATOM     12  C   UNL     1       4.438   4.276  17.634  0.00  0.00    +0.000 A 
ATOM     13  C   UNL     1       3.635   4.369  18.747  0.00  0.00    +0.000 A 
ATOM     14  N   UNL     1       3.232   3.425  19.647  0.00  0.00    +0.000 NA
BRANCH  11  15
ATOM     15  C   UNL     1       5.273   5.984  15.863  0.00  0.00    +0.000 C 
ATOM     16  F   UNL     1       5.230   5.041  14.883  0.00  0.00    +0.000 F 
ATOM     17  F   UNL     1       4.792   7.134  15.323  0.00  0.00    +0.000 F 
ATOM     18  F   UNL     1       6.586   6.201  16.139  0.00  0.00    +0.000 F 
ENDBRANCH  11  15
ENDBRANCH   1   8
BRANCH   3  19
ATOM     19  C   UNL     1       0.354   8.936  21.384  0.00  0.00    +0.000 A 
ATOM     20  C   UNL     1       0.094   9.350  22.688  0.00  0.00    +0.000 A 
ATOM     21  C   UNL     1      -0.572  10.548  22.930  0.00  0.00    +0.000 A 
ATOM     22  C   UNL     1      -1.000  11.336  21.867  0.00  0.00    +0.000 A 
ATOM     23  C   UNL     1      -0.776  10.962  20.527  0.00  0.00    +0.000 A 
ATOM     24  C   UNL     1      -0.063   9.754  20.321  0.00  0.00    +0.000 A 
BRANCH  23  25
ATOM     25  C   UNL     1      -1.358  11.839  19.315  0.00  0.00    +0.000 C 
ATOM     26  C   UNL     1      -1.406  11.221  17.890  0.00  0.00    +0.000 C 
ATOM     27  O   UNL     1      -2.779  11.666  17.712  0.00  0.00    +0.000 OA
ATOM     28  C   UNL     1      -2.900  11.856  19.142  0.00  0.00    +0.000 C 
BRANCH  25  29
ATOM     29  C   UNL     1      -0.792  13.275  19.351  0.00  0.00    +0.000 C 
BRANCH  29  30
ATOM     30  C   UNL     1       0.699  13.345  19.316  0.00  0.00    +0.000 A 
ATOM     31  N   UNL     1       1.479  12.958  18.327  0.00  0.00    +0.000 NA
ATOM     32  N   UNL     1       2.784  13.218  18.681  0.00  0.00    +0.000 NA
ATOM     33  C   UNL     1       2.773  13.763  19.874  0.00  0.00    +0.000 A 
ATOM     34  N   UNL     1       1.490  13.857  20.315  0.00  0.00    +0.000 N 
ATOM     35  C   UNL     1       1.070  14.410  21.575  0.00  0.00    +0.000 C 
ENDBRANCH  29  30
ENDBRANCH  25  29
ENDBRANCH  23  25
ENDBRANCH   3  19
TORSDOF 6
ENDMDL
MODEL 3
REMARK VINA RESULT:      -8.8      2.174      3.085
REMARK  Name = 
REMARK  8 active torsions:
REMARK  status: ('A' for Active; 'I' for Inactive)
REMARK    1  A    between atoms: C_1  and  C_2
REMARK    2  A    between atoms: C_4  and  C_5
REMARK    3  A    between atoms: N_7  and  C_8
REMARK    4  A    between atoms: C_12  and  C_13
REMARK    5  A    between atoms: C_13  and  C_14
REMARK    6  A    between atoms: C_14  and  C_15
REMARK    7  A    between atoms: N_19  and  C_20
REMARK    8  A    between atoms: C_27  and  C_28
REMARK                            x       y       z     vdW  Elec       q    Type
REMARK                         _______ _______ _______ _____ _____    ______ ____
ROOT
ATOM      1  C   UNL     1       2.733   7.717  18.367  0.00  0.00    +0.000 C 
ATOM      2  O   UNL     1       2.767   8.786  17.760  0.00  0.00    +0.000 OA
ATOM      3  N   UNL     1       2.134   7.512  19.591  0.00  0.00    +0.000 N 
ATOM      4  H   UNL     1       2.297   6.613  20.047  0.00  0.00    +0.000 HD
ENDROOT
BRANCH   1   8
ATOM      5  C   UNL     1       6.381   5.901  15.531  0.00  0.00    +0.000 C 
ATOM      6  C   UNL     1       5.182   5.620  16.400  0.00  0.00    +0.000 A 
ATOM      7  C   UNL     1       4.487   6.794  16.999  0.00  0.00    +0.000 A 
ATOM      8  C   UNL     1       3.410   6.532  17.763  0.00  0.00    +0.000 A 
ATOM      9  N   UNL     1       3.013   5.211  17.954  0.00  0.00    +0.000 N 
ATOM     10  N   UNL     1       1.957   4.743  18.683  0.00  0.00    +0.000 NA
ATOM     11  C   UNL     1       2.034   3.400  18.591  0.00  0.00    +0.000 A 
ATOM     12  C   UNL     1       3.127   3.002  17.786  0.00  0.00    +0.000 A 
ATOM     13  C   UNL     1       3.735   4.166  17.375  0.00  0.00    +0.000 A 
ATOM     14  N   UNL     1       4.825   4.380  16.583  0.00  0.00    +0.000 NA
BRANCH  11  15
ATOM     15  C   UNL     1       1.065   2.472  19.275  0.00  0.00    +0.000 C 
ATOM     16  F   UNL     1       0.081   2.029  18.446  0.00  0.00    +0.000 F 
ATOM     17  F   UNL     1       1.686   1.370  19.770  0.00  0.00    +0.000 F 
ATOM     18  F   UNL     1       0.448   3.078  20.324  0.00  0.00    +0.000 F 
ENDBRANCH  11  15
ENDBRANCH   1   8
BRANCH   3  19
ATOM     19  C   UNL     1       1.373   8.461  20.317  0.00  0.00    +0.000 A 
ATOM     20  C   UNL     1       1.437   8.585  21.703  0.00  0.00    +0.000 A 
ATOM     21  C   UNL     1       0.661   9.533  22.363  0.00  0.00    +0.000 A 
ATOM     22  C   UNL     1      -0.200  10.355  21.643  0.00  0.00    +0.000 A 
ATOM     23  C   UNL     1      -0.315  10.266  20.241  0.00  0.00    +0.000 A 
ATOM     24  C   UNL     1       0.517   9.314  19.601  0.00  0.00    +0.000 A 
BRANCH  23  25
ATOM     25  C   UNL     1      -1.380  11.161  19.440  0.00  0.00    +0.000 C 
ATOM     26  C   UNL     1      -1.847  12.509  20.053  0.00  0.00    +0.000 C 
ATOM     27  O   UNL     1      -1.640  13.191  18.785  0.00  0.00    +0.000 OA
ATOM     28  C   UNL     1      -0.818  12.089  18.331  0.00  0.00    +0.000 C 
BRANCH  25  29
ATOM     29  C   UNL     1      -2.534  10.291  18.897  0.00  0.00    +0.000 C 
BRANCH  29  30
ATOM     30  C   UNL     1      -2.751  10.413  17.425  0.00  0.00    +0.000 A 
ATOM     31  N   UNL     1      -2.032   9.844  16.477  0.00  0.00    +0.000 NA
ATOM     32  N   UNL     1      -2.578  10.186  15.261  0.00  0.00    +0.000 NA
ATOM     33  C   UNL     1      -3.620  10.950  15.490  0.00  0.00    +0.000 A 
ATOM     34  N   UNL     1      -3.763  11.125  16.831  0.00  0.00    +0.000 N 
ATOM     35  C   UNL     1      -4.795  11.892  17.474  0.00  0.00    +0.000 C 
ENDBRANCH  29  30
ENDBRANCH  25  29
ENDBRANCH  23  25
ENDBRANCH   3  19
TORSDOF 6
ENDMDL
MODEL 4
REMARK VINA RESULT:      -8.8      2.965      4.403
REMARK  Name = 
REMARK  8 active torsions:
REMARK  status: ('A' for Active; 'I' for Inactive)
REMARK    1  A    between atoms: C_1  and  C_2
REMARK    2  A    between atoms: C_4  and  C_5
REMARK    3  A    between atoms: N_7  and  C_8
REMARK    4  A    between atoms: C_12  and  C_13
REMARK    5  A    between atoms: C_13  and  C_14
REMARK    6  A    between atoms: C_14  and  C_15
REMARK    7  A    between atoms: N_19  and  C_20
REMARK    8  A    between atoms: C_27  and  C_28
REMARK                            x       y       z     vdW  Elec       q    Type
REMARK                         _______ _______ _______ _____ _____    ______ ____
ROOT
ATOM      1  C   UNL     1       1.944   7.421  19.943  0.00  0.00    +0.000 C 
ATOM      2  O   UNL     1       2.102   8.205  19.009  0.00  0.00    +0.000 OA
ATOM      3  N   UNL     1       1.363   7.729  21.155  0.00  0.00    +0.000 N 
ATOM      4  H   UNL     1       1.417   7.025  21.892  0.00  0.00    +0.000 HD
ENDROOT
BRANCH   1   8
ATOM      5  C   UNL     1       1.964   2.730  21.570  0.00  0.00    +0.000 C 
ATOM      6  C   UNL     1       2.452   3.728  20.550  0.00  0.00    +0.000 A 
ATOM      7  C   UNL     1       1.982   5.134  20.698  0.00  0.00    +0.000 A 
ATOM      8  C   UNL     1       2.434   6.019  19.790  0.00  0.00    +0.000 A 
ATOM      9  N   UNL     1       3.291   5.587  18.782  0.00  0.00    +0.000 N 
ATOM     10  N   UNL     1       3.855   6.322  17.778  0.00  0.00    +0.000 NA
ATOM     11  C   UNL     1       4.557   5.435  17.045  0.00  0.00    +0.000 A 
ATOM     12  C   UNL     1       4.463   4.132  17.586  0.00  0.00    +0.000 A 
ATOM     13  C   UNL     1       3.664   4.244  18.701  0.00  0.00    +0.000 A 
ATOM     14  N   UNL     1       3.244   3.311  19.603  0.00  0.00    +0.000 NA
BRANCH  11  15
ATOM     15  C   UNL     1       5.329   5.818  15.809  0.00  0.00    +0.000 C 
ATOM     16  F   UNL     1       4.899   6.985  15.258  0.00  0.00    +0.000 F 
ATOM     17  F   UNL     1       6.654   5.972  16.069  0.00  0.00    +0.000 F 
ATOM     18  F   UNL     1       5.227   4.868  14.842  0.00  0.00    +0.000 F 
ENDBRANCH  11  15
ENDBRANCH   1   8
BRANCH   3  19
ATOM     19  C   UNL     1       0.760   8.962  21.501  0.00  0.00    +0.000 A 
ATOM     20  C   UNL     1      -0.086   9.113  22.598  0.00  0.00    +0.000 A 
ATOM     21  C   UNL     1      -0.654  10.349  22.887  0.00  0.00    +0.000 A 
ATOM     22  C   UNL     1      -0.394  11.446  22.071  0.00  0.00    +0.000 A 
ATOM     23  C   UNL     1       0.444  11.350  20.942  0.00  0.00    +0.000 A 
ATOM     24  C   UNL     1       1.032  10.083  20.700  0.00  0.00    +0.000 A 
BRANCH  23  25
ATOM     25  C   UNL     1       0.658  12.603  19.962  0.00  0.00    +0.000 C 
ATOM     26  C   UNL     1       1.550  13.785  20.432  0.00  0.00    +0.000 C 
ATOM     27  O   UNL     1       2.259  13.792  19.162  0.00  0.00    +0.000 OA
ATOM     28  C   UNL     1       1.761  12.463  18.880  0.00  0.00    +0.000 C 
BRANCH  25  29
ATOM     29  C   UNL     1      -0.679  13.046  19.332  0.00  0.00    +0.000 C 
BRANCH  29  30
ATOM     30  C   UNL     1      -1.446  11.940  18.685  0.00  0.00    +0.000 A 
ATOM     31  N   UNL     1      -0.962  11.021  17.874  0.00  0.00    +0.000 NA
ATOM     32  N   UNL     1      -1.988  10.174  17.522  0.00  0.00    +0.000 NA
ATOM     33  C   UNL     1      -3.074  10.588  18.131  0.00  0.00    +0.000 A 
ATOM     34  N   UNL     1      -2.785  11.695  18.866  0.00  0.00    +0.000 N 
ATOM     35  C   UNL     1      -3.713  12.432  19.680  0.00  0.00    +0.000 C 
ENDBRANCH  29  30
ENDBRANCH  25  29
ENDBRANCH  23  25
ENDBRANCH   3  19
TORSDOF 6
ENDMDL
MODEL 5
REMARK VINA RESULT:      -8.8      2.715      3.722
REMARK  Name = 
REMARK  8 active torsions:
REMARK  status: ('A' for Active; 'I' for Inactive)
REMARK    1  A    between atoms: C_1  and  C_2
REMARK    2  A    between atoms: C_4  and  C_5
REMARK    3  A    between atoms: N_7  and  C_8
REMARK    4  A    between atoms: C_12  and  C_13
REMARK    5  A    between atoms: C_13  and  C_14
REMARK    6  A    between atoms: C_14  and  C_15
REMARK    7  A    between atoms: N_19  and  C_20
REMARK    8  A    between atoms: C_27  and  C_28
REMARK                            x       y       z     vdW  Elec       q    Type
REMARK                         _______ _______ _______ _____ _____    ______ ____
ROOT
ATOM      1  C   UNL     1       2.066   7.327  19.875  0.00  0.00    +0.000 C 
ATOM      2  O   UNL     1       2.236   8.109  18.941  0.00  0.00    +0.000 OA
ATOM      3  N   UNL     1       1.462   7.636  21.075  0.00  0.00    +0.000 N 
ATOM      4  H   UNL     1       1.509   6.936  21.816  0.00  0.00    +0.000 HD
ENDROOT
BRANCH   1   8
ATOM      5  C   UNL     1       2.170   2.667  21.583  0.00  0.00    +0.000 C 
ATOM      6  C   UNL     1       2.626   3.651  20.535  0.00  0.00    +0.000 A 
ATOM      7  C   UNL     1       2.144   5.055  20.669  0.00  0.00    +0.000 A 
ATOM      8  C   UNL     1       2.568   5.928  19.736  0.00  0.00    +0.000 A 
ATOM      9  N   UNL     1       3.407   5.487  18.717  0.00  0.00    +0.000 N 
ATOM     10  N   UNL     1       3.942   6.210  17.689  0.00  0.00    +0.000 NA
ATOM     11  C   UNL     1       4.638   5.317  16.957  0.00  0.00    +0.000 A 
ATOM     12  C   UNL     1       4.569   4.023  17.522  0.00  0.00    +0.000 A 
ATOM     13  C   UNL     1       3.793   4.146  18.652  0.00  0.00    +0.000 A 
ATOM     14  N   UNL     1       3.402   3.225  19.579  0.00  0.00    +0.000 NA
BRANCH  11  15
ATOM     15  C   UNL     1       5.379   5.686  15.698  0.00  0.00    +0.000 C 
ATOM     16  F   UNL     1       6.722   5.791  15.887  0.00  0.00    +0.000 F 
ATOM     17  F   UNL     1       5.192   4.768  14.715  0.00  0.00    +0.000 F 
ATOM     18  F   UNL     1       4.960   6.881  15.203  0.00  0.00    +0.000 F 
ENDBRANCH  11  15
ENDBRANCH   1   8
BRANCH   3  19
ATOM     19  C   UNL     1       0.846   8.867  21.406  0.00  0.00    +0.000 A 
ATOM     20  C   UNL     1       0.131   9.066  22.586  0.00  0.00    +0.000 A 
ATOM     21  C   UNL     1      -0.458  10.297  22.856  0.00  0.00    +0.000 A 
ATOM     22  C   UNL     1      -0.351  11.339  21.939  0.00  0.00    +0.000 A 
ATOM     23  C   UNL     1       0.350  11.192  20.726  0.00  0.00    +0.000 A 
ATOM     24  C   UNL     1       0.966   9.935  20.502  0.00  0.00    +0.000 A 
BRANCH  23  25
ATOM     25  C   UNL     1       0.384  12.376  19.642  0.00  0.00    +0.000 C 
ATOM     26  C   UNL     1      -0.515  12.270  18.379  0.00  0.00    +0.000 C 
ATOM     27  O   UNL     1      -0.979  13.636  18.560  0.00  0.00    +0.000 OA
ATOM     28  C   UNL     1      -0.509  13.612  19.929  0.00  0.00    +0.000 C 
BRANCH  25  29
ATOM     29  C   UNL     1       1.835  12.804  19.338  0.00  0.00    +0.000 C 
BRANCH  29  30
ATOM     30  C   UNL     1       2.420  13.741  20.344  0.00  0.00    +0.000 A 
ATOM     31  N   UNL     1       2.853  13.426  21.548  0.00  0.00    +0.000 NA
ATOM     32  N   UNL     1       3.339  14.569  22.142  0.00  0.00    +0.000 NA
ATOM     33  C   UNL     1       3.199  15.554  21.287  0.00  0.00    +0.000 A 
ATOM     34  N   UNL     1       2.622  15.084  20.149  0.00  0.00    +0.000 N 
ATOM     35  C   UNL     1       2.315  15.861  18.978  0.00  0.00    +0.000 C 
ENDBRANCH  29  30
ENDBRANCH  25  29
ENDBRANCH  23  25
ENDBRANCH   3  19
TORSDOF 6
ENDMDL
MODEL 6
REMARK VINA RESULT:      -8.7      0.931      1.450
REMARK  Name = 
REMARK  8 active torsions:
REMARK  status: ('A' for Active; 'I' for Inactive)
REMARK    1  A    between atoms: C_1  and  C_2
REMARK    2  A    between atoms: C_4  and  C_5
REMARK    3  A    between atoms: N_7  and  C_8
REMARK    4  A    between atoms: C_12  and  C_13
REMARK    5  A    between atoms: C_13  and  C_14
REMARK    6  A    between atoms: C_14  and  C_15
REMARK    7  A    between atoms: N_19  and  C_20
REMARK    8  A    between atoms: C_27  and  C_28
REMARK                            x       y       z     vdW  Elec       q    Type
REMARK                         _______ _______ _______ _____ _____    ______ ____
ROOT
ATOM      1  C   UNL     1       2.714   7.664  18.356  0.00  0.00    +0.000 C 
ATOM      2  O   UNL     1       2.671   8.715  17.719  0.00  0.00    +0.000 OA
ATOM      3  N   UNL     1       2.203   7.475  19.622  0.00  0.00    +0.000 N 
ATOM      4  H   UNL     1       2.427   6.596  20.090  0.00  0.00    +0.000 HD
ENDROOT
BRANCH   1   8
ATOM      5  C   UNL     1       6.335   5.884  15.463  0.00  0.00    +0.000 C 
ATOM      6  C   UNL     1       5.153   5.590  16.351  0.00  0.00    +0.000 A 
ATOM      7  C   UNL     1       4.456   6.758  16.961  0.00  0.00    +0.000 A 
ATOM      8  C   UNL     1       3.393   6.485  17.741  0.00  0.00    +0.000 A 
ATOM      9  N   UNL     1       3.012   5.161  17.939  0.00  0.00    +0.000 N 
ATOM     10  N   UNL     1       1.972   4.682  18.684  0.00  0.00    +0.000 NA
ATOM     11  C   UNL     1       2.061   3.340  18.590  0.00  0.00    +0.000 A 
ATOM     12  C   UNL     1       3.145   2.953  17.769  0.00  0.00    +0.000 A 
ATOM     13  C   UNL     1       3.735   4.123  17.348  0.00  0.00    +0.000 A 
ATOM     14  N   UNL     1       4.811   4.347  16.539  0.00  0.00    +0.000 NA
BRANCH  11  15
ATOM     15  C   UNL     1       1.112   2.402  19.289  0.00  0.00    +0.000 C 
ATOM     16  F   UNL     1       1.694   1.223  19.637  0.00  0.00    +0.000 F 
ATOM     17  F   UNL     1       0.614   2.947  20.430  0.00  0.00    +0.000 F 
ATOM     18  F   UNL     1       0.045   2.094  18.504  0.00  0.00    +0.000 F 
ENDBRANCH  11  15
ENDBRANCH   1   8
BRANCH   3  19
ATOM     19  C   UNL     1       1.456   8.417  20.369  0.00  0.00    +0.000 A 
ATOM     20  C   UNL     1       1.252   8.307  21.743  0.00  0.00    +0.000 A 
ATOM     21  C   UNL     1       0.504   9.262  22.425  0.00  0.00    +0.000 A 
ATOM     22  C   UNL     1      -0.062  10.329  21.735  0.00  0.00    +0.000 A 
ATOM     23  C   UNL     1       0.101  10.485  20.344  0.00  0.00    +0.000 A 
ATOM     24  C   UNL     1       0.899   9.513  19.690  0.00  0.00    +0.000 A 
BRANCH  23  25
ATOM     25  C   UNL     1      -0.634  11.673  19.553  0.00  0.00    +0.000 C 
ATOM     26  C   UNL     1      -1.635  11.318  18.419  0.00  0.00    +0.000 C 
ATOM     27  O   UNL     1      -2.616  12.250  18.953  0.00  0.00    +0.000 OA
ATOM     28  C   UNL     1      -1.905  12.270  20.214  0.00  0.00    +0.000 C 
BRANCH  25  29
ATOM     29  C   UNL     1       0.365  12.787  19.175  0.00  0.00    +0.000 C 
BRANCH  29  30
ATOM     30  C   UNL     1       0.715  13.701  20.302  0.00  0.00    +0.000 A 
ATOM     31  N   UNL     1       1.528  13.432  21.305  0.00  0.00    +0.000 NA
ATOM     32  N   UNL     1       1.601  14.548  22.109  0.00  0.00    +0.000 NA
ATOM     33  C   UNL     1       0.839  15.475  21.578  0.00  0.00    +0.000 A 
ATOM     34  N   UNL     1       0.260  14.988  20.448  0.00  0.00    +0.000 N 
ATOM     35  C   UNL     1      -0.634  15.709  19.582  0.00  0.00    +0.000 C 
ENDBRANCH  29  30
ENDBRANCH  25  29
ENDBRANCH  23  25
ENDBRANCH   3  19
TORSDOF 6
ENDMDL
MODEL 7
REMARK VINA RESULT:      -8.7      3.005      4.288
REMARK  Name = 
REMARK  8 active torsions:
REMARK  status: ('A' for Active; 'I' for Inactive)
REMARK    1  A    between atoms: C_1  and  C_2
REMARK    2  A    between atoms: C_4  and  C_5
REMARK    3  A    between atoms: N_7  and  C_8
REMARK    4  A    between atoms: C_12  and  C_13
REMARK    5  A    between atoms: C_13  and  C_14
REMARK    6  A    between atoms: C_14  and  C_15
REMARK    7  A    between atoms: N_19  and  C_20
REMARK    8  A    between atoms: C_27  and  C_28
REMARK                            x       y       z     vdW  Elec       q    Type
REMARK                         _______ _______ _______ _____ _____    ______ ____
ROOT
ATOM      1  C   UNL     1       1.978   7.371  19.943  0.00  0.00    +0.000 C 
ATOM      2  O   UNL     1       2.104   8.154  19.003  0.00  0.00    +0.000 OA
ATOM      3  N   UNL     1       1.402   7.669  21.159  0.00  0.00    +0.000 N 
ATOM      4  H   UNL     1       1.484   6.971  21.899  0.00  0.00    +0.000 HD
ENDROOT
BRANCH   1   8
ATOM      5  C   UNL     1       2.166   2.696  21.605  0.00  0.00    +0.000 C 
ATOM      6  C   UNL     1       2.606   3.699  20.569  0.00  0.00    +0.000 A 
ATOM      7  C   UNL     1       2.097   5.092  20.715  0.00  0.00    +0.000 A 
ATOM      8  C   UNL     1       2.507   5.983  19.792  0.00  0.00    +0.000 A 
ATOM      9  N   UNL     1       3.358   5.567  18.771  0.00  0.00    +0.000 N 
ATOM     10  N   UNL     1       3.883   6.311  17.752  0.00  0.00    +0.000 NA
ATOM     11  C   UNL     1       4.598   5.439  17.014  0.00  0.00    +0.000 A 
ATOM     12  C   UNL     1       4.551   4.138  17.566  0.00  0.00    +0.000 A 
ATOM     13  C   UNL     1       3.770   4.235  18.694  0.00  0.00    +0.000 A 
ATOM     14  N   UNL     1       3.393   3.298  19.611  0.00  0.00    +0.000 NA
BRANCH  11  15
ATOM     15  C   UNL     1       5.336   5.834  15.761  0.00  0.00    +0.000 C 
ATOM     16  F   UNL     1       4.892   7.007  15.234  0.00  0.00    +0.000 F 
ATOM     17  F   UNL     1       6.667   5.983  15.986  0.00  0.00    +0.000 F 
ATOM     18  F   UNL     1       5.206   4.894  14.787  0.00  0.00    +0.000 F 
ENDBRANCH  11  15
ENDBRANCH   1   8
BRANCH   3  19
ATOM     19  C   UNL     1       0.768   8.886  21.505  0.00  0.00    +0.000 A 
ATOM     20  C   UNL     1       0.074   9.068  22.700  0.00  0.00    +0.000 A 
ATOM     21  C   UNL     1      -0.534  10.287  22.985  0.00  0.00    +0.000 A 
ATOM     22  C   UNL     1      -0.468  11.332  22.068  0.00  0.00    +0.000 A 
ATOM     23  C   UNL     1       0.209  11.201  20.840  0.00  0.00    +0.000 A 
ATOM     24  C   UNL     1       0.846   9.957  20.600  0.00  0.00    +0.000 A 
BRANCH  23  25
ATOM     25  C   UNL     1       0.197  12.387  19.758  0.00  0.00    +0.000 C 
ATOM     26  C   UNL     1      -0.189  13.822  20.214  0.00  0.00    +0.000 C 
ATOM     27  O   UNL     1       0.957  14.382  19.516  0.00  0.00    +0.000 OA
ATOM     28  C   UNL     1       1.557  13.067  19.450  0.00  0.00    +0.000 C 
BRANCH  25  29
ATOM     29  C   UNL     1      -0.502  11.940  18.456  0.00  0.00    +0.000 C 
BRANCH  29  30
ATOM     30  C   UNL     1      -1.989  11.853  18.560  0.00  0.00    +0.000 A 
ATOM     31  N   UNL     1      -2.742  12.391  19.499  0.00  0.00    +0.000 NA
ATOM     32  N   UNL     1      -4.057  12.100  19.214  0.00  0.00    +0.000 NA
ATOM     33  C   UNL     1      -4.081  11.398  18.106  0.00  0.00    +0.000 A 
ATOM     34  N   UNL     1      -2.808  11.213  17.663  0.00  0.00    +0.000 N 
ATOM     35  C   UNL     1      -2.426  10.501  16.474  0.00  0.00    +0.000 C 
ENDBRANCH  29  30
ENDBRANCH  25  29
ENDBRANCH  23  25
ENDBRANCH   3  19
TORSDOF 6
ENDMDL
MODEL 8
REMARK VINA RESULT:      -8.7      1.971      2.987
REMARK  Name = 
REMARK  8 active torsions:
REMARK  status: ('A' for Active; 'I' for Inactive)
REMARK    1  A    between atoms: C_1  and  C_2
REMARK    2  A    between atoms: C_4  and  C_5
REMARK    3  A    between atoms: N_7  and  C_8
REMARK    4  A    between atoms: C_12  and  C_13
REMARK    5  A    between atoms: C_13  and  C_14
REMARK    6  A    between atoms: C_14  and  C_15
REMARK    7  A    between atoms: N_19  and  C_20
REMARK    8  A    between atoms: C_27  and  C_28
REMARK                            x       y       z     vdW  Elec       q    Type
REMARK                         _______ _______ _______ _____ _____    ______ ____
ROOT
ATOM      1  C   UNL     1       2.188   8.091  18.589  0.00  0.00    +0.000 C 
ATOM      2  O   UNL     1       1.895   8.999  17.812  0.00  0.00    +0.000 OA
ATOM      3  N   UNL     1       1.849   8.040  19.924  0.00  0.00    +0.000 N 
ATOM      4  H   UNL     1       2.271   7.300  20.486  0.00  0.00    +0.000 HD
ENDROOT
BRANCH   1   8
ATOM      5  C   UNL     1       5.993   6.489  15.832  0.00  0.00    +0.000 C 
ATOM      6  C   UNL     1       4.853   6.142  16.755  0.00  0.00    +0.000 A 
ATOM      7  C   UNL     1       4.024   7.271  17.263  0.00  0.00    +0.000 A 
ATOM      8  C   UNL     1       3.000   6.948  18.076  0.00  0.00    +0.000 A 
ATOM      9  N   UNL     1       2.776   5.612  18.395  0.00  0.00    +0.000 N 
ATOM     10  N   UNL     1       1.798   5.085  19.191  0.00  0.00    +0.000 NA
ATOM     11  C   UNL     1       2.043   3.760  19.218  0.00  0.00    +0.000 A 
ATOM     12  C   UNL     1       3.166   3.429  18.424  0.00  0.00    +0.000 A 
ATOM     13  C   UNL     1       3.616   4.616  17.894  0.00  0.00    +0.000 A 
ATOM     14  N   UNL     1       4.658   4.889  17.057  0.00  0.00    +0.000 NA
BRANCH  11  15
ATOM     15  C   UNL     1       1.210   2.785  20.008  0.00  0.00    +0.000 C 
ATOM     16  F   UNL     1       0.862   3.260  21.235  0.00  0.00    +0.000 F 
ATOM     17  F   UNL     1       0.054   2.474  19.366  0.00  0.00    +0.000 F 
ATOM     18  F   UNL     1       1.870   1.615  20.215  0.00  0.00    +0.000 F 
ENDBRANCH  11  15
ENDBRANCH   1   8
BRANCH   3  19
ATOM     19  C   UNL     1       1.025   8.965  20.611  0.00  0.00    +0.000 A 
ATOM     20  C   UNL     1       0.729   8.856  21.968  0.00  0.00    +0.000 A 
ATOM     21  C   UNL     1      -0.091   9.792  22.589  0.00  0.00    +0.000 A 
ATOM     22  C   UNL     1      -0.637  10.840  21.854  0.00  0.00    +0.000 A 
ATOM     23  C   UNL     1      -0.381  10.994  20.477  0.00  0.00    +0.000 A 
ATOM     24  C   UNL     1       0.487  10.041  19.887  0.00  0.00    +0.000 A 
BRANCH  23  25
ATOM     25  C   UNL     1      -1.093  12.156  19.628  0.00  0.00    +0.000 C 
ATOM     26  C   UNL     1      -0.944  13.631  20.095  0.00  0.00    +0.000 C 
ATOM     27  O   UNL     1      -0.615  14.055  18.744  0.00  0.00    +0.000 OA
ATOM     28  C   UNL     1      -0.328  12.683  18.385  0.00  0.00    +0.000 C 
BRANCH  25  29
ATOM     29  C   UNL     1      -2.539  11.764  19.259  0.00  0.00    +0.000 C 
BRANCH  29  30
ATOM     30  C   UNL     1      -2.672  11.107  17.924  0.00  0.00    +0.000 A 
ATOM     31  N   UNL     1      -1.801  10.291  17.363  0.00  0.00    +0.000 NA
ATOM     32  N   UNL     1      -2.313   9.886  16.151  0.00  0.00    +0.000 NA
ATOM     33  C   UNL     1      -3.486  10.455  16.001  0.00  0.00    +0.000 A 
ATOM     34  N   UNL     1      -3.750  11.234  17.084  0.00  0.00    +0.000 N 
ATOM     35  C   UNL     1      -4.942  12.010  17.293  0.00  0.00    +0.000 C 
ENDBRANCH  29  30
ENDBRANCH  25  29
ENDBRANCH  23  25
ENDBRANCH   3  19
TORSDOF 6
ENDMDL
MODEL 9
REMARK VINA RESULT:      -8.6      3.096      4.442
REMARK  Name = 
REMARK  8 active torsions:
REMARK  status: ('A' for Active; 'I' for Inactive)
REMARK    1  A    between atoms: C_1  and  C_2
REMARK    2  A    between atoms: C_4  and  C_5
REMARK    3  A    between atoms: N_7  and  C_8
REMARK    4  A    between atoms: C_12  and  C_13
REMARK    5  A    between atoms: C_13  and  C_14
REMARK    6  A    between atoms: C_14  and  C_15
REMARK    7  A    between atoms: N_19  and  C_20
REMARK    8  A    between atoms: C_27  and  C_28
REMARK                            x       y       z     vdW  Elec       q    Type
REMARK                         _______ _______ _______ _____ _____    ______ ____
ROOT
ATOM      1  C   UNL     1       1.835   7.498  20.009  0.00  0.00    +0.000 C 
ATOM      2  O   UNL     1       2.151   8.341  19.170  0.00  0.00    +0.000 OA
ATOM      3  N   UNL     1       1.049   7.729  21.117  0.00  0.00    +0.000 N 
ATOM      4  H   UNL     1       0.977   6.977  21.804  0.00  0.00    +0.000 HD
ENDROOT
BRANCH   1   8
ATOM      5  C   UNL     1       1.946   2.803  21.620  0.00  0.00    +0.000 C 
ATOM      6  C   UNL     1       2.416   3.814  20.605  0.00  0.00    +0.000 A 
ATOM      7  C   UNL     1       1.917   5.210  20.756  0.00  0.00    +0.000 A 
ATOM      8  C   UNL     1       2.354   6.107  19.852  0.00  0.00    +0.000 A 
ATOM      9  N   UNL     1       3.221   5.695  18.844  0.00  0.00    +0.000 N 
ATOM     10  N   UNL     1       3.774   6.445  17.845  0.00  0.00    +0.000 NA
ATOM     11  C   UNL     1       4.495   5.575  17.111  0.00  0.00    +0.000 A 
ATOM     12  C   UNL     1       4.425   4.268  17.647  0.00  0.00    +0.000 A 
ATOM     13  C   UNL     1       3.622   4.360  18.760  0.00  0.00    +0.000 A 
ATOM     14  N   UNL     1       3.218   3.416  19.659  0.00  0.00    +0.000 NA
BRANCH  11  15
ATOM     15  C   UNL     1       5.262   5.977  15.878  0.00  0.00    +0.000 C 
ATOM     16  F   UNL     1       5.259   5.015  14.916  0.00  0.00    +0.000 F 
ATOM     17  F   UNL     1       4.752   7.101  15.311  0.00  0.00    +0.000 F 
ATOM     18  F   UNL     1       6.565   6.239  16.163  0.00  0.00    +0.000 F 
ENDBRANCH  11  15
ENDBRANCH   1   8
BRANCH   3  19
ATOM     19  C   UNL     1       0.387   8.940  21.432  0.00  0.00    +0.000 A 
ATOM     20  C   UNL     1      -0.028   9.265  22.722  0.00  0.00    +0.000 A 
ATOM     21  C   UNL     1      -0.679  10.469  22.973  0.00  0.00    +0.000 A 
ATOM     22  C   UNL     1      -0.937  11.353  21.930  0.00  0.00    +0.000 A 
ATOM     23  C   UNL     1      -0.551  11.072  20.604  0.00  0.00    +0.000 A 
ATOM     24  C   UNL     1       0.141   9.853  20.394  0.00  0.00    +0.000 A 
BRANCH  23  25
ATOM     25  C   UNL     1      -0.938  12.064  19.402  0.00  0.00    +0.000 C 
ATOM     26  C   UNL     1      -1.240  13.554  19.720  0.00  0.00    +0.000 C 
ATOM     27  O   UNL     1      -0.378  13.991  18.633  0.00  0.00    +0.000 OA
ATOM     28  C   UNL     1       0.237  12.681  18.599  0.00  0.00    +0.000 C 
BRANCH  25  29
ATOM     29  C   UNL     1      -1.967  11.409  18.456  0.00  0.00    +0.000 C 
BRANCH  29  30
ATOM     30  C   UNL     1      -3.383  11.798  18.729  0.00  0.00    +0.000 A 
ATOM     31  N   UNL     1      -3.864  12.255  19.869  0.00  0.00    +0.000 NA
ATOM     32  N   UNL     1      -5.203  12.519  19.694  0.00  0.00    +0.000 NA
ATOM     33  C   UNL     1      -5.511  12.226  18.453  0.00  0.00    +0.000 A 
ATOM     34  N   UNL     1      -4.403  11.766  17.812  0.00  0.00    +0.000 N 
ATOM     35  C   UNL     1      -4.337  11.352  16.436  0.00  0.00    +0.000 C 
ENDBRANCH  29  30
ENDBRANCH  25  29
ENDBRANCH  23  25
ENDBRANCH   3  19
TORSDOF 6
ENDMDL
