MODEL 1
REMARK VINA RESULT:      -9.6      0.000      0.000
REMARK  Name = 
REMARK  6 active torsions:
REMARK  status: ('A' for Active; 'I' for Inactive)
REMARK    1  A    between atoms: C_1  and  N_2
REMARK    2  A    between atoms: C_6  and  C_7
REMARK    3  A    between atoms: C_7  and  C_10
REMARK    4  A    between atoms: C_10  and  C_11
REMARK    5  A    between atoms: C_10  and  C_13
REMARK    6  A    between atoms: C_17  and  N_18
REMARK                            x       y       z     vdW  Elec       q    Type
REMARK                         _______ _______ _______ _____ _____    ______ ____
ROOT
ATOM      1  C   UNL     1       4.543   5.377  17.848  0.00  0.00    +0.000 A 
ATOM      2  C   UNL     1       4.443   4.241  18.667  0.00  0.00    +0.000 A 
ATOM      3  C   UNL     1       3.579   4.230  19.766  0.00  0.00    +0.000 A 
ATOM      4  C   UNL     1       2.796   5.346  20.069  0.00  0.00    +0.000 A 
ATOM      5  C   UNL     1       2.889   6.504  19.300  0.00  0.00    +0.000 A 
ATOM      6  C   UNL     1       3.774   6.514  18.202  0.00  0.00    +0.000 A 
ENDROOT
BRANCH   5   7
ATOM      7  N   UNL     1       2.091   7.652  19.521  0.00  0.00    +0.000 N 
ATOM      8  C   UNL     1       1.756   8.663  18.644  0.00  0.00    +0.000 C 
ATOM      9  O   UNL     1       2.041   8.654  17.445  0.00  0.00    +0.000 OA
ATOM     10  N   UNL     1       1.089   9.764  19.207  0.00  0.00    +0.000 N 
ATOM     11  C   UNL     1       0.693  10.869  18.316  0.00  0.00    +0.000 C 
ATOM     12  C   UNL     1       0.882  12.193  19.053  0.00  0.00    +0.000 C 
ATOM     13  C   UNL     1       0.680  13.470  18.173  0.00  0.00    +0.000 C 
ATOM     14  N   UNL     1       2.120  13.427  17.847  0.00  0.00    +0.000 NA
ATOM     15  C   UNL     1       2.354  12.703  19.120  0.00  0.00    +0.000 C 
ATOM     16  O   UNL     1       0.115  12.228  20.286  0.00  0.00    +0.000 OA
ATOM     17  C   UNL     1       0.098  11.064  21.011  0.00  0.00    +0.000 A 
ATOM     18  C   UNL     1      -0.465  11.131  22.281  0.00  0.00    +0.000 A 
ATOM     19  C   UNL     1      -0.494   9.988  23.069  0.00  0.00    +0.000 A 
ATOM     20  C   UNL     1       0.061   8.830  22.557  0.00  0.00    +0.000 A 
ATOM     21  N   UNL     1       0.616   8.738  21.326  0.00  0.00    +0.000 NA
ATOM     22  C   UNL     1       0.605   9.848  20.542  0.00  0.00    +0.000 A 
ATOM     23  H   UNL     1       1.661   7.739  20.437  0.00  0.00    +0.000 HD
ATOM     24  H   UNL     1       2.582  14.332  17.765  0.00  0.00    +0.000 HD
ENDBRANCH   5   7
BRANCH   1  25
ATOM     25  C   UNL     1       5.271   5.328  16.483  0.00  0.00    +0.000 C 
ATOM     26  C   UNL     1       4.717   4.080  15.773  0.00  0.00    +0.000 C 
ATOM     27  F   UNL     1       4.893   6.406  15.704  0.00  0.00    +0.000 F 
BRANCH  25  28
ATOM     28  C   UNL     1       6.844   5.339  16.537  0.00  0.00    +0.000 C 
ATOM     29  F   UNL     1       7.363   5.333  15.274  0.00  0.00    +0.000 F 
ATOM     30  F   UNL     1       7.271   4.167  17.100  0.00  0.00    +0.000 F 
BRANCH  28  36
ATOM     31  C   UNL     1       8.042   5.462  19.505  0.00  0.00    +0.000 C 
ATOM     32  N   UNL     1       7.879   6.544  18.572  0.00  0.00    +0.000 N 
ATOM     33  C   UNL     1       8.230   7.836  18.834  0.00  0.00    +0.000 A 
ATOM     34  N   UNL     1       8.066   8.565  17.758  0.00  0.00    +0.000 NA
ATOM     35  N   UNL     1       7.588   7.734  16.775  0.00  0.00    +0.000 NA
ATOM     36  C   UNL     1       7.410   6.523  17.282  0.00  0.00    +0.000 A 
ENDBRANCH  28  36
ENDBRANCH  25  28
ENDBRANCH   1  25
TORSDOF 4
ENDMDL
MODEL 2
REMARK VINA RESULT:      -9.4      0.664      1.154
REMARK  Name = 
REMARK  6 active torsions:
REMARK  status: ('A' for Active; 'I' for Inactive)
REMARK    1  A    between atoms: C_1  and  N_2
REMARK    2  A    between atoms: C_6  and  C_7
REMARK    3  A    between atoms: C_7  and  C_10
REMARK    4  A    between atoms: C_10  and  C_11
REMARK    5  A    between atoms: C_10  and  C_13
REMARK    6  A    between atoms: C_17  and  N_18
REMARK                            x       y       z     vdW  Elec       q    Type
REMARK                         _______ _______ _______ _____ _____    ______ ____
ROOT
ATOM      1  C   UNL     1       4.417   5.419  17.631  0.00  0.00    +0.000 A 
ATOM      2  C   UNL     1       4.261   4.244  18.383  0.00  0.00    +0.000 A 
ATOM      3  C   UNL     1       3.379   4.205  19.468  0.00  0.00    +0.000 A 
ATOM      4  C   UNL     1       2.634   5.332  19.822  0.00  0.00    +0.000 A 
ATOM      5  C   UNL     1       2.783   6.527  19.121  0.00  0.00    +0.000 A 
ATOM      6  C   UNL     1       3.686   6.563  18.038  0.00  0.00    +0.000 A 
ENDROOT
BRANCH   5   7
ATOM      7  N   UNL     1       2.026   7.690  19.394  0.00  0.00    +0.000 N 
ATOM      8  C   UNL     1       1.751   8.765  18.574  0.00  0.00    +0.000 C 
ATOM      9  O   UNL     1       2.063   8.816  17.382  0.00  0.00    +0.000 OA
ATOM     10  N   UNL     1       1.115   9.857  19.188  0.00  0.00    +0.000 N 
ATOM     11  C   UNL     1       0.783  11.028  18.358  0.00  0.00    +0.000 C 
ATOM     12  C   UNL     1       1.006  12.297  19.177  0.00  0.00    +0.000 C 
ATOM     13  C   UNL     1       0.875  13.630  18.373  0.00  0.00    +0.000 C 
ATOM     14  N   UNL     1       2.319  13.549  18.075  0.00  0.00    +0.000 NA
ATOM     15  C   UNL     1       2.495  12.742  19.306  0.00  0.00    +0.000 C 
ATOM     16  O   UNL     1       0.213  12.289  20.394  0.00  0.00    +0.000 OA
ATOM     17  C   UNL     1       0.133  11.084  21.047  0.00  0.00    +0.000 A 
ATOM     18  C   UNL     1      -0.455  11.098  22.307  0.00  0.00    +0.000 A 
ATOM     19  C   UNL     1      -0.548   9.912  23.023  0.00  0.00    +0.000 A 
ATOM     20  C   UNL     1      -0.027   8.766  22.453  0.00  0.00    +0.000 A 
ATOM     21  N   UNL     1       0.553   8.725  21.231  0.00  0.00    +0.000 NA
ATOM     22  C   UNL     1       0.604   9.879  20.516  0.00  0.00    +0.000 A 
ATOM     23  H   UNL     1       1.579   7.740  20.305  0.00  0.00    +0.000 HD
ATOM     24  H   UNL     1       2.817  14.438  18.057  0.00  0.00    +0.000 HD
ENDBRANCH   5   7
BRANCH   1  25
ATOM     25  C   UNL     1       5.167   5.419  16.277  0.00  0.00    +0.000 C 
ATOM     26  C   UNL     1       4.402   4.417  15.393  0.00  0.00    +0.000 C 
ATOM     27  F   UNL     1       5.032   6.648  15.659  0.00  0.00    +0.000 F 
BRANCH  25  28
ATOM     28  C   UNL     1       6.709   5.109  16.339  0.00  0.00    +0.000 C 
ATOM     29  F   UNL     1       7.369   5.786  15.354  0.00  0.00    +0.000 F 
ATOM     30  F   UNL     1       6.902   3.786  16.049  0.00  0.00    +0.000 F 
BRANCH  28  36
ATOM     31  C   UNL     1       7.481   7.994  17.496  0.00  0.00    +0.000 C 
ATOM     32  N   UNL     1       7.691   6.711  18.110  0.00  0.00    +0.000 N 
ATOM     33  C   UNL     1       8.274   6.535  19.330  0.00  0.00    +0.000 A 
ATOM     34  N   UNL     1       8.223   5.270  19.666  0.00  0.00    +0.000 NA
ATOM     35  N   UNL     1       7.602   4.603  18.639  0.00  0.00    +0.000 NA
ATOM     36  C   UNL     1       7.337   5.461  17.665  0.00  0.00    +0.000 A 
ENDBRANCH  28  36
ENDBRANCH  25  28
ENDBRANCH   1  25
TORSDOF 4
ENDMDL
MODEL 3
REMARK VINA RESULT:      -9.3      1.684      2.454
REMARK  Name = 
REMARK  6 active torsions:
REMARK  status: ('A' for Active; 'I' for Inactive)
REMARK    1  A    between atoms: C_1  and  N_2
REMARK    2  A    between atoms: C_6  and  C_7
REMARK    3  A    between atoms: C_7  and  C_10
REMARK    4  A    between atoms: C_10  and  C_11
REMARK    5  A    between atoms: C_10  and  C_13
REMARK    6  A    between atoms: C_17  and  N_18
REMARK                            x       y       z     vdW  Elec       q    Type
REMARK                         _______ _______ _______ _____ _____    ______ ____
ROOT
ATOM      1  C   UNL     1       4.511   5.798  17.861  0.00  0.00    +0.000 A 
ATOM      2  C   UNL     1       4.131   4.526  18.316  0.00  0.00    +0.000 A 
ATOM      3  C   UNL     1       3.014   4.370  19.143  0.00  0.00    +0.000 A 
ATOM      4  C   UNL     1       2.253   5.475  19.529  0.00  0.00    +0.000 A 
ATOM      5  C   UNL     1       2.614   6.759  19.125  0.00  0.00    +0.000 A 
ATOM      6  C   UNL     1       3.751   6.910  18.303  0.00  0.00    +0.000 A 
ENDROOT
BRANCH   5   7
ATOM      7  N   UNL     1       1.862   7.915  19.438  0.00  0.00    +0.000 N 
ATOM      8  C   UNL     1       1.588   9.017  18.654  0.00  0.00    +0.000 C 
ATOM      9  O   UNL     1       1.896   9.105  17.464  0.00  0.00    +0.000 OA
ATOM     10  N   UNL     1       0.957  10.090  19.305  0.00  0.00    +0.000 N 
ATOM     11  C   UNL     1       0.627  11.288  18.515  0.00  0.00    +0.000 C 
ATOM     12  C   UNL     1       0.857  12.529  19.374  0.00  0.00    +0.000 C 
ATOM     13  C   UNL     1       0.728  13.889  18.613  0.00  0.00    +0.000 C 
ATOM     14  N   UNL     1       2.171  13.813  18.308  0.00  0.00    +0.000 NA
ATOM     15  C   UNL     1       2.348  12.965  19.512  0.00  0.00    +0.000 C 
ATOM     16  O   UNL     1       0.068  12.485  20.592  0.00  0.00    +0.000 OA
ATOM     17  C   UNL     1      -0.014  11.260  21.206  0.00  0.00    +0.000 A 
ATOM     18  C   UNL     1      -0.598  11.235  22.468  0.00  0.00    +0.000 A 
ATOM     19  C   UNL     1      -0.692  10.027  23.146  0.00  0.00    +0.000 A 
ATOM     20  C   UNL     1      -0.177   8.898  22.537  0.00  0.00    +0.000 A 
ATOM     21  N   UNL     1       0.398   8.895  21.312  0.00  0.00    +0.000 NA
ATOM     22  C   UNL     1       0.451  10.071  20.635  0.00  0.00    +0.000 A 
ATOM     23  H   UNL     1       1.418   7.937  20.351  0.00  0.00    +0.000 HD
ATOM     24  H   UNL     1       2.672  14.700  18.317  0.00  0.00    +0.000 HD
ENDBRANCH   5   7
BRANCH   1  25
ATOM     25  C   UNL     1       5.562   5.975  16.739  0.00  0.00    +0.000 C 
ATOM     26  C   UNL     1       4.880   6.864  15.683  0.00  0.00    +0.000 C 
ATOM     27  F   UNL     1       6.640   6.704  17.207  0.00  0.00    +0.000 F 
BRANCH  25  28
ATOM     28  C   UNL     1       6.146   4.650  16.121  0.00  0.00    +0.000 C 
ATOM     29  F   UNL     1       5.151   3.735  15.934  0.00  0.00    +0.000 F 
ATOM     30  F   UNL     1       6.988   4.076  17.034  0.00  0.00    +0.000 F 
BRANCH  28  36
ATOM     31  C   UNL     1       5.325   3.613  13.204  0.00  0.00    +0.000 C 
ATOM     32  N   UNL     1       6.490   4.368  13.578  0.00  0.00    +0.000 N 
ATOM     33  C   UNL     1       7.454   4.769  12.700  0.00  0.00    +0.000 A 
ATOM     34  N   UNL     1       8.324   5.529  13.316  0.00  0.00    +0.000 NA
ATOM     35  N   UNL     1       7.928   5.620  14.627  0.00  0.00    +0.000 NA
ATOM     36  C   UNL     1       6.854   4.864  14.806  0.00  0.00    +0.000 A 
ENDBRANCH  28  36
ENDBRANCH  25  28
ENDBRANCH   1  25
TORSDOF 4
ENDMDL
MODEL 4
REMARK VINA RESULT:      -9.2      1.430      2.443
REMARK  Name = 
REMARK  6 active torsions:
REMARK  status: ('A' for Active; 'I' for Inactive)
REMARK    1  A    between atoms: C_1  and  N_2
REMARK    2  A    between atoms: C_6  and  C_7
REMARK    3  A    between atoms: C_7  and  C_10
REMARK    4  A    between atoms: C_10  and  C_11
REMARK    5  A    between atoms: C_10  and  C_13
REMARK    6  A    between atoms: C_17  and  N_18
REMARK                            x       y       z     vdW  Elec       q    Type
REMARK                         _______ _______ _______ _____ _____    ______ ____
ROOT
ATOM      1  C   UNL     1       5.141   5.166  19.094  0.00  0.00    +0.000 A 
ATOM      2  C   UNL     1       4.613   3.888  19.339  0.00  0.00    +0.000 A 
ATOM      3  C   UNL     1       3.285   3.733  19.749  0.00  0.00    +0.000 A 
ATOM      4  C   UNL     1       2.456   4.845  19.918  0.00  0.00    +0.000 A 
ATOM      5  C   UNL     1       2.950   6.132  19.716  0.00  0.00    +0.000 A 
ATOM      6  C   UNL     1       4.296   6.281  19.318  0.00  0.00    +0.000 A 
ENDROOT
BRANCH   5   7
ATOM      7  N   UNL     1       2.156   7.297  19.822  0.00  0.00    +0.000 N 
ATOM      8  C   UNL     1       1.848   8.234  18.857  0.00  0.00    +0.000 C 
ATOM      9  O   UNL     1       2.160   8.125  17.670  0.00  0.00    +0.000 OA
ATOM     10  N   UNL     1       1.175   9.381  19.311  0.00  0.00    +0.000 N 
ATOM     11  C   UNL     1       0.807  10.411  18.323  0.00  0.00    +0.000 C 
ATOM     12  C   UNL     1       0.987  11.790  18.952  0.00  0.00    +0.000 C 
ATOM     13  C   UNL     1       0.814  12.990  17.966  0.00  0.00    +0.000 C 
ATOM     14  N   UNL     1       2.261  12.914  17.679  0.00  0.00    +0.000 NA
ATOM     15  C   UNL     1       2.460  12.297  19.012  0.00  0.00    +0.000 C 
ATOM     16  O   UNL     1       0.192  11.930  20.160  0.00  0.00    +0.000 OA
ATOM     17  C   UNL     1       0.150  10.830  20.978  0.00  0.00    +0.000 A 
ATOM     18  C   UNL     1      -0.441  11.004  22.224  0.00  0.00    +0.000 A 
ATOM     19  C   UNL     1      -0.497   9.931  23.103  0.00  0.00    +0.000 A 
ATOM     20  C   UNL     1       0.062   8.732  22.701  0.00  0.00    +0.000 A 
ATOM     21  N   UNL     1       0.645   8.536  21.496  0.00  0.00    +0.000 NA
ATOM     22  C   UNL     1       0.660   9.577  20.623  0.00  0.00    +0.000 A 
ATOM     23  H   UNL     1       1.705   7.462  20.717  0.00  0.00    +0.000 HD
ATOM     24  H   UNL     1       2.730  13.807  17.533  0.00  0.00    +0.000 HD
ENDBRANCH   5   7
BRANCH   1  25
ATOM     25  C   UNL     1       6.503   5.355  18.386  0.00  0.00    +0.000 C 
ATOM     26  C   UNL     1       7.455   5.883  19.475  0.00  0.00    +0.000 C 
ATOM     27  F   UNL     1       7.014   4.129  18.000  0.00  0.00    +0.000 F 
BRANCH  25  28
ATOM     28  C   UNL     1       6.496   6.266  17.102  0.00  0.00    +0.000 C 
ATOM     29  F   UNL     1       7.552   7.131  17.127  0.00  0.00    +0.000 F 
ATOM     30  F   UNL     1       5.384   7.064  17.138  0.00  0.00    +0.000 F 
BRANCH  28  36
ATOM     31  C   UNL     1       4.329   4.243  15.890  0.00  0.00    +0.000 C 
ATOM     32  N   UNL     1       5.614   4.593  15.345  0.00  0.00    +0.000 N 
ATOM     33  C   UNL     1       6.111   4.089  14.179  0.00  0.00    +0.000 A 
ATOM     34  N   UNL     1       7.245   4.678  13.892  0.00  0.00    +0.000 NA
ATOM     35  N   UNL     1       7.500   5.579  14.896  0.00  0.00    +0.000 NA
ATOM     36  C   UNL     1       6.548   5.484  15.812  0.00  0.00    +0.000 A 
ENDBRANCH  28  36
ENDBRANCH  25  28
ENDBRANCH   1  25
TORSDOF 4
ENDMDL
MODEL 5
REMARK VINA RESULT:      -8.6      1.993      2.634
REMARK  Name = 
REMARK  6 active torsions:
REMARK  status: ('A' for Active; 'I' for Inactive)
REMARK    1  A    between atoms: C_1  and  N_2
REMARK    2  A    between atoms: C_6  and  C_7
REMARK    3  A    between atoms: C_7  and  C_10
REMARK    4  A    between atoms: C_10  and  C_11
REMARK    5  A    between atoms: C_10  and  C_13
REMARK    6  A    between atoms: C_17  and  N_18
REMARK                            x       y       z     vdW  Elec       q    Type
REMARK                         _______ _______ _______ _____ _____    ______ ____
ROOT
ATOM      1  C   UNL     1       3.472   5.911  19.284  0.00  0.00    +0.000 A 
ATOM      2  C   UNL     1       2.864   4.822  19.927  0.00  0.00    +0.000 A 
ATOM      3  C   UNL     1       1.709   5.002  20.694  0.00  0.00    +0.000 A 
ATOM      4  C   UNL     1       1.136   6.268  20.833  0.00  0.00    +0.000 A 
ATOM      5  C   UNL     1       1.726   7.381  20.237  0.00  0.00    +0.000 A 
ATOM      6  C   UNL     1       2.899   7.193  19.477  0.00  0.00    +0.000 A 
ENDROOT
BRANCH   5   7
ATOM      7  N   UNL     1       1.173   8.681  20.296  0.00  0.00    +0.000 N 
ATOM      8  C   UNL     1       1.217   9.691  19.358  0.00  0.00    +0.000 C 
ATOM      9  O   UNL     1       1.687   9.557  18.227  0.00  0.00    +0.000 OA
ATOM     10  N   UNL     1       0.722  10.938  19.778  0.00  0.00    +0.000 N 
ATOM     11  C   UNL     1       0.730  12.052  18.813  0.00  0.00    +0.000 C 
ATOM     12  C   UNL     1       1.079  13.344  19.549  0.00  0.00    +0.000 C 
ATOM     13  C   UNL     1       1.309  14.584  18.626  0.00  0.00    +0.000 C 
ATOM     14  N   UNL     1       2.738  14.219  18.555  0.00  0.00    +0.000 NA
ATOM     15  C   UNL     1       2.594  13.533  19.862  0.00  0.00    +0.000 C 
ATOM     16  O   UNL     1       0.144  13.607  20.629  0.00  0.00    +0.000 OA
ATOM     17  C   UNL     1      -0.247  12.514  21.360  0.00  0.00    +0.000 A 
ATOM     18  C   UNL     1      -0.983  12.768  22.512  0.00  0.00    +0.000 A 
ATOM     19  C   UNL     1      -1.392  11.702  23.303  0.00  0.00    +0.000 A 
ATOM     20  C   UNL     1      -1.026  10.426  22.914  0.00  0.00    +0.000 A 
ATOM     21  N   UNL     1      -0.308  10.152  21.800  0.00  0.00    +0.000 NA
ATOM     22  C   UNL     1       0.054  11.194  21.007  0.00  0.00    +0.000 A 
ATOM     23  H   UNL     1       0.626   8.907  21.123  0.00  0.00    +0.000 HD
ATOM     24  H   UNL     1       3.393  15.000  18.539  0.00  0.00    +0.000 HD
ENDBRANCH   5   7
BRANCH   1  25
ATOM     25  C   UNL     1       4.575   5.708  18.218  0.00  0.00    +0.000 C 
ATOM     26  C   UNL     1       4.501   6.955  17.317  0.00  0.00    +0.000 C 
ATOM     27  F   UNL     1       5.823   5.746  18.813  0.00  0.00    +0.000 F 
BRANCH  25  28
ATOM     28  C   UNL     1       4.506   4.368  17.395  0.00  0.00    +0.000 C 
ATOM     29  F   UNL     1       3.221   4.110  17.015  0.00  0.00    +0.000 F 
ATOM     30  F   UNL     1       4.847   3.331  18.219  0.00  0.00    +0.000 F 
BRANCH  28  36
ATOM     31  C   UNL     1       7.700   4.497  17.191  0.00  0.00    +0.000 C 
ATOM     32  N   UNL     1       6.746   4.474  16.115  0.00  0.00    +0.000 N 
ATOM     33  C   UNL     1       7.085   4.503  14.794  0.00  0.00    +0.000 A 
ATOM     34  N   UNL     1       6.011   4.358  14.060  0.00  0.00    +0.000 NA
ATOM     35  N   UNL     1       4.945   4.241  14.917  0.00  0.00    +0.000 NA
ATOM     36  C   UNL     1       5.377   4.377  16.162  0.00  0.00    +0.000 A 
ENDBRANCH  28  36
ENDBRANCH  25  28
ENDBRANCH   1  25
TORSDOF 4
ENDMDL
MODEL 6
REMARK VINA RESULT:      -8.6      3.763      5.483
REMARK  Name = 
REMARK  6 active torsions:
REMARK  status: ('A' for Active; 'I' for Inactive)
REMARK    1  A    between atoms: C_1  and  N_2
REMARK    2  A    between atoms: C_6  and  C_7
REMARK    3  A    between atoms: C_7  and  C_10
REMARK    4  A    between atoms: C_10  and  C_11
REMARK    5  A    between atoms: C_10  and  C_13
REMARK    6  A    between atoms: C_17  and  N_18
REMARK                            x       y       z     vdW  Elec       q    Type
REMARK                         _______ _______ _______ _____ _____    ______ ____
ROOT
ATOM      1  C   UNL     1       2.005   7.177  19.175  0.00  0.00    +0.000 A 
ATOM      2  C   UNL     1       2.383   7.510  17.865  0.00  0.00    +0.000 A 
ATOM      3  C   UNL     1       2.260   8.823  17.400  0.00  0.00    +0.000 A 
ATOM      4  C   UNL     1       1.762   9.829  18.230  0.00  0.00    +0.000 A 
ATOM      5  C   UNL     1       1.346   9.535  19.527  0.00  0.00    +0.000 A 
ATOM      6  C   UNL     1       1.459   8.205  19.984  0.00  0.00    +0.000 A 
ENDROOT
BRANCH   5   7
ATOM      7  N   UNL     1       0.878  10.512  20.436  0.00  0.00    +0.000 N 
ATOM      8  C   UNL     1      -0.116  10.414  21.388  0.00  0.00    +0.000 C 
ATOM      9  O   UNL     1      -0.701   9.365  21.662  0.00  0.00    +0.000 OA
ATOM     10  N   UNL     1      -0.474  11.615  22.024  0.00  0.00    +0.000 N 
ATOM     11  C   UNL     1      -1.521  11.569  23.060  0.00  0.00    +0.000 C 
ATOM     12  C   UNL     1      -2.384  12.824  22.950  0.00  0.00    +0.000 C 
ATOM     13  C   UNL     1      -3.652  12.832  23.864  0.00  0.00    +0.000 C 
ATOM     14  N   UNL     1      -4.404  12.199  22.762  0.00  0.00    +0.000 NA
ATOM     15  C   UNL     1      -3.441  12.797  21.805  0.00  0.00    +0.000 C 
ATOM     16  O   UNL     1      -1.584  14.030  23.081  0.00  0.00    +0.000 OA
ATOM     17  C   UNL     1      -0.364  14.008  22.454  0.00  0.00    +0.000 A 
ATOM     18  C   UNL     1       0.330  15.212  22.402  0.00  0.00    +0.000 A 
ATOM     19  C   UNL     1       1.562  15.256  21.764  0.00  0.00    +0.000 A 
ATOM     20  C   UNL     1       2.037  14.094  21.186  0.00  0.00    +0.000 A 
ATOM     21  N   UNL     1       1.381  12.910  21.220  0.00  0.00    +0.000 NA
ATOM     22  C   UNL     1       0.196  12.862  21.881  0.00  0.00    +0.000 A 
ATOM     23  H   UNL     1       1.359  11.408  20.431  0.00  0.00    +0.000 HD
ATOM     24  H   UNL     1      -5.371  12.500  22.657  0.00  0.00    +0.000 HD
ENDBRANCH   5   7
BRANCH   1  25
ATOM     25  C   UNL     1       2.379   5.813  19.803  0.00  0.00    +0.000 C 
ATOM     26  C   UNL     1       3.904   5.693  19.631  0.00  0.00    +0.000 C 
ATOM     27  F   UNL     1       2.153   5.840  21.167  0.00  0.00    +0.000 F 
BRANCH  25  28
ATOM     28  C   UNL     1       1.611   4.558  19.242  0.00  0.00    +0.000 C 
ATOM     29  F   UNL     1       1.018   4.859  18.050  0.00  0.00    +0.000 F 
ATOM     30  F   UNL     1       0.577   4.264  20.088  0.00  0.00    +0.000 F 
BRANCH  28  36
ATOM     31  C   UNL     1       2.804   2.560  21.443  0.00  0.00    +0.000 C 
ATOM     32  N   UNL     1       3.022   2.542  20.021  0.00  0.00    +0.000 N 
ATOM     33  C   UNL     1       3.804   1.626  19.382  0.00  0.00    +0.000 A 
ATOM     34  N   UNL     1       3.718   1.799  18.087  0.00  0.00    +0.000 NA
ATOM     35  N   UNL     1       2.869   2.857  17.874  0.00  0.00    +0.000 NA
ATOM     36  C   UNL     1       2.498   3.353  19.045  0.00  0.00    +0.000 A 
ENDBRANCH  28  36
ENDBRANCH  25  28
ENDBRANCH   1  25
TORSDOF 4
ENDMDL
MODEL 7
REMARK VINA RESULT:      -8.6      2.103      3.366
REMARK  Name = 
REMARK  6 active torsions:
REMARK  status: ('A' for Active; 'I' for Inactive)
REMARK    1  A    between atoms: C_1  and  N_2
REMARK    2  A    between atoms: C_6  and  C_7
REMARK    3  A    between atoms: C_7  and  C_10
REMARK    4  A    between atoms: C_10  and  C_11
REMARK    5  A    between atoms: C_10  and  C_13
REMARK    6  A    between atoms: C_17  and  N_18
REMARK                            x       y       z     vdW  Elec       q    Type
REMARK                         _______ _______ _______ _____ _____    ______ ____
ROOT
ATOM      1  C   UNL     1       3.005   5.482  19.019  0.00  0.00    +0.000 A 
ATOM      2  C   UNL     1       2.822   4.689  20.162  0.00  0.00    +0.000 A 
ATOM      3  C   UNL     1       2.051   5.152  21.233  0.00  0.00    +0.000 A 
ATOM      4  C   UNL     1       1.445   6.409  21.185  0.00  0.00    +0.000 A 
ATOM      5  C   UNL     1       1.628   7.240  20.081  0.00  0.00    +0.000 A 
ATOM      6  C   UNL     1       2.420   6.773  19.012  0.00  0.00    +0.000 A 
ENDROOT
BRANCH   5   7
ATOM      7  N   UNL     1       1.006   8.503  19.946  0.00  0.00    +0.000 N 
ATOM      8  C   UNL     1       1.129   9.626  20.737  0.00  0.00    +0.000 C 
ATOM      9  O   UNL     1       1.927   9.722  21.672  0.00  0.00    +0.000 OA
ATOM     10  N   UNL     1       0.246  10.680  20.447  0.00  0.00    +0.000 N 
ATOM     11  C   UNL     1       0.341  11.911  21.250  0.00  0.00    +0.000 C 
ATOM     12  C   UNL     1      -1.064  12.457  21.492  0.00  0.00    +0.000 C 
ATOM     13  C   UNL     1      -1.140  13.660  22.488  0.00  0.00    +0.000 C 
ATOM     14  N   UNL     1      -1.310  12.690  23.588  0.00  0.00    +0.000 NA
ATOM     15  C   UNL     1      -1.869  11.726  22.609  0.00  0.00    +0.000 C 
ATOM     16  O   UNL     1      -1.756  12.713  20.241  0.00  0.00    +0.000 OA
ATOM     17  C   UNL     1      -1.570  11.778  19.254  0.00  0.00    +0.000 A 
ATOM     18  C   UNL     1      -2.370  11.900  18.123  0.00  0.00    +0.000 A 
ATOM     19  C   UNL     1      -2.239  10.973  17.098  0.00  0.00    +0.000 A 
ATOM     20  C   UNL     1      -1.324   9.950  17.260  0.00  0.00    +0.000 A 
ATOM     21  N   UNL     1      -0.534   9.807  18.350  0.00  0.00    +0.000 NA
ATOM     22  C   UNL     1      -0.636  10.740  19.332  0.00  0.00    +0.000 A 
ATOM     23  H   UNL     1       0.411   8.634  19.132  0.00  0.00    +0.000 HD
ATOM     24  H   UNL     1      -1.942  12.974  24.335  0.00  0.00    +0.000 HD
ENDBRANCH   5   7
BRANCH   1  25
ATOM     25  C   UNL     1       3.615   4.901  17.720  0.00  0.00    +0.000 C 
ATOM     26  C   UNL     1       2.476   4.101  17.062  0.00  0.00    +0.000 C 
ATOM     27  F   UNL     1       3.918   5.922  16.839  0.00  0.00    +0.000 F 
BRANCH  25  28
ATOM     28  C   UNL     1       4.926   4.047  17.893  0.00  0.00    +0.000 C 
ATOM     29  F   UNL     1       5.342   3.567  16.685  0.00  0.00    +0.000 F 
ATOM     30  F   UNL     1       4.631   2.935  18.633  0.00  0.00    +0.000 F 
BRANCH  28  36
ATOM     31  C   UNL     1       6.978   6.083  16.512  0.00  0.00    +0.000 C 
ATOM     32  N   UNL     1       6.949   5.652  17.884  0.00  0.00    +0.000 N 
ATOM     33  C   UNL     1       7.832   6.073  18.834  0.00  0.00    +0.000 A 
ATOM     34  N   UNL     1       7.483   5.596  20.003  0.00  0.00    +0.000 NA
ATOM     35  N   UNL     1       6.353   4.840  19.812  0.00  0.00    +0.000 NA
ATOM     36  C   UNL     1       6.064   4.817  18.519  0.00  0.00    +0.000 A 
ENDBRANCH  28  36
ENDBRANCH  25  28
ENDBRANCH   1  25
TORSDOF 4
ENDMDL
MODEL 8
REMARK VINA RESULT:      -8.5      2.489      3.782
REMARK  Name = 
REMARK  6 active torsions:
REMARK  status: ('A' for Active; 'I' for Inactive)
REMARK    1  A    between atoms: C_1  and  N_2
REMARK    2  A    between atoms: C_6  and  C_7
REMARK    3  A    between atoms: C_7  and  C_10
REMARK    4  A    between atoms: C_10  and  C_11
REMARK    5  A    between atoms: C_10  and  C_13
REMARK    6  A    between atoms: C_17  and  N_18
REMARK                            x       y       z     vdW  Elec       q    Type
REMARK                         _______ _______ _______ _____ _____    ______ ____
ROOT
ATOM      1  C   UNL     1       3.430   6.089  19.325  0.00  0.00    +0.000 A 
ATOM      2  C   UNL     1       2.953   5.047  20.136  0.00  0.00    +0.000 A 
ATOM      3  C   UNL     1       1.799   5.216  20.907  0.00  0.00    +0.000 A 
ATOM      4  C   UNL     1       1.097   6.422  20.884  0.00  0.00    +0.000 A 
ATOM      5  C   UNL     1       1.554   7.492  20.117  0.00  0.00    +0.000 A 
ATOM      6  C   UNL     1       2.728   7.319  19.354  0.00  0.00    +0.000 A 
ENDROOT
BRANCH   5   7
ATOM      7  N   UNL     1       0.866   8.723  20.009  0.00  0.00    +0.000 N 
ATOM      8  C   UNL     1       0.953   9.844  20.809  0.00  0.00    +0.000 C 
ATOM      9  O   UNL     1       1.768   9.971  21.725  0.00  0.00    +0.000 OA
ATOM     10  N   UNL     1       0.011  10.854  20.551  0.00  0.00    +0.000 N 
ATOM     11  C   UNL     1       0.065  12.082  21.364  0.00  0.00    +0.000 C 
ATOM     12  C   UNL     1      -1.359  12.554  21.646  0.00  0.00    +0.000 C 
ATOM     13  C   UNL     1      -1.470  13.743  22.654  0.00  0.00    +0.000 C 
ATOM     14  N   UNL     1      -1.564  12.756  23.749  0.00  0.00    +0.000 NA
ATOM     15  C   UNL     1      -2.099  11.774  22.775  0.00  0.00    +0.000 C 
ATOM     16  O   UNL     1      -2.094  12.786  20.414  0.00  0.00    +0.000 OA
ATOM     17  C   UNL     1      -1.886  11.871  19.413  0.00  0.00    +0.000 A 
ATOM     18  C   UNL     1      -2.720  11.962  18.304  0.00  0.00    +0.000 A 
ATOM     19  C   UNL     1      -2.568  11.052  17.267  0.00  0.00    +0.000 A 
ATOM     20  C   UNL     1      -1.599  10.075  17.396  0.00  0.00    +0.000 A 
ATOM     21  N   UNL     1      -0.777   9.962  18.465  0.00  0.00    +0.000 NA
ATOM     22  C   UNL     1      -0.900  10.880  19.458  0.00  0.00    +0.000 A 
ATOM     23  H   UNL     1       0.246   8.831  19.211  0.00  0.00    +0.000 HD
ATOM     24  H   UNL     1      -2.190  13.002  24.514  0.00  0.00    +0.000 HD
ENDBRANCH   5   7
BRANCH   1  25
ATOM     25  C   UNL     1       4.531   5.849  18.264  0.00  0.00    +0.000 C 
ATOM     26  C   UNL     1       4.422   7.039  17.294  0.00  0.00    +0.000 C 
ATOM     27  F   UNL     1       5.782   5.949  18.845  0.00  0.00    +0.000 F 
BRANCH  25  28
ATOM     28  C   UNL     1       4.486   4.463  17.520  0.00  0.00    +0.000 C 
ATOM     29  F   UNL     1       3.204   4.154  17.168  0.00  0.00    +0.000 F 
ATOM     30  F   UNL     1       4.858   3.482  18.400  0.00  0.00    +0.000 F 
BRANCH  28  36
ATOM     31  C   UNL     1       7.681   4.465  17.290  0.00  0.00    +0.000 C 
ATOM     32  N   UNL     1       6.718   4.463  16.222  0.00  0.00    +0.000 N 
ATOM     33  C   UNL     1       7.047   4.460  14.899  0.00  0.00    +0.000 A 
ATOM     34  N   UNL     1       5.962   4.346  14.174  0.00  0.00    +0.000 NA
ATOM     35  N   UNL     1       4.900   4.283  15.041  0.00  0.00    +0.000 NA
ATOM     36  C   UNL     1       5.347   4.420  16.281  0.00  0.00    +0.000 A 
ENDBRANCH  28  36
ENDBRANCH  25  28
ENDBRANCH   1  25
TORSDOF 4
ENDMDL
MODEL 9
REMARK VINA RESULT:      -8.5      1.131      1.739
REMARK  Name = 
REMARK  6 active torsions:
REMARK  status: ('A' for Active; 'I' for Inactive)
REMARK    1  A    between atoms: C_1  and  N_2
REMARK    2  A    between atoms: C_6  and  C_7
REMARK    3  A    between atoms: C_7  and  C_10
REMARK    4  A    between atoms: C_10  and  C_11
REMARK    5  A    between atoms: C_10  and  C_13
REMARK    6  A    between atoms: C_17  and  N_18
REMARK                            x       y       z     vdW  Elec       q    Type
REMARK                         _______ _______ _______ _____ _____    ______ ____
ROOT
ATOM      1  C   UNL     1       3.392   5.081  18.880  0.00  0.00    +0.000 A 
ATOM      2  C   UNL     1       3.136   4.124  19.875  0.00  0.00    +0.000 A 
ATOM      3  C   UNL     1       2.314   4.431  20.963  0.00  0.00    +0.000 A 
ATOM      4  C   UNL     1       1.728   5.694  21.080  0.00  0.00    +0.000 A 
ATOM      5  C   UNL     1       1.982   6.682  20.131  0.00  0.00    +0.000 A 
ATOM      6  C   UNL     1       2.825   6.369  19.044  0.00  0.00    +0.000 A 
ENDROOT
BRANCH   5   7
ATOM      7  N   UNL     1       1.384   7.963  20.162  0.00  0.00    +0.000 N 
ATOM      8  C   UNL     1       1.315   8.918  19.168  0.00  0.00    +0.000 C 
ATOM      9  O   UNL     1       1.700   8.733  18.012  0.00  0.00    +0.000 OA
ATOM     10  N   UNL     1       0.806  10.169  19.555  0.00  0.00    +0.000 N 
ATOM     11  C   UNL     1       0.694  11.223  18.532  0.00  0.00    +0.000 C 
ATOM     12  C   UNL     1       1.048  12.567  19.164  0.00  0.00    +0.000 C 
ATOM     13  C   UNL     1       1.156  13.759  18.157  0.00  0.00    +0.000 C 
ATOM     14  N   UNL     1       2.589  13.441  17.993  0.00  0.00    +0.000 NA
ATOM     15  C   UNL     1       2.575  12.828  19.343  0.00  0.00    +0.000 C 
ATOM     16  O   UNL     1       0.191  12.862  20.300  0.00  0.00    +0.000 OA
ATOM     17  C   UNL     1      -0.098  11.800  21.120  0.00  0.00    +0.000 A 
ATOM     18  C   UNL     1      -0.751  12.096  22.311  0.00  0.00    +0.000 A 
ATOM     19  C   UNL     1      -1.055  11.064  23.190  0.00  0.00    +0.000 A 
ATOM     20  C   UNL     1      -0.670   9.782  22.845  0.00  0.00    +0.000 A 
ATOM     21  N   UNL     1      -0.032   9.468  21.694  0.00  0.00    +0.000 NA
ATOM     22  C   UNL     1       0.226  10.474  20.818  0.00  0.00    +0.000 A 
ATOM     23  H   UNL     1       0.895   8.219  21.015  0.00  0.00    +0.000 HD
ATOM     24  H   UNL     1       3.209  14.241  17.880  0.00  0.00    +0.000 HD
ENDBRANCH   5   7
BRANCH   1  25
ATOM     25  C   UNL     1       4.064   4.695  17.540  0.00  0.00    +0.000 C 
ATOM     26  C   UNL     1       4.425   3.205  17.684  0.00  0.00    +0.000 C 
ATOM     27  F   UNL     1       3.145   4.764  16.510  0.00  0.00    +0.000 F 
BRANCH  25  28
ATOM     28  C   UNL     1       5.297   5.571  17.106  0.00  0.00    +0.000 C 
ATOM     29  F   UNL     1       4.892   6.835  16.786  0.00  0.00    +0.000 F 
ATOM     30  F   UNL     1       5.811   5.059  15.946  0.00  0.00    +0.000 F 
BRANCH  28  36
ATOM     31  C   UNL     1       7.660   7.714  17.392  0.00  0.00    +0.000 C 
ATOM     32  N   UNL     1       7.391   6.579  18.232  0.00  0.00    +0.000 N 
ATOM     33  C   UNL     1       8.139   6.241  19.321  0.00  0.00    +0.000 A 
ATOM     34  N   UNL     1       7.583   5.231  19.943  0.00  0.00    +0.000 NA
ATOM     35  N   UNL     1       6.453   4.895  19.241  0.00  0.00    +0.000 NA
ATOM     36  C   UNL     1       6.368   5.666  18.166  0.00  0.00    +0.000 A 
ENDBRANCH  28  36
ENDBRANCH  25  28
ENDBRANCH   1  25
TORSDOF 4
ENDMDL
