MODEL 1
REMARK VINA RESULT:      -8.2      0.000      0.000
REMARK  Name = 
REMARK  9 active torsions:
REMARK  status: ('A' for Active; 'I' for Inactive)
REMARK    1  A    between atoms: C_1  and  C_2
REMARK    2  A    between atoms: C_5  and  C_6
REMARK    3  A    between atoms: N_8  and  C_9
REMARK    4  A    between atoms: C_13  and  C_14
REMARK    5  A    between atoms: C_14  and  C_15
REMARK    6  A    between atoms: C_14  and  S_16
REMARK    7  A    between atoms: S_16  and  C_17
REMARK    8  A    between atoms: N_21  and  C_22
REMARK    9  A    between atoms: C_25  and  C_26
REMARK                            x       y       z     vdW  Elec       q    Type
REMARK                         _______ _______ _______ _____ _____    ______ ____
ROOT
ATOM      1  C   UNL     1       7.985   8.087  17.994  0.00  0.00    +0.000 A 
ATOM      2  C   UNL     1       8.462   7.247  19.002  0.00  0.00    +0.000 A 
ATOM      3  C   UNL     1       7.921   5.978  19.197  0.00  0.00    +0.000 A 
ATOM      4  C   UNL     1       6.889   5.526  18.380  0.00  0.00    +0.000 A 
ATOM      5  C   UNL     1       6.377   6.340  17.355  0.00  0.00    +0.000 A 
ATOM      6  C   UNL     1       6.926   7.635  17.187  0.00  0.00    +0.000 A 
ENDROOT
BRANCH   1   9
ATOM      7  C   UNL     1       9.055  10.222  18.737  0.00  0.00    +0.000 C 
ATOM      8  O   UNL     1       9.173   9.972  19.933  0.00  0.00    +0.000 OA
ATOM      9  N   UNL     1       8.526   9.377  17.768  0.00  0.00    +0.000 N 
ATOM     10  H   UNL     1       8.611   9.709  16.811  0.00  0.00    +0.000 HD
BRANCH   7  15
ATOM     11  C   UNL     1      11.132  15.248  16.906  0.00  0.00    +0.000 C 
ATOM     12  C   UNL     1      10.511  13.963  17.369  0.00  0.00    +0.000 A 
ATOM     13  C   UNL     1      11.253  12.777  17.302  0.00  0.00    +0.000 A 
ATOM     14  N   UNL     1      10.829  11.566  17.733  0.00  0.00    +0.000 NA
ATOM     15  C   UNL     1       9.571  11.536  18.235  0.00  0.00    +0.000 A 
ATOM     16  C   UNL     1       8.754  12.662  18.338  0.00  0.00    +0.000 A 
ATOM     17  C   UNL     1       9.217  13.920  17.923  0.00  0.00    +0.000 A 
BRANCH  17  18
ATOM     18  C   UNL     1       8.375  15.154  18.198  0.00  0.00    +0.000 C 
ATOM     19  C   UNL     1       7.212  15.157  19.157  0.00  0.00    +0.000 C 
ATOM     20  C   UNL     1       8.476  15.862  19.533  0.00  0.00    +0.000 C 
ENDBRANCH  17  18
ENDBRANCH   7  15
ENDBRANCH   1   9
BRANCH   5  21
ATOM     21  C   UNL     1       5.228   5.853  16.472  0.00  0.00    +0.000 C 
ATOM     22  C   UNL     1       3.937   5.740  17.291  0.00  0.00    +0.000 C 
BRANCH  21  23
ATOM     23  S   UNL     1       5.624   4.229  15.688  0.00  0.00    +0.000 S 
BRANCH  23  24
ATOM     24  C   UNL     1       6.705   4.703  14.426  0.00  0.00    +0.000 A 
ATOM     25  N   UNL     1       7.727   5.520  14.538  0.00  0.00    +0.000 NA
ATOM     26  N   UNL     1       8.314   5.632  13.296  0.00  0.00    +0.000 NA
ATOM     27  C   UNL     1       7.633   4.874  12.467  0.00  0.00    +0.000 A 
ATOM     28  N   UNL     1       6.609   4.270  13.136  0.00  0.00    +0.000 N 
ATOM     29  C   UNL     1       5.634   3.390  12.547  0.00  0.00    +0.000 C 
ENDBRANCH  23  24
ENDBRANCH  21  23
ENDBRANCH   5  21
TORSDOF 6
ENDMDL
MODEL 2
REMARK VINA RESULT:      -8.2      6.919      9.999
REMARK  Name = 
REMARK  9 active torsions:
REMARK  status: ('A' for Active; 'I' for Inactive)
REMARK    1  A    between atoms: C_1  and  C_2
REMARK    2  A    between atoms: C_5  and  C_6
REMARK    3  A    between atoms: N_8  and  C_9
REMARK    4  A    between atoms: C_13  and  C_14
REMARK    5  A    between atoms: C_14  and  C_15
REMARK    6  A    between atoms: C_14  and  S_16
REMARK    7  A    between atoms: S_16  and  C_17
REMARK    8  A    between atoms: N_21  and  C_22
REMARK    9  A    between atoms: C_25  and  C_26
REMARK                            x       y       z     vdW  Elec       q    Type
REMARK                         _______ _______ _______ _____ _____    ______ ____
ROOT
ATOM      1  C   UNL     1       1.541   8.557  19.751  0.00  0.00    +0.000 A 
ATOM      2  C   UNL     1       1.199   8.253  21.070  0.00  0.00    +0.000 A 
ATOM      3  C   UNL     1       0.339   9.073  21.797  0.00  0.00    +0.000 A 
ATOM      4  C   UNL     1      -0.197  10.216  21.212  0.00  0.00    +0.000 A 
ATOM      5  C   UNL     1       0.123  10.561  19.887  0.00  0.00    +0.000 A 
ATOM      6  C   UNL     1       1.015   9.726  19.172  0.00  0.00    +0.000 A 
ENDROOT
BRANCH   1   9
ATOM      7  C   UNL     1       2.515   6.351  19.085  0.00  0.00    +0.000 C 
ATOM      8  O   UNL     1       1.858   5.621  19.823  0.00  0.00    +0.000 OA
ATOM      9  N   UNL     1       2.404   7.734  18.986  0.00  0.00    +0.000 N 
ATOM     10  H   UNL     1       2.950   8.158  18.242  0.00  0.00    +0.000 HD
BRANCH   7  15
ATOM     11  C   UNL     1       6.290   3.797  15.599  0.00  0.00    +0.000 C 
ATOM     12  C   UNL     1       5.341   4.539  16.496  0.00  0.00    +0.000 A 
ATOM     13  C   UNL     1       4.057   4.025  16.713  0.00  0.00    +0.000 A 
ATOM     14  N   UNL     1       3.129   4.568  17.535  0.00  0.00    +0.000 NA
ATOM     15  C   UNL     1       3.501   5.714  18.155  0.00  0.00    +0.000 A 
ATOM     16  C   UNL     1       4.754   6.304  17.998  0.00  0.00    +0.000 A 
ATOM     17  C   UNL     1       5.723   5.713  17.173  0.00  0.00    +0.000 A 
BRANCH  17  18
ATOM     18  C   UNL     1       7.132   6.281  17.149  0.00  0.00    +0.000 C 
ATOM     19  C   UNL     1       7.454   7.693  17.567  0.00  0.00    +0.000 C 
ATOM     20  C   UNL     1       7.864   6.555  18.446  0.00  0.00    +0.000 C 
ENDBRANCH  17  18
ENDBRANCH   7  15
ENDBRANCH   1   9
BRANCH   5  21
ATOM     21  C   UNL     1      -0.447  11.829  19.251  0.00  0.00    +0.000 C 
ATOM     22  C   UNL     1       0.185  13.073  19.885  0.00  0.00    +0.000 C 
BRANCH  21  23
ATOM     23  S   UNL     1      -2.285  11.898  19.419  0.00  0.00    +0.000 S 
BRANCH  23  24
ATOM     24  C   UNL     1      -2.799  11.491  17.820  0.00  0.00    +0.000 A 
ATOM     25  N   UNL     1      -2.025  11.171  16.808  0.00  0.00    +0.000 NA
ATOM     26  N   UNL     1      -2.835  10.930  15.720  0.00  0.00    +0.000 NA
ATOM     27  C   UNL     1      -4.078  11.105  16.105  0.00  0.00    +0.000 A 
ATOM     28  N   UNL     1      -4.103  11.461  17.422  0.00  0.00    +0.000 N 
ATOM     29  C   UNL     1      -5.288  11.763  18.180  0.00  0.00    +0.000 C 
ENDBRANCH  23  24
ENDBRANCH  21  23
ENDBRANCH   5  21
TORSDOF 6
ENDMDL
MODEL 3
REMARK VINA RESULT:      -8.1      5.180      7.750
REMARK  Name = 
REMARK  9 active torsions:
REMARK  status: ('A' for Active; 'I' for Inactive)
REMARK    1  A    between atoms: C_1  and  C_2
REMARK    2  A    between atoms: C_5  and  C_6
REMARK    3  A    between atoms: N_8  and  C_9
REMARK    4  A    between atoms: C_13  and  C_14
REMARK    5  A    between atoms: C_14  and  C_15
REMARK    6  A    between atoms: C_14  and  S_16
REMARK    7  A    between atoms: S_16  and  C_17
REMARK    8  A    between atoms: N_21  and  C_22
REMARK    9  A    between atoms: C_25  and  C_26
REMARK                            x       y       z     vdW  Elec       q    Type
REMARK                         _______ _______ _______ _____ _____    ______ ____
ROOT
ATOM      1  C   UNL     1       2.491   5.640  18.391  0.00  0.00    +0.000 A 
ATOM      2  C   UNL     1       1.914   4.369  18.382  0.00  0.00    +0.000 A 
ATOM      3  C   UNL     1       2.473   3.331  17.640  0.00  0.00    +0.000 A 
ATOM      4  C   UNL     1       3.628   3.549  16.894  0.00  0.00    +0.000 A 
ATOM      5  C   UNL     1       4.240   4.814  16.873  0.00  0.00    +0.000 A 
ATOM      6  C   UNL     1       3.644   5.862  17.616  0.00  0.00    +0.000 A 
ENDROOT
BRANCH   1   9
ATOM      7  C   UNL     1       1.848   8.034  18.730  0.00  0.00    +0.000 C 
ATOM      8  O   UNL     1       2.180   8.479  17.635  0.00  0.00    +0.000 OA
ATOM      9  N   UNL     1       1.948   6.710  19.145  0.00  0.00    +0.000 N 
ATOM     10  H   UNL     1       1.520   6.506  20.044  0.00  0.00    +0.000 HD
BRANCH   7  15
ATOM     11  C   UNL     1      -0.621  11.532  22.550  0.00  0.00    +0.000 C 
ATOM     12  C   UNL     1       0.035  10.684  21.499  0.00  0.00    +0.000 A 
ATOM     13  C   UNL     1       0.692   9.507  21.878  0.00  0.00    +0.000 A 
ATOM     14  N   UNL     1       1.277   8.632  21.027  0.00  0.00    +0.000 NA
ATOM     15  C   UNL     1       1.226   8.974  19.717  0.00  0.00    +0.000 A 
ATOM     16  C   UNL     1       0.599  10.126  19.244  0.00  0.00    +0.000 A 
ATOM     17  C   UNL     1      -0.038  11.008  20.130  0.00  0.00    +0.000 A 
BRANCH  17  18
ATOM     18  C   UNL     1      -0.854  12.164  19.579  0.00  0.00    +0.000 C 
ATOM     19  C   UNL     1      -1.344  12.215  18.154  0.00  0.00    +0.000 C 
ATOM     20  C   UNL     1      -2.322  11.975  19.260  0.00  0.00    +0.000 C 
ENDBRANCH  17  18
ENDBRANCH   7  15
ENDBRANCH   1   9
BRANCH   5  21
ATOM     21  C   UNL     1       5.495   5.060  16.035  0.00  0.00    +0.000 C 
ATOM     22  C   UNL     1       5.460   4.209  14.761  0.00  0.00    +0.000 C 
BRANCH  21  23
ATOM     23  S   UNL     1       7.028   4.696  16.998  0.00  0.00    +0.000 S 
BRANCH  23  24
ATOM     24  C   UNL     1       7.523   6.279  17.482  0.00  0.00    +0.000 A 
ATOM     25  N   UNL     1       7.499   7.366  16.744  0.00  0.00    +0.000 NA
ATOM     26  N   UNL     1       7.985   8.404  17.509  0.00  0.00    +0.000 NA
ATOM     27  C   UNL     1       8.284   7.918  18.692  0.00  0.00    +0.000 A 
ATOM     28  N   UNL     1       8.010   6.582  18.720  0.00  0.00    +0.000 N 
ATOM     29  C   UNL     1       8.238   5.708  19.840  0.00  0.00    +0.000 C 
ENDBRANCH  23  24
ENDBRANCH  21  23
ENDBRANCH   5  21
TORSDOF 6
ENDMDL
MODEL 4
REMARK VINA RESULT:      -7.9      8.328     11.808
REMARK  Name = 
REMARK  9 active torsions:
REMARK  status: ('A' for Active; 'I' for Inactive)
REMARK    1  A    between atoms: C_1  and  C_2
REMARK    2  A    between atoms: C_5  and  C_6
REMARK    3  A    between atoms: N_8  and  C_9
REMARK    4  A    between atoms: C_13  and  C_14
REMARK    5  A    between atoms: C_14  and  C_15
REMARK    6  A    between atoms: C_14  and  S_16
REMARK    7  A    between atoms: S_16  and  C_17
REMARK    8  A    between atoms: N_21  and  C_22
REMARK    9  A    between atoms: C_25  and  C_26
REMARK                            x       y       z     vdW  Elec       q    Type
REMARK                         _______ _______ _______ _____ _____    ______ ____
ROOT
ATOM      1  C   UNL     1       0.683   9.949  18.219  0.00  0.00    +0.000 A 
ATOM      2  C   UNL     1       1.177  11.087  18.859  0.00  0.00    +0.000 A 
ATOM      3  C   UNL     1       0.335  12.142  19.200  0.00  0.00    +0.000 A 
ATOM      4  C   UNL     1      -1.024  12.075  18.908  0.00  0.00    +0.000 A 
ATOM      5  C   UNL     1      -1.563  10.949  18.262  0.00  0.00    +0.000 A 
ATOM      6  C   UNL     1      -0.687   9.896  17.904  0.00  0.00    +0.000 A 
ENDROOT
BRANCH   1   9
ATOM      7  C   UNL     1       2.082   7.946  18.755  0.00  0.00    +0.000 C 
ATOM      8  O   UNL     1       1.921   7.920  19.972  0.00  0.00    +0.000 OA
ATOM      9  N   UNL     1       1.516   8.857  17.870  0.00  0.00    +0.000 N 
ATOM     10  H   UNL     1       1.671   8.657  16.886  0.00  0.00    +0.000 HD
BRANCH   7  15
ATOM     11  C   UNL     1       5.293   3.911  16.238  0.00  0.00    +0.000 C 
ATOM     12  C   UNL     1       4.418   4.906  16.945  0.00  0.00    +0.000 A 
ATOM     13  C   UNL     1       4.819   6.246  17.014  0.00  0.00    +0.000 A 
ATOM     14  N   UNL     1       4.101   7.247  17.576  0.00  0.00    +0.000 NA
ATOM     15  C   UNL     1       2.922   6.875  18.130  0.00  0.00    +0.000 A 
ATOM     16  C   UNL     1       2.441   5.566  18.116  0.00  0.00    +0.000 A 
ATOM     17  C   UNL     1       3.175   4.543  17.498  0.00  0.00    +0.000 A 
BRANCH  17  18
ATOM     18  C   UNL     1       2.557   3.163  17.350  0.00  0.00    +0.000 C 
ATOM     19  C   UNL     1       3.011   1.970  18.152  0.00  0.00    +0.000 C 
ATOM     20  C   UNL     1       1.687   2.597  18.453  0.00  0.00    +0.000 C 
ENDBRANCH  17  18
ENDBRANCH   7  15
ENDBRANCH   1   9
BRANCH   5  21
ATOM     21  C   UNL     1      -3.052  10.883  17.920  0.00  0.00    +0.000 C 
ATOM     22  C   UNL     1      -3.257  11.030  16.408  0.00  0.00    +0.000 C 
BRANCH  21  23
ATOM     23  S   UNL     1      -4.006  12.185  18.817  0.00  0.00    +0.000 S 
BRANCH  23  24
ATOM     24  C   UNL     1      -5.465  11.344  19.206  0.00  0.00    +0.000 A 
ATOM     25  N   UNL     1      -6.020  10.378  18.511  0.00  0.00    +0.000 NA
ATOM     26  N   UNL     1      -7.170   9.995  19.166  0.00  0.00    +0.000 NA
ATOM     27  C   UNL     1      -7.277  10.738  20.244  0.00  0.00    +0.000 A 
ATOM     28  N   UNL     1      -6.224  11.603  20.309  0.00  0.00    +0.000 N 
ATOM     29  C   UNL     1      -6.021  12.590  21.336  0.00  0.00    +0.000 C 
ENDBRANCH  23  24
ENDBRANCH  21  23
ENDBRANCH   5  21
TORSDOF 6
ENDMDL
MODEL 5
REMARK VINA RESULT:      -7.9      8.718     11.979
REMARK  Name = 
REMARK  9 active torsions:
REMARK  status: ('A' for Active; 'I' for Inactive)
REMARK    1  A    between atoms: C_1  and  C_2
REMARK    2  A    between atoms: C_5  and  C_6
REMARK    3  A    between atoms: N_8  and  C_9
REMARK    4  A    between atoms: C_13  and  C_14
REMARK    5  A    between atoms: C_14  and  C_15
REMARK    6  A    between atoms: C_14  and  S_16
REMARK    7  A    between atoms: S_16  and  C_17
REMARK    8  A    between atoms: N_21  and  C_22
REMARK    9  A    between atoms: C_25  and  C_26
REMARK                            x       y       z     vdW  Elec       q    Type
REMARK                         _______ _______ _______ _____ _____    ______ ____
ROOT
ATOM      1  C   UNL     1       0.333  10.219  19.814  0.00  0.00    +0.000 A 
ATOM      2  C   UNL     1       0.768  11.264  20.631  0.00  0.00    +0.000 A 
ATOM      3  C   UNL     1      -0.057  12.353  20.905  0.00  0.00    +0.000 A 
ATOM      4  C   UNL     1      -1.338  12.412  20.365  0.00  0.00    +0.000 A 
ATOM      5  C   UNL     1      -1.814  11.383  19.534  0.00  0.00    +0.000 A 
ATOM      6  C   UNL     1      -0.953  10.295  19.250  0.00  0.00    +0.000 A 
ENDROOT
BRANCH   1   9
ATOM      7  C   UNL     1       1.883   8.893  18.365  0.00  0.00    +0.000 C 
ATOM      8  O   UNL     1       1.972   9.670  17.418  0.00  0.00    +0.000 OA
ATOM      9  N   UNL     1       1.148   9.095  19.528  0.00  0.00    +0.000 N 
ATOM     10  H   UNL     1       1.282   8.394  20.251  0.00  0.00    +0.000 HD
BRANCH   7  15
ATOM     11  C   UNL     1       4.868   4.004  18.033  0.00  0.00    +0.000 C 
ATOM     12  C   UNL     1       4.068   5.263  18.200  0.00  0.00    +0.000 A 
ATOM     13  C   UNL     1       4.372   6.381  17.413  0.00  0.00    +0.000 A 
ATOM     14  N   UNL     1       3.697   7.554  17.430  0.00  0.00    +0.000 NA
ATOM     15  C   UNL     1       2.672   7.620  18.313  0.00  0.00    +0.000 A 
ATOM     16  C   UNL     1       2.296   6.563  19.141  0.00  0.00    +0.000 A 
ATOM     17  C   UNL     1       2.978   5.338  19.089  0.00  0.00    +0.000 A 
BRANCH  17  18
ATOM     18  C   UNL     1       2.448   4.153  19.877  0.00  0.00    +0.000 C 
ATOM     19  C   UNL     1       1.100   4.153  20.552  0.00  0.00    +0.000 C 
ATOM     20  C   UNL     1       1.307   3.322  19.326  0.00  0.00    +0.000 C 
ENDBRANCH  17  18
ENDBRANCH   7  15
ENDBRANCH   1   9
BRANCH   5  21
ATOM     21  C   UNL     1      -3.213  11.459  18.921  0.00  0.00    +0.000 C 
ATOM     22  C   UNL     1      -3.121  11.510  17.392  0.00  0.00    +0.000 C 
BRANCH  21  23
ATOM     23  S   UNL     1      -4.144  12.925  19.548  0.00  0.00    +0.000 S 
BRANCH  23  24
ATOM     24  C   UNL     1      -5.569  12.187  20.189  0.00  0.00    +0.000 A 
ATOM     25  N   UNL     1      -5.828  11.956  21.456  0.00  0.00    +0.000 NA
ATOM     26  N   UNL     1      -7.062  11.348  21.528  0.00  0.00    +0.000 NA
ATOM     27  C   UNL     1      -7.520  11.233  20.302  0.00  0.00    +0.000 A 
ATOM     28  N   UNL     1      -6.610  11.748  19.425  0.00  0.00    +0.000 N 
ATOM     29  C   UNL     1      -6.754  11.769  17.993  0.00  0.00    +0.000 C 
ENDBRANCH  23  24
ENDBRANCH  21  23
ENDBRANCH   5  21
TORSDOF 6
ENDMDL
MODEL 6
REMARK VINA RESULT:      -7.9      5.758      9.890
REMARK  Name = 
REMARK  9 active torsions:
REMARK  status: ('A' for Active; 'I' for Inactive)
REMARK    1  A    between atoms: C_1  and  C_2
REMARK    2  A    between atoms: C_5  and  C_6
REMARK    3  A    between atoms: N_8  and  C_9
REMARK    4  A    between atoms: C_13  and  C_14
REMARK    5  A    between atoms: C_14  and  C_15
REMARK    6  A    between atoms: C_14  and  S_16
REMARK    7  A    between atoms: S_16  and  C_17
REMARK    8  A    between atoms: N_21  and  C_22
REMARK    9  A    between atoms: C_25  and  C_26
REMARK                            x       y       z     vdW  Elec       q    Type
REMARK                         _______ _______ _______ _____ _____    ______ ____
ROOT
ATOM      1  C   UNL     1       1.449   8.568  20.099  0.00  0.00    +0.000 A 
ATOM      2  C   UNL     1       1.185   8.247  21.431  0.00  0.00    +0.000 A 
ATOM      3  C   UNL     1       0.383   9.066  22.223  0.00  0.00    +0.000 A 
ATOM      4  C   UNL     1      -0.174  10.224  21.689  0.00  0.00    +0.000 A 
ATOM      5  C   UNL     1       0.069  10.587  20.352  0.00  0.00    +0.000 A 
ATOM      6  C   UNL     1       0.904   9.752  19.571  0.00  0.00    +0.000 A 
ENDROOT
BRANCH   1   9
ATOM      7  C   UNL     1       2.408   6.369  19.388  0.00  0.00    +0.000 C 
ATOM      8  O   UNL     1       1.848   5.643  20.204  0.00  0.00    +0.000 OA
ATOM      9  N   UNL     1       2.252   7.746  19.270  0.00  0.00    +0.000 N 
ATOM     10  H   UNL     1       2.710   8.165  18.465  0.00  0.00    +0.000 HD
BRANCH   7  15
ATOM     11  C   UNL     1       5.881   3.819  15.598  0.00  0.00    +0.000 C 
ATOM     12  C   UNL     1       5.008   4.561  16.569  0.00  0.00    +0.000 A 
ATOM     13  C   UNL     1       3.760   4.029  16.917  0.00  0.00    +0.000 A 
ATOM     14  N   UNL     1       2.905   4.571  17.815  0.00  0.00    +0.000 NA
ATOM     15  C   UNL     1       3.313   5.733  18.378  0.00  0.00    +0.000 A 
ATOM     16  C   UNL     1       4.535   6.342  18.093  0.00  0.00    +0.000 A 
ATOM     17  C   UNL     1       5.431   5.753  17.188  0.00  0.00    +0.000 A 
BRANCH  17  18
ATOM     18  C   UNL     1       6.821   6.344  17.020  0.00  0.00    +0.000 C 
ATOM     19  C   UNL     1       7.202   7.703  17.549  0.00  0.00    +0.000 C 
ATOM     20  C   UNL     1       7.740   6.478  18.216  0.00  0.00    +0.000 C 
ENDBRANCH  17  18
ENDBRANCH   7  15
ENDBRANCH   1   9
BRANCH   5  21
ATOM     21  C   UNL     1      -0.523  11.871  19.772  0.00  0.00    +0.000 C 
ATOM     22  C   UNL     1      -1.748  11.550  18.908  0.00  0.00    +0.000 C 
BRANCH  21  23
ATOM     23  S   UNL     1       0.726  12.798  18.778  0.00  0.00    +0.000 S 
BRANCH  23  24
ATOM     24  C   UNL     1       1.711  13.496  20.015  0.00  0.00    +0.000 A 
ATOM     25  N   UNL     1       1.430  13.556  21.297  0.00  0.00    +0.000 NA
ATOM     26  N   UNL     1       2.474  14.197  21.926  0.00  0.00    +0.000 NA
ATOM     27  C   UNL     1       3.362  14.503  21.008  0.00  0.00    +0.000 A 
ATOM     28  N   UNL     1       2.922  14.081  19.788  0.00  0.00    +0.000 N 
ATOM     29  C   UNL     1       3.616  14.268  18.541  0.00  0.00    +0.000 C 
ENDBRANCH  23  24
ENDBRANCH  21  23
ENDBRANCH   5  21
TORSDOF 6
ENDMDL
MODEL 7
REMARK VINA RESULT:      -7.9      6.074     10.088
REMARK  Name = 
REMARK  9 active torsions:
REMARK  status: ('A' for Active; 'I' for Inactive)
REMARK    1  A    between atoms: C_1  and  C_2
REMARK    2  A    between atoms: C_5  and  C_6
REMARK    3  A    between atoms: N_8  and  C_9
REMARK    4  A    between atoms: C_13  and  C_14
REMARK    5  A    between atoms: C_14  and  C_15
REMARK    6  A    between atoms: C_14  and  S_16
REMARK    7  A    between atoms: S_16  and  C_17
REMARK    8  A    between atoms: N_21  and  C_22
REMARK    9  A    between atoms: C_25  and  C_26
REMARK                            x       y       z     vdW  Elec       q    Type
REMARK                         _______ _______ _______ _____ _____    ______ ____
ROOT
ATOM      1  C   UNL     1       1.620   8.441  19.896  0.00  0.00    +0.000 A 
ATOM      2  C   UNL     1       1.431   8.183  21.254  0.00  0.00    +0.000 A 
ATOM      3  C   UNL     1       0.542   8.941  22.013  0.00  0.00    +0.000 A 
ATOM      4  C   UNL     1      -0.177   9.974  21.421  0.00  0.00    +0.000 A 
ATOM      5  C   UNL     1      -0.014  10.271  20.056  0.00  0.00    +0.000 A 
ATOM      6  C   UNL     1       0.910   9.502  19.307  0.00  0.00    +0.000 A 
ENDROOT
BRANCH   1   9
ATOM      7  C   UNL     1       2.590   6.290  19.065  0.00  0.00    +0.000 C 
ATOM      8  O   UNL     1       1.880   5.506  19.689  0.00  0.00    +0.000 OA
ATOM      9  N   UNL     1       2.510   7.678  19.100  0.00  0.00    +0.000 N 
ATOM     10  H   UNL     1       3.104   8.162  18.432  0.00  0.00    +0.000 HD
BRANCH   7  15
ATOM     11  C   UNL     1       6.522   4.015  15.559  0.00  0.00    +0.000 C 
ATOM     12  C   UNL     1       5.527   4.687  16.461  0.00  0.00    +0.000 A 
ATOM     13  C   UNL     1       4.285   4.080  16.686  0.00  0.00    +0.000 A 
ATOM     14  N   UNL     1       3.324   4.555  17.513  0.00  0.00    +0.000 NA
ATOM     15  C   UNL     1       3.615   5.726  18.129  0.00  0.00    +0.000 A 
ATOM     16  C   UNL     1       4.821   6.406  17.965  0.00  0.00    +0.000 A 
ATOM     17  C   UNL     1       5.826   5.887  17.135  0.00  0.00    +0.000 A 
BRANCH  17  18
ATOM     18  C   UNL     1       7.189   6.557  17.101  0.00  0.00    +0.000 C 
ATOM     19  C   UNL     1       7.425   7.960  17.599  0.00  0.00    +0.000 C 
ATOM     20  C   UNL     1       7.947   6.802  18.389  0.00  0.00    +0.000 C 
ENDBRANCH  17  18
ENDBRANCH   7  15
ENDBRANCH   1   9
BRANCH   5  21
ATOM     21  C   UNL     1      -0.787  11.421  19.409  0.00  0.00    +0.000 C 
ATOM     22  C   UNL     1      -1.685  10.893  18.286  0.00  0.00    +0.000 C 
BRANCH  21  23
ATOM     23  S   UNL     1       0.357  12.712  18.751  0.00  0.00    +0.000 S 
BRANCH  23  24
ATOM     24  C   UNL     1       0.756  13.591  20.184  0.00  0.00    +0.000 A 
ATOM     25  N   UNL     1       1.698  13.290  21.049  0.00  0.00    +0.000 NA
ATOM     26  N   UNL     1       1.674  14.242  22.045  0.00  0.00    +0.000 NA
ATOM     27  C   UNL     1       0.721  15.098  21.752  0.00  0.00    +0.000 A 
ATOM     28  N   UNL     1       0.115  14.726  20.587  0.00  0.00    +0.000 N 
ATOM     29  C   UNL     1      -0.992  15.407  19.971  0.00  0.00    +0.000 C 
ENDBRANCH  23  24
ENDBRANCH  21  23
ENDBRANCH   5  21
TORSDOF 6
ENDMDL
MODEL 8
REMARK VINA RESULT:      -7.9      7.293     10.748
REMARK  Name = 
REMARK  9 active torsions:
REMARK  status: ('A' for Active; 'I' for Inactive)
REMARK    1  A    between atoms: C_1  and  C_2
REMARK    2  A    between atoms: C_5  and  C_6
REMARK    3  A    between atoms: N_8  and  C_9
REMARK    4  A    between atoms: C_13  and  C_14
REMARK    5  A    between atoms: C_14  and  C_15
REMARK    6  A    between atoms: C_14  and  S_16
REMARK    7  A    between atoms: S_16  and  C_17
REMARK    8  A    between atoms: N_21  and  C_22
REMARK    9  A    between atoms: C_25  and  C_26
REMARK                            x       y       z     vdW  Elec       q    Type
REMARK                         _______ _______ _______ _____ _____    ______ ____
ROOT
ATOM      1  C   UNL     1       1.087   9.245  20.054  0.00  0.00    +0.000 A 
ATOM      2  C   UNL     1       0.937   9.102  21.435  0.00  0.00    +0.000 A 
ATOM      3  C   UNL     1       0.113   9.958  22.161  0.00  0.00    +0.000 A 
ATOM      4  C   UNL     1      -0.582  10.975  21.513  0.00  0.00    +0.000 A 
ATOM      5  C   UNL     1      -0.457  11.157  20.125  0.00  0.00    +0.000 A 
ATOM      6  C   UNL     1       0.402  10.290  19.408  0.00  0.00    +0.000 A 
ENDROOT
BRANCH   1   9
ATOM      7  C   UNL     1       2.208   7.057  19.593  0.00  0.00    +0.000 C 
ATOM      8  O   UNL     1       1.775   6.415  20.546  0.00  0.00    +0.000 OA
ATOM      9  N   UNL     1       1.911   8.382  19.291  0.00  0.00    +0.000 N 
ATOM     10  H   UNL     1       2.273   8.713  18.401  0.00  0.00    +0.000 HD
BRANCH   7  15
ATOM     11  C   UNL     1       5.564   4.435  15.747  0.00  0.00    +0.000 C 
ATOM     12  C   UNL     1       4.693   5.053  16.803  0.00  0.00    +0.000 A 
ATOM     13  C   UNL     1       4.609   6.447  16.895  0.00  0.00    +0.000 A 
ATOM     14  N   UNL     1       3.824   7.125  17.765  0.00  0.00    +0.000 NA
ATOM     15  C   UNL     1       3.102   6.357  18.616  0.00  0.00    +0.000 A 
ATOM     16  C   UNL     1       3.124   4.963  18.604  0.00  0.00    +0.000 A 
ATOM     17  C   UNL     1       3.911   4.269  17.673  0.00  0.00    +0.000 A 
BRANCH  17  18
ATOM     18  C   UNL     1       3.791   2.758  17.570  0.00  0.00    +0.000 C 
ATOM     19  C   UNL     1       3.489   1.877  18.756  0.00  0.00    +0.000 C 
ATOM     20  C   UNL     1       2.439   2.091  17.713  0.00  0.00    +0.000 C 
ENDBRANCH  17  18
ENDBRANCH   7  15
ENDBRANCH   1   9
BRANCH   5  21
ATOM     21  C   UNL     1      -1.202  12.289  19.416  0.00  0.00    +0.000 C 
ATOM     22  C   UNL     1      -1.020  13.605  20.179  0.00  0.00    +0.000 C 
BRANCH  21  23
ATOM     23  S   UNL     1      -2.999  11.904  19.238  0.00  0.00    +0.000 S 
BRANCH  23  24
ATOM     24  C   UNL     1      -3.076  11.337  17.607  0.00  0.00    +0.000 A 
ATOM     25  N   UNL     1      -2.122  10.722  16.947  0.00  0.00    +0.000 NA
ATOM     26  N   UNL     1      -2.593  10.453  15.680  0.00  0.00    +0.000 NA
ATOM     27  C   UNL     1      -3.823  10.910  15.610  0.00  0.00    +0.000 A 
ATOM     28  N   UNL     1      -4.168  11.477  16.802  0.00  0.00    +0.000 N 
ATOM     29  C   UNL     1      -5.429  12.108  17.089  0.00  0.00    +0.000 C 
ENDBRANCH  23  24
ENDBRANCH  21  23
ENDBRANCH   5  21
TORSDOF 6
ENDMDL
MODEL 9
REMARK VINA RESULT:      -7.8      8.691     11.902
REMARK  Name = 
REMARK  9 active torsions:
REMARK  status: ('A' for Active; 'I' for Inactive)
REMARK    1  A    between atoms: C_1  and  C_2
REMARK    2  A    between atoms: C_5  and  C_6
REMARK    3  A    between atoms: N_8  and  C_9
REMARK    4  A    between atoms: C_13  and  C_14
REMARK    5  A    between atoms: C_14  and  C_15
REMARK    6  A    between atoms: C_14  and  S_16
REMARK    7  A    between atoms: S_16  and  C_17
REMARK    8  A    between atoms: N_21  and  C_22
REMARK    9  A    between atoms: C_25  and  C_26
REMARK                            x       y       z     vdW  Elec       q    Type
REMARK                         _______ _______ _______ _____ _____    ______ ____
ROOT
ATOM      1  C   UNL     1       0.129  10.158  19.367  0.00  0.00    +0.000 A 
ATOM      2  C   UNL     1       0.440  11.314  20.086  0.00  0.00    +0.000 A 
ATOM      3  C   UNL     1      -0.464  12.370  20.176  0.00  0.00    +0.000 A 
ATOM      4  C   UNL     1      -1.703  12.284  19.548  0.00  0.00    +0.000 A 
ATOM      5  C   UNL     1      -2.056  11.140  18.811  0.00  0.00    +0.000 A 
ATOM      6  C   UNL     1      -1.114  10.086  18.714  0.00  0.00    +0.000 A 
ENDROOT
BRANCH   1   9
ATOM      7  C   UNL     1       1.908   8.824  18.221  0.00  0.00    +0.000 C 
ATOM      8  O   UNL     1       2.075   9.536  17.234  0.00  0.00    +0.000 OA
ATOM      9  N   UNL     1       1.027   9.066  19.269  0.00  0.00    +0.000 N 
ATOM     10  H   UNL     1       1.104   8.427  20.055  0.00  0.00    +0.000 HD
BRANCH   7  15
ATOM     11  C   UNL     1       5.136   4.098  18.629  0.00  0.00    +0.000 C 
ATOM     12  C   UNL     1       4.269   5.323  18.603  0.00  0.00    +0.000 A 
ATOM     13  C   UNL     1       4.558   6.351  17.697  0.00  0.00    +0.000 A 
ATOM     14  N   UNL     1       3.827   7.480  17.539  0.00  0.00    +0.000 NA
ATOM     15  C   UNL     1       2.758   7.599  18.362  0.00  0.00    +0.000 A 
ATOM     16  C   UNL     1       2.393   6.632  19.298  0.00  0.00    +0.000 A 
ATOM     17  C   UNL     1       3.134   5.449  19.429  0.00  0.00    +0.000 A 
BRANCH  17  18
ATOM     18  C   UNL     1       2.623   4.342  20.335  0.00  0.00    +0.000 C 
ATOM     19  C   UNL     1       1.167   4.176  20.686  0.00  0.00    +0.000 C 
ATOM     20  C   UNL     1       1.814   3.199  19.758  0.00  0.00    +0.000 C 
ENDBRANCH  17  18
ENDBRANCH   7  15
ENDBRANCH   1   9
BRANCH   5  21
ATOM     21  C   UNL     1      -3.407  11.054  18.101  0.00  0.00    +0.000 C 
ATOM     22  C   UNL     1      -3.231  11.269  16.594  0.00  0.00    +0.000 C 
BRANCH  21  23
ATOM     23  S   UNL     1      -4.603  12.287  18.780  0.00  0.00    +0.000 S 
BRANCH  23  24
ATOM     24  C   UNL     1      -5.879  11.265  19.341  0.00  0.00    +0.000 A 
ATOM     25  N   UNL     1      -6.308  10.164  18.768  0.00  0.00    +0.000 NA
ATOM     26  N   UNL     1      -7.339   9.666  19.534  0.00  0.00    +0.000 NA
ATOM     27  C   UNL     1      -7.502  10.476  20.554  0.00  0.00    +0.000 A 
ATOM     28  N   UNL     1      -6.603  11.499  20.473  0.00  0.00    +0.000 N 
ATOM     29  C   UNL     1      -6.503  12.595  21.400  0.00  0.00    +0.000 C 
ENDBRANCH  23  24
ENDBRANCH  21  23
ENDBRANCH   5  21
TORSDOF 6
ENDMDL
