MODEL 1
REMARK VINA RESULT:      -9.9      0.000      0.000
REMARK  Name = 
REMARK  8 active torsions:
REMARK  status: ('A' for Active; 'I' for Inactive)
REMARK    1  A    between atoms: C_1  and  N_2
REMARK    2  A    between atoms: C_6  and  C_7
REMARK    3  A    between atoms: C_7  and  C_9
REMARK    4  A    between atoms: C_9  and  C_10
REMARK    5  A    between atoms: C_14  and  N_15
REMARK    6  A    between atoms: C_20  and  C_21
REMARK    7  A    between atoms: C_21  and  N_22
REMARK    8  A    between atoms: C_32  and  C_33
REMARK                            x       y       z     vdW  Elec       q    Type
REMARK                         _______ _______ _______ _____ _____    ______ ____
ROOT
ATOM      1  N   UNL     1       2.140   7.680  19.400  0.00  0.00    +0.000 N 
ATOM      2  C   UNL     1       1.417   8.008  20.594  0.00  0.00    +0.000 C 
ATOM      3  C   UNL     1       0.743   9.286  20.301  0.00  0.00    +0.000 A 
ATOM      4  C   UNL     1       1.061   9.734  19.025  0.00  0.00    +0.000 A 
ATOM      5  C   UNL     1       0.561  10.967  18.575  0.00  0.00    +0.000 A 
ATOM      6  C   UNL     1      -0.329  11.700  19.417  0.00  0.00    +0.000 A 
ATOM      7  C   UNL     1      -0.661  11.153  20.688  0.00  0.00    +0.000 A 
ATOM      8  C   UNL     1      -0.086   9.973  21.173  0.00  0.00    +0.000 A 
ATOM      9  C   UNL     1       2.000   8.702  18.431  0.00  0.00    +0.000 C 
ATOM     10  O   UNL     1       2.495   8.810  17.332  0.00  0.00    +0.000 OA
ENDROOT
BRANCH   1  15
ATOM     11  C   UNL     1       5.120   5.385  18.886  0.00  0.00    +0.000 A 
ATOM     12  C   UNL     1       4.537   4.174  19.286  0.00  0.00    +0.000 A 
ATOM     13  C   UNL     1       3.201   4.097  19.722  0.00  0.00    +0.000 A 
ATOM     14  C   UNL     1       2.379   5.234  19.781  0.00  0.00    +0.000 A 
ATOM     15  C   UNL     1       2.891   6.465  19.402  0.00  0.00    +0.000 A 
ATOM     16  C   UNL     1       4.252   6.495  18.973  0.00  0.00    +0.000 A 
BRANCH  11  17
ATOM     17  C   UNL     1       6.639   5.556  18.281  0.00  0.00    +0.000 C 
ATOM     18  C   UNL     1       7.694   5.860  19.385  0.00  0.00    +0.000 C 
ATOM     19  O   UNL     1       8.033   7.129  18.795  0.00  0.00    +0.000 OA
ATOM     20  C   UNL     1       7.088   6.925  17.722  0.00  0.00    +0.000 C 
BRANCH  17  21
ATOM     21  C   UNL     1       7.116   4.374  17.405  0.00  0.00    +0.000 C 
ATOM     22  F   UNL     1       8.454   4.170  17.632  0.00  0.00    +0.000 F 
BRANCH  21  28
ATOM     23  C   UNL     1       4.484   3.579  15.768  0.00  0.00    +0.000 C 
ATOM     24  N   UNL     1       5.690   4.189  15.275  0.00  0.00    +0.000 N 
ATOM     25  C   UNL     1       5.866   4.611  13.991  0.00  0.00    +0.000 A 
ATOM     26  N   UNL     1       7.064   5.114  13.852  0.00  0.00    +0.000 NA
ATOM     27  N   UNL     1       7.683   5.051  15.074  0.00  0.00    +0.000 NA
ATOM     28  C   UNL     1       6.858   4.497  15.939  0.00  0.00    +0.000 A 
ENDBRANCH  21  28
ENDBRANCH  17  21
ENDBRANCH  11  17
ENDBRANCH   1  15
BRANCH   8  29
ATOM     29  C   UNL     1      -0.271   9.536  22.601  0.00  0.00    +0.000 C 
ATOM     30  F   UNL     1       0.896   9.403  23.295  0.00  0.00    +0.000 F 
ATOM     31  F   UNL     1      -1.014  10.416  23.326  0.00  0.00    +0.000 F 
ATOM     32  F   UNL     1      -0.892   8.332  22.702  0.00  0.00    +0.000 F 
ENDBRANCH   8  29
BRANCH   6  33
ATOM     33  C   UNL     1      -0.806  13.145  19.176  0.00  0.00    +0.000 C 
BRANCH  33  34
ATOM     34  N   UNL     1      -0.543  14.147  20.209  0.00  0.00    +0.000 NA
ATOM     35  C   UNL     1      -0.858  15.544  19.888  0.00  0.00    +0.000 C 
ATOM     36  C   UNL     1      -0.283  16.292  21.107  0.00  0.00    +0.000 C 
ATOM     37  C   UNL     1       0.737  15.331  21.710  0.00  0.00    +0.000 C 
ATOM     38  C   UNL     1       0.869  14.243  20.646  0.00  0.00    +0.000 C 
ATOM     39  C   UNL     1       1.864  14.689  19.555  0.00  0.00    +0.000 C 
ATOM     40  C   UNL     1       1.339  15.762  18.598  0.00  0.00    +0.000 C 
ATOM     41  F   UNL     1       1.932  16.948  18.935  0.00  0.00    +0.000 F 
ATOM     42  C   UNL     1      -0.172  15.989  18.589  0.00  0.00    +0.000 C 
ENDBRANCH  33  34
ENDBRANCH   6  33
TORSDOF 7
ENDMDL
MODEL 2
REMARK VINA RESULT:      -9.9      0.651      1.476
REMARK  Name = 
REMARK  8 active torsions:
REMARK  status: ('A' for Active; 'I' for Inactive)
REMARK    1  A    between atoms: C_1  and  N_2
REMARK    2  A    between atoms: C_6  and  C_7
REMARK    3  A    between atoms: C_7  and  C_9
REMARK    4  A    between atoms: C_9  and  C_10
REMARK    5  A    between atoms: C_14  and  N_15
REMARK    6  A    between atoms: C_20  and  C_21
REMARK    7  A    between atoms: C_21  and  N_22
REMARK    8  A    between atoms: C_32  and  C_33
REMARK                            x       y       z     vdW  Elec       q    Type
REMARK                         _______ _______ _______ _____ _____    ______ ____
ROOT
ATOM      1  N   UNL     1       2.145   7.684  19.439  0.00  0.00    +0.000 N 
ATOM      2  C   UNL     1       1.425   8.029  20.630  0.00  0.00    +0.000 C 
ATOM      3  C   UNL     1       0.754   9.305  20.323  0.00  0.00    +0.000 A 
ATOM      4  C   UNL     1       1.071   9.737  19.041  0.00  0.00    +0.000 A 
ATOM      5  C   UNL     1       0.573  10.965  18.577  0.00  0.00    +0.000 A 
ATOM      6  C   UNL     1      -0.313  11.711  19.410  0.00  0.00    +0.000 A 
ATOM      7  C   UNL     1      -0.643  11.181  20.689  0.00  0.00    +0.000 A 
ATOM      8  C   UNL     1      -0.071  10.005  21.187  0.00  0.00    +0.000 A 
ATOM      9  C   UNL     1       2.006   8.695  18.457  0.00  0.00    +0.000 C 
ATOM     10  O   UNL     1       2.499   8.787  17.357  0.00  0.00    +0.000 OA
ENDROOT
BRANCH   1  15
ATOM     11  C   UNL     1       5.115   5.372  18.942  0.00  0.00    +0.000 A 
ATOM     12  C   UNL     1       4.531   4.169  19.363  0.00  0.00    +0.000 A 
ATOM     13  C   UNL     1       3.197   4.103  19.808  0.00  0.00    +0.000 A 
ATOM     14  C   UNL     1       2.379   5.243  19.855  0.00  0.00    +0.000 A 
ATOM     15  C   UNL     1       2.892   6.467  19.455  0.00  0.00    +0.000 A 
ATOM     16  C   UNL     1       4.250   6.487  19.017  0.00  0.00    +0.000 A 
BRANCH  11  17
ATOM     17  C   UNL     1       6.631   5.530  18.325  0.00  0.00    +0.000 C 
ATOM     18  C   UNL     1       7.699   5.811  19.423  0.00  0.00    +0.000 C 
ATOM     19  O   UNL     1       8.049   7.081  18.841  0.00  0.00    +0.000 OA
ATOM     20  C   UNL     1       7.092   6.899  17.774  0.00  0.00    +0.000 C 
BRANCH  17  21
ATOM     21  C   UNL     1       7.086   4.350  17.434  0.00  0.00    +0.000 C 
ATOM     22  F   UNL     1       8.419   4.119  17.657  0.00  0.00    +0.000 F 
BRANCH  21  28
ATOM     23  C   UNL     1       4.406   3.713  15.806  0.00  0.00    +0.000 C 
ATOM     24  N   UNL     1       5.642   4.258  15.310  0.00  0.00    +0.000 N 
ATOM     25  C   UNL     1       5.836   4.676  14.028  0.00  0.00    +0.000 A 
ATOM     26  N   UNL     1       7.060   5.112  13.886  0.00  0.00    +0.000 NA
ATOM     27  N   UNL     1       7.679   5.008  15.105  0.00  0.00    +0.000 NA
ATOM     28  C   UNL     1       6.828   4.495  15.971  0.00  0.00    +0.000 A 
ENDBRANCH  21  28
ENDBRANCH  17  21
ENDBRANCH  11  17
ENDBRANCH   1  15
BRANCH   8  29
ATOM     29  C   UNL     1      -0.255   9.586  22.621  0.00  0.00    +0.000 C 
ATOM     30  F   UNL     1      -0.904   8.396  22.773  0.00  0.00    +0.000 F 
ATOM     31  F   UNL     1       0.928   9.427  23.276  0.00  0.00    +0.000 F 
ATOM     32  F   UNL     1      -0.974  10.486  23.340  0.00  0.00    +0.000 F 
ENDBRANCH   8  29
BRANCH   6  33
ATOM     33  C   UNL     1      -0.786  13.154  19.153  0.00  0.00    +0.000 C 
BRANCH  33  34
ATOM     34  N   UNL     1       0.223  14.194  18.955  0.00  0.00    +0.000 NA
ATOM     35  C   UNL     1       1.238  14.358  20.002  0.00  0.00    +0.000 C 
ATOM     36  C   UNL     1       1.975  15.631  19.541  0.00  0.00    +0.000 C 
ATOM     37  C   UNL     1       0.992  16.335  18.610  0.00  0.00    +0.000 C 
ATOM     38  C   UNL     1      -0.311  15.571  18.829  0.00  0.00    +0.000 C 
ATOM     39  C   UNL     1      -1.037  16.110  20.078  0.00  0.00    +0.000 C 
ATOM     40  C   UNL     1      -0.410  15.709  21.416  0.00  0.00    +0.000 C 
ATOM     41  F   UNL     1       0.236  16.804  21.920  0.00  0.00    +0.000 F 
ATOM     42  C   UNL     1       0.594  14.557  21.381  0.00  0.00    +0.000 C 
ENDBRANCH  33  34
ENDBRANCH   6  33
TORSDOF 7
ENDMDL
MODEL 3
REMARK VINA RESULT:      -9.5      1.621      2.746
REMARK  Name = 
REMARK  8 active torsions:
REMARK  status: ('A' for Active; 'I' for Inactive)
REMARK    1  A    between atoms: C_1  and  N_2
REMARK    2  A    between atoms: C_6  and  C_7
REMARK    3  A    between atoms: C_7  and  C_9
REMARK    4  A    between atoms: C_9  and  C_10
REMARK    5  A    between atoms: C_14  and  N_15
REMARK    6  A    between atoms: C_20  and  C_21
REMARK    7  A    between atoms: C_21  and  N_22
REMARK    8  A    between atoms: C_32  and  C_33
REMARK                            x       y       z     vdW  Elec       q    Type
REMARK                         _______ _______ _______ _____ _____    ______ ____
ROOT
ATOM      1  N   UNL     1       2.277   7.555  19.163  0.00  0.00    +0.000 N 
ATOM      2  C   UNL     1       1.613   7.885  20.391  0.00  0.00    +0.000 C 
ATOM      3  C   UNL     1       0.980   9.194  20.150  0.00  0.00    +0.000 A 
ATOM      4  C   UNL     1       1.268   9.658  18.872  0.00  0.00    +0.000 A 
ATOM      5  C   UNL     1       0.800  10.919  18.468  0.00  0.00    +0.000 A 
ATOM      6  C   UNL     1      -0.027  11.667  19.357  0.00  0.00    +0.000 A 
ATOM      7  C   UNL     1      -0.333  11.106  20.628  0.00  0.00    +0.000 A 
ATOM      8  C   UNL     1       0.212   9.894  21.067  0.00  0.00    +0.000 A 
ATOM      9  C   UNL     1       2.142   8.603  18.221  0.00  0.00    +0.000 C 
ATOM     10  O   UNL     1       2.599   8.716  17.107  0.00  0.00    +0.000 OA
ENDROOT
BRANCH   1  15
ATOM     11  C   UNL     1       4.691   4.929  17.865  0.00  0.00    +0.000 A 
ATOM     12  C   UNL     1       4.439   3.915  18.801  0.00  0.00    +0.000 A 
ATOM     13  C   UNL     1       3.506   4.077  19.842  0.00  0.00    +0.000 A 
ATOM     14  C   UNL     1       2.778   5.267  20.000  0.00  0.00    +0.000 A 
ATOM     15  C   UNL     1       2.978   6.312  19.112  0.00  0.00    +0.000 A 
ATOM     16  C   UNL     1       3.938   6.105  18.076  0.00  0.00    +0.000 A 
BRANCH  11  17
ATOM     17  C   UNL     1       5.693   4.799  16.568  0.00  0.00    +0.000 C 
ATOM     18  C   UNL     1       5.241   5.685  15.370  0.00  0.00    +0.000 C 
ATOM     19  O   UNL     1       5.070   4.540  14.512  0.00  0.00    +0.000 OA
ATOM     20  C   UNL     1       5.493   3.643  15.562  0.00  0.00    +0.000 C 
BRANCH  17  21
ATOM     21  C   UNL     1       7.185   5.058  16.883  0.00  0.00    +0.000 C 
ATOM     22  F   UNL     1       7.638   4.066  17.715  0.00  0.00    +0.000 F 
BRANCH  21  28
ATOM     23  C   UNL     1       8.144   5.780  19.849  0.00  0.00    +0.000 C 
ATOM     24  N   UNL     1       7.971   6.665  18.728  0.00  0.00    +0.000 N 
ATOM     25  C   UNL     1       8.281   7.992  18.744  0.00  0.00    +0.000 A 
ATOM     26  N   UNL     1       8.005   8.524  17.582  0.00  0.00    +0.000 NA
ATOM     27  N   UNL     1       7.533   7.524  16.772  0.00  0.00    +0.000 NA
ATOM     28  C   UNL     1       7.512   6.397  17.456  0.00  0.00    +0.000 A 
ENDBRANCH  21  28
ENDBRANCH  17  21
ENDBRANCH  11  17
ENDBRANCH   1  15
BRANCH   8  29
ATOM     29  C   UNL     1       0.064   9.433  22.492  0.00  0.00    +0.000 C 
ATOM     30  F   UNL     1      -0.659   8.284  22.631  0.00  0.00    +0.000 F 
ATOM     31  F   UNL     1       1.261   9.170  23.085  0.00  0.00    +0.000 F 
ATOM     32  F   UNL     1      -0.560  10.350  23.275  0.00  0.00    +0.000 F 
ENDBRANCH   8  29
BRANCH   6  33
ATOM     33  C   UNL     1      -0.455  13.135  19.165  0.00  0.00    +0.000 C 
BRANCH  33  34
ATOM     34  N   UNL     1       0.584  14.142  18.952  0.00  0.00    +0.000 NA
ATOM     35  C   UNL     1       1.620  14.271  19.982  0.00  0.00    +0.000 C 
ATOM     36  C   UNL     1       2.391  15.521  19.510  0.00  0.00    +0.000 C 
ATOM     37  C   UNL     1       1.417  16.257  18.595  0.00  0.00    +0.000 C 
ATOM     38  C   UNL     1       0.093  15.535  18.833  0.00  0.00    +0.000 C 
ATOM     39  C   UNL     1      -0.596  16.097  20.094  0.00  0.00    +0.000 C 
ATOM     40  C   UNL     1       0.039  15.674  21.422  0.00  0.00    +0.000 C 
ATOM     41  F   UNL     1       0.728  16.748  21.916  0.00  0.00    +0.000 F 
ATOM     42  C   UNL     1       1.004  14.491  21.371  0.00  0.00    +0.000 C 
ENDBRANCH  33  34
ENDBRANCH   6  33
TORSDOF 7
ENDMDL
MODEL 4
REMARK VINA RESULT:      -9.5      1.501      2.317
REMARK  Name = 
REMARK  8 active torsions:
REMARK  status: ('A' for Active; 'I' for Inactive)
REMARK    1  A    between atoms: C_1  and  N_2
REMARK    2  A    between atoms: C_6  and  C_7
REMARK    3  A    between atoms: C_7  and  C_9
REMARK    4  A    between atoms: C_9  and  C_10
REMARK    5  A    between atoms: C_14  and  N_15
REMARK    6  A    between atoms: C_20  and  C_21
REMARK    7  A    between atoms: C_21  and  N_22
REMARK    8  A    between atoms: C_32  and  C_33
REMARK                            x       y       z     vdW  Elec       q    Type
REMARK                         _______ _______ _______ _____ _____    ______ ____
ROOT
ATOM      1  N   UNL     1       2.287   7.562  19.151  0.00  0.00    +0.000 N 
ATOM      2  C   UNL     1       1.612   7.884  20.375  0.00  0.00    +0.000 C 
ATOM      3  C   UNL     1       0.990   9.199  20.141  0.00  0.00    +0.000 A 
ATOM      4  C   UNL     1       1.294   9.674  18.871  0.00  0.00    +0.000 A 
ATOM      5  C   UNL     1       0.838  10.942  18.474  0.00  0.00    +0.000 A 
ATOM      6  C   UNL     1       0.006  11.686  19.363  0.00  0.00    +0.000 A 
ATOM      7  C   UNL     1      -0.317  11.114  20.625  0.00  0.00    +0.000 A 
ATOM      8  C   UNL     1       0.216   9.893  21.056  0.00  0.00    +0.000 A 
ATOM      9  C   UNL     1       2.169   8.621  18.218  0.00  0.00    +0.000 C 
ATOM     10  O   UNL     1       2.638   8.742  17.111  0.00  0.00    +0.000 OA
ENDROOT
BRANCH   1  15
ATOM     11  C   UNL     1       4.689   4.929  17.842  0.00  0.00    +0.000 A 
ATOM     12  C   UNL     1       4.430   3.913  18.772  0.00  0.00    +0.000 A 
ATOM     13  C   UNL     1       3.496   4.074  19.813  0.00  0.00    +0.000 A 
ATOM     14  C   UNL     1       2.774   5.268  19.976  0.00  0.00    +0.000 A 
ATOM     15  C   UNL     1       2.981   6.316  19.094  0.00  0.00    +0.000 A 
ATOM     16  C   UNL     1       3.941   6.108  18.058  0.00  0.00    +0.000 A 
BRANCH  11  17
ATOM     17  C   UNL     1       5.692   4.800  16.545  0.00  0.00    +0.000 C 
ATOM     18  C   UNL     1       5.238   5.684  15.346  0.00  0.00    +0.000 C 
ATOM     19  O   UNL     1       5.069   4.539  14.490  0.00  0.00    +0.000 OA
ATOM     20  C   UNL     1       5.494   3.643  15.540  0.00  0.00    +0.000 C 
BRANCH  17  21
ATOM     21  C   UNL     1       7.183   5.063  16.861  0.00  0.00    +0.000 C 
ATOM     22  F   UNL     1       7.637   4.073  17.695  0.00  0.00    +0.000 F 
BRANCH  21  28
ATOM     23  C   UNL     1       8.104   5.796  19.836  0.00  0.00    +0.000 C 
ATOM     24  N   UNL     1       7.949   6.677  18.709  0.00  0.00    +0.000 N 
ATOM     25  C   UNL     1       8.263   8.002  18.723  0.00  0.00    +0.000 A 
ATOM     26  N   UNL     1       8.005   8.529  17.555  0.00  0.00    +0.000 NA
ATOM     27  N   UNL     1       7.540   7.527  16.743  0.00  0.00    +0.000 NA
ATOM     28  C   UNL     1       7.506   6.404  17.433  0.00  0.00    +0.000 A 
ENDBRANCH  21  28
ENDBRANCH  17  21
ENDBRANCH  11  17
ENDBRANCH   1  15
BRANCH   8  29
ATOM     29  C   UNL     1       0.050   9.419  22.475  0.00  0.00    +0.000 C 
ATOM     30  F   UNL     1       1.226   9.142  23.108  0.00  0.00    +0.000 F 
ATOM     31  F   UNL     1      -0.568  10.338  23.266  0.00  0.00    +0.000 F 
ATOM     32  F   UNL     1      -0.686   8.280  22.562  0.00  0.00    +0.000 F 
ENDBRANCH   8  29
BRANCH   6  33
ATOM     33  C   UNL     1      -0.411  13.158  19.182  0.00  0.00    +0.000 C 
BRANCH  33  34
ATOM     34  N   UNL     1      -0.121  14.103  20.259  0.00  0.00    +0.000 NA
ATOM     35  C   UNL     1      -0.591  15.483  20.091  0.00  0.00    +0.000 C 
ATOM     36  C   UNL     1       0.052  16.193  21.299  0.00  0.00    +0.000 C 
ATOM     37  C   UNL     1       1.215  15.293  21.706  0.00  0.00    +0.000 C 
ATOM     38  C   UNL     1       1.319  14.303  20.548  0.00  0.00    +0.000 C 
ATOM     39  C   UNL     1       2.139  14.921  19.397  0.00  0.00    +0.000 C 
ATOM     40  C   UNL     1       1.415  16.005  18.595  0.00  0.00    +0.000 C 
ATOM     41  F   UNL     1       1.936  17.215  18.962  0.00  0.00    +0.000 F 
ATOM     42  C   UNL     1      -0.101  16.085  18.767  0.00  0.00    +0.000 C 
ENDBRANCH  33  34
ENDBRANCH   6  33
TORSDOF 7
ENDMDL
MODEL 5
REMARK VINA RESULT:      -9.3      1.199      1.553
REMARK  Name = 
REMARK  8 active torsions:
REMARK  status: ('A' for Active; 'I' for Inactive)
REMARK    1  A    between atoms: C_1  and  N_2
REMARK    2  A    between atoms: C_6  and  C_7
REMARK    3  A    between atoms: C_7  and  C_9
REMARK    4  A    between atoms: C_9  and  C_10
REMARK    5  A    between atoms: C_14  and  N_15
REMARK    6  A    between atoms: C_20  and  C_21
REMARK    7  A    between atoms: C_21  and  N_22
REMARK    8  A    between atoms: C_32  and  C_33
REMARK                            x       y       z     vdW  Elec       q    Type
REMARK                         _______ _______ _______ _____ _____    ______ ____
ROOT
ATOM      1  N   UNL     1       2.072   7.672  19.012  0.00  0.00    +0.000 N 
ATOM      2  C   UNL     1       1.411   7.942  20.256  0.00  0.00    +0.000 C 
ATOM      3  C   UNL     1       0.931   9.332  20.146  0.00  0.00    +0.000 A 
ATOM      4  C   UNL     1       1.304   9.892  18.931  0.00  0.00    +0.000 A 
ATOM      5  C   UNL     1       0.988  11.233  18.656  0.00  0.00    +0.000 A 
ATOM      6  C   UNL     1       0.221  11.970  19.606  0.00  0.00    +0.000 A 
ATOM      7  C   UNL     1      -0.181  11.316  20.804  0.00  0.00    +0.000 A 
ATOM      8  C   UNL     1       0.216  10.011  21.119  0.00  0.00    +0.000 A 
ATOM      9  C   UNL     1       2.079   8.821  18.186  0.00  0.00    +0.000 C 
ATOM     10  O   UNL     1       2.578   8.999  17.099  0.00  0.00    +0.000 OA
ENDROOT
BRANCH   1  15
ATOM     11  C   UNL     1       4.532   5.032  17.834  0.00  0.00    +0.000 A 
ATOM     12  C   UNL     1       3.895   3.892  18.346  0.00  0.00    +0.000 A 
ATOM     13  C   UNL     1       2.689   3.973  19.068  0.00  0.00    +0.000 A 
ATOM     14  C   UNL     1       2.060   5.203  19.316  0.00  0.00    +0.000 A 
ATOM     15  C   UNL     1       2.635   6.371  18.840  0.00  0.00    +0.000 A 
ATOM     16  C   UNL     1       3.860   6.241  18.118  0.00  0.00    +0.000 A 
BRANCH  11  17
ATOM     17  C   UNL     1       5.890   5.028  16.906  0.00  0.00    +0.000 C 
ATOM     18  C   UNL     1       7.150   4.554  17.689  0.00  0.00    +0.000 C 
ATOM     19  O   UNL     1       7.819   5.813  17.490  0.00  0.00    +0.000 OA
ATOM     20  C   UNL     1       6.702   6.332  16.736  0.00  0.00    +0.000 C 
BRANCH  17  21
ATOM     21  C   UNL     1       5.760   4.234  15.585  0.00  0.00    +0.000 C 
ATOM     22  F   UNL     1       5.885   2.897  15.861  0.00  0.00    +0.000 F 
BRANCH  21  28
ATOM     23  C   UNL     1       5.726   3.343  12.512  0.00  0.00    +0.000 C 
ATOM     24  N   UNL     1       6.625   4.256  13.164  0.00  0.00    +0.000 N 
ATOM     25  C   UNL     1       7.591   4.972  12.523  0.00  0.00    +0.000 A 
ATOM     26  N   UNL     1       8.245   5.704  13.386  0.00  0.00    +0.000 NA
ATOM     27  N   UNL     1       7.681   5.493  14.618  0.00  0.00    +0.000 NA
ATOM     28  C   UNL     1       6.700   4.622  14.492  0.00  0.00    +0.000 A 
ENDBRANCH  21  28
ENDBRANCH  17  21
ENDBRANCH  11  17
ENDBRANCH   1  15
BRANCH   8  29
ATOM     29  C   UNL     1      -0.023   9.423  22.484  0.00  0.00    +0.000 C 
ATOM     30  F   UNL     1      -0.774  10.213  23.304  0.00  0.00    +0.000 F 
ATOM     31  F   UNL     1      -0.688   8.236  22.433  0.00  0.00    +0.000 F 
ATOM     32  F   UNL     1       1.130   9.189  23.161  0.00  0.00    +0.000 F 
ENDBRANCH   8  29
BRANCH   6  33
ATOM     33  C   UNL     1      -0.040  13.488  19.566  0.00  0.00    +0.000 C 
BRANCH  33  34
ATOM     34  N   UNL     1       0.712  14.350  20.477  0.00  0.00    +0.000 NA
ATOM     35  C   UNL     1       0.775  15.780  20.156  0.00  0.00    +0.000 C 
ATOM     36  C   UNL     1       1.779  16.303  21.202  0.00  0.00    +0.000 C 
ATOM     37  C   UNL     1       2.562  15.069  21.641  0.00  0.00    +0.000 C 
ATOM     38  C   UNL     1       2.146  14.006  20.627  0.00  0.00    +0.000 C 
ATOM     39  C   UNL     1       2.990  14.141  19.343  0.00  0.00    +0.000 C 
ATOM     40  C   UNL     1       2.632  15.336  18.455  0.00  0.00    +0.000 C 
ATOM     41  F   UNL     1       3.608  16.281  18.612  0.00  0.00    +0.000 F 
ATOM     42  C   UNL     1       1.289  16.011  18.728  0.00  0.00    +0.000 C 
ENDBRANCH  33  34
ENDBRANCH   6  33
TORSDOF 7
ENDMDL
MODEL 6
REMARK VINA RESULT:      -9.3      1.138      1.879
REMARK  Name = 
REMARK  8 active torsions:
REMARK  status: ('A' for Active; 'I' for Inactive)
REMARK    1  A    between atoms: C_1  and  N_2
REMARK    2  A    between atoms: C_6  and  C_7
REMARK    3  A    between atoms: C_7  and  C_9
REMARK    4  A    between atoms: C_9  and  C_10
REMARK    5  A    between atoms: C_14  and  N_15
REMARK    6  A    between atoms: C_20  and  C_21
REMARK    7  A    between atoms: C_21  and  N_22
REMARK    8  A    between atoms: C_32  and  C_33
REMARK                            x       y       z     vdW  Elec       q    Type
REMARK                         _______ _______ _______ _____ _____    ______ ____
ROOT
ATOM      1  N   UNL     1       2.034   7.695  19.131  0.00  0.00    +0.000 N 
ATOM      2  C   UNL     1       1.405   8.004  20.382  0.00  0.00    +0.000 C 
ATOM      3  C   UNL     1       0.846   9.357  20.211  0.00  0.00    +0.000 A 
ATOM      4  C   UNL     1       1.144   9.863  18.952  0.00  0.00    +0.000 A 
ATOM      5  C   UNL     1       0.745  11.166  18.613  0.00  0.00    +0.000 A 
ATOM      6  C   UNL     1      -0.027  11.918  19.548  0.00  0.00    +0.000 A 
ATOM      7  C   UNL     1      -0.349  11.316  20.797  0.00  0.00    +0.000 A 
ATOM      8  C   UNL     1       0.131  10.055  21.170  0.00  0.00    +0.000 A 
ATOM      9  C   UNL     1       1.948   8.792  18.240  0.00  0.00    +0.000 C 
ATOM     10  O   UNL     1       2.398   8.930  17.126  0.00  0.00    +0.000 OA
ENDROOT
BRANCH   1  15
ATOM     11  C   UNL     1       4.591   5.122  18.010  0.00  0.00    +0.000 A 
ATOM     12  C   UNL     1       4.037   3.983  18.612  0.00  0.00    +0.000 A 
ATOM     13  C   UNL     1       2.856   4.043  19.376  0.00  0.00    +0.000 A 
ATOM     14  C   UNL     1       2.169   5.252  19.577  0.00  0.00    +0.000 A 
ATOM     15  C   UNL     1       2.661   6.418  19.012  0.00  0.00    +0.000 A 
ATOM     16  C   UNL     1       3.864   6.309  18.250  0.00  0.00    +0.000 A 
BRANCH  11  17
ATOM     17  C   UNL     1       5.911   5.133  17.030  0.00  0.00    +0.000 C 
ATOM     18  C   UNL     1       7.201   4.652  17.757  0.00  0.00    +0.000 C 
ATOM     19  O   UNL     1       7.860   5.916  17.548  0.00  0.00    +0.000 OA
ATOM     20  C   UNL     1       6.713   6.442  16.846  0.00  0.00    +0.000 C 
BRANCH  17  21
ATOM     21  C   UNL     1       5.731   4.357  15.704  0.00  0.00    +0.000 C 
ATOM     22  F   UNL     1       5.765   3.013  15.974  0.00  0.00    +0.000 F 
BRANCH  21  28
ATOM     23  C   UNL     1       5.701   3.400  12.651  0.00  0.00    +0.000 C 
ATOM     24  N   UNL     1       6.626   4.295  13.295  0.00  0.00    +0.000 N 
ATOM     25  C   UNL     1       7.625   4.960  12.650  0.00  0.00    +0.000 A 
ATOM     26  N   UNL     1       8.295   5.687  13.506  0.00  0.00    +0.000 NA
ATOM     27  N   UNL     1       7.709   5.523  14.735  0.00  0.00    +0.000 NA
ATOM     28  C   UNL     1       6.698   4.686  14.615  0.00  0.00    +0.000 A 
ENDBRANCH  21  28
ENDBRANCH  17  21
ENDBRANCH  11  17
ENDBRANCH   1  15
BRANCH   8  29
ATOM     29  C   UNL     1      -0.027   9.538  22.575  0.00  0.00    +0.000 C 
ATOM     30  F   UNL     1      -0.634  10.416  23.425  0.00  0.00    +0.000 F 
ATOM     31  F   UNL     1      -0.784   8.408  22.635  0.00  0.00    +0.000 F 
ATOM     32  F   UNL     1       1.163   9.235  23.156  0.00  0.00    +0.000 F 
ENDBRANCH   8  29
BRANCH   6  33
ATOM     33  C   UNL     1      -0.371  13.415  19.430  0.00  0.00    +0.000 C 
BRANCH  33  34
ATOM     34  N   UNL     1       0.706  14.357  19.131  0.00  0.00    +0.000 NA
ATOM     35  C   UNL     1       1.788  14.480  20.115  0.00  0.00    +0.000 C 
ATOM     36  C   UNL     1       2.599  15.666  19.556  0.00  0.00    +0.000 C 
ATOM     37  C   UNL     1       1.627  16.409  18.645  0.00  0.00    +0.000 C 
ATOM     38  C   UNL     1       0.280  15.767  18.967  0.00  0.00    +0.000 C 
ATOM     39  C   UNL     1      -0.330  16.418  20.225  0.00  0.00    +0.000 C 
ATOM     40  C   UNL     1       0.337  16.024  21.546  0.00  0.00    +0.000 C 
ATOM     41  F   UNL     1       1.097  17.082  21.963  0.00  0.00    +0.000 F 
ATOM     42  C   UNL     1       1.240  14.792  21.514  0.00  0.00    +0.000 C 
ENDBRANCH  33  34
ENDBRANCH   6  33
TORSDOF 7
ENDMDL
MODEL 7
REMARK VINA RESULT:      -9.3      0.667      1.049
REMARK  Name = 
REMARK  8 active torsions:
REMARK  status: ('A' for Active; 'I' for Inactive)
REMARK    1  A    between atoms: C_1  and  N_2
REMARK    2  A    between atoms: C_6  and  C_7
REMARK    3  A    between atoms: C_7  and  C_9
REMARK    4  A    between atoms: C_9  and  C_10
REMARK    5  A    between atoms: C_14  and  N_15
REMARK    6  A    between atoms: C_20  and  C_21
REMARK    7  A    between atoms: C_21  and  N_22
REMARK    8  A    between atoms: C_32  and  C_33
REMARK                            x       y       z     vdW  Elec       q    Type
REMARK                         _______ _______ _______ _____ _____    ______ ____
ROOT
ATOM      1  N   UNL     1       2.105   7.843  19.307  0.00  0.00    +0.000 N 
ATOM      2  C   UNL     1       1.421   8.143  20.531  0.00  0.00    +0.000 C 
ATOM      3  C   UNL     1       0.819   9.472  20.324  0.00  0.00    +0.000 A 
ATOM      4  C   UNL     1       1.142   9.974  19.069  0.00  0.00    +0.000 A 
ATOM      5  C   UNL     1       0.707  11.257  18.700  0.00  0.00    +0.000 A 
ATOM      6  C   UNL     1      -0.124  11.990  19.598  0.00  0.00    +0.000 A 
ATOM      7  C   UNL     1      -0.467  11.391  20.842  0.00  0.00    +0.000 A 
ATOM      8  C   UNL     1       0.045  10.154  21.249  0.00  0.00    +0.000 A 
ATOM      9  C   UNL     1       2.010   8.926  18.400  0.00  0.00    +0.000 C 
ATOM     10  O   UNL     1       2.493   9.068  17.300  0.00  0.00    +0.000 OA
ENDROOT
BRANCH   1  15
ATOM     11  C   UNL     1       4.973   5.425  18.722  0.00  0.00    +0.000 A 
ATOM     12  C   UNL     1       4.300   4.220  18.966  0.00  0.00    +0.000 A 
ATOM     13  C   UNL     1       2.938   4.186  19.320  0.00  0.00    +0.000 A 
ATOM     14  C   UNL     1       2.181   5.361  19.451  0.00  0.00    +0.000 A 
ATOM     15  C   UNL     1       2.783   6.589  19.226  0.00  0.00    +0.000 A 
ATOM     16  C   UNL     1       4.166   6.575  18.874  0.00  0.00    +0.000 A 
BRANCH  11  17
ATOM     17  C   UNL     1       6.533   5.559  18.217  0.00  0.00    +0.000 C 
ATOM     18  C   UNL     1       7.520   5.839  19.389  0.00  0.00    +0.000 C 
ATOM     19  O   UNL     1       7.927   7.099  18.822  0.00  0.00    +0.000 OA
ATOM     20  C   UNL     1       7.050   6.916  17.689  0.00  0.00    +0.000 C 
BRANCH  17  21
ATOM     21  C   UNL     1       7.038   4.364  17.375  0.00  0.00    +0.000 C 
ATOM     22  F   UNL     1       8.361   4.150  17.666  0.00  0.00    +0.000 F 
BRANCH  21  28
ATOM     23  C   UNL     1       4.552   3.405  15.603  0.00  0.00    +0.000 C 
ATOM     24  N   UNL     1       5.739   4.095  15.173  0.00  0.00    +0.000 N 
ATOM     25  C   UNL     1       5.954   4.533  13.901  0.00  0.00    +0.000 A 
ATOM     26  N   UNL     1       7.123   5.114  13.825  0.00  0.00    +0.000 NA
ATOM     27  N   UNL     1       7.679   5.087  15.078  0.00  0.00    +0.000 NA
ATOM     28  C   UNL     1       6.848   4.476  15.898  0.00  0.00    +0.000 A 
ENDBRANCH  21  28
ENDBRANCH  17  21
ENDBRANCH  11  17
ENDBRANCH   1  15
BRANCH   8  29
ATOM     29  C   UNL     1      -0.142   9.646  22.653  0.00  0.00    +0.000 C 
ATOM     30  F   UNL     1      -0.803  10.515  23.473  0.00  0.00    +0.000 F 
ATOM     31  F   UNL     1      -0.867   8.495  22.702  0.00  0.00    +0.000 F 
ATOM     32  F   UNL     1       1.036   9.386  23.276  0.00  0.00    +0.000 F 
ENDBRANCH   8  29
BRANCH   6  33
ATOM     33  C   UNL     1      -0.520  13.472  19.449  0.00  0.00    +0.000 C 
BRANCH  33  34
ATOM     34  N   UNL     1       0.144  14.460  20.299  0.00  0.00    +0.000 NA
ATOM     35  C   UNL     1      -0.706  15.439  20.985  0.00  0.00    +0.000 C 
ATOM     36  C   UNL     1       0.334  16.394  21.604  0.00  0.00    +0.000 C 
ATOM     37  C   UNL     1       1.602  16.172  20.784  0.00  0.00    +0.000 C 
ATOM     38  C   UNL     1       1.118  15.333  19.604  0.00  0.00    +0.000 C 
ATOM     39  C   UNL     1       0.519  16.247  18.516  0.00  0.00    +0.000 C 
ATOM     40  C   UNL     1      -0.855  16.835  18.848  0.00  0.00    +0.000 C 
ATOM     41  F   UNL     1      -0.680  18.153  19.169  0.00  0.00    +0.000 F 
ATOM     42  C   UNL     1      -1.619  16.178  19.997  0.00  0.00    +0.000 C 
ENDBRANCH  33  34
ENDBRANCH   6  33
TORSDOF 7
ENDMDL
MODEL 8
REMARK VINA RESULT:      -9.3      0.892      1.007
REMARK  Name = 
REMARK  8 active torsions:
REMARK  status: ('A' for Active; 'I' for Inactive)
REMARK    1  A    between atoms: C_1  and  N_2
REMARK    2  A    between atoms: C_6  and  C_7
REMARK    3  A    between atoms: C_7  and  C_9
REMARK    4  A    between atoms: C_9  and  C_10
REMARK    5  A    between atoms: C_14  and  N_15
REMARK    6  A    between atoms: C_20  and  C_21
REMARK    7  A    between atoms: C_21  and  N_22
REMARK    8  A    between atoms: C_32  and  C_33
REMARK                            x       y       z     vdW  Elec       q    Type
REMARK                         _______ _______ _______ _____ _____    ______ ____
ROOT
ATOM      1  N   UNL     1       1.963   7.848  19.474  0.00  0.00    +0.000 N 
ATOM      2  C   UNL     1       1.260   8.160  20.685  0.00  0.00    +0.000 C 
ATOM      3  C   UNL     1       0.597   9.451  20.428  0.00  0.00    +0.000 A 
ATOM      4  C   UNL     1       0.901   9.921  19.157  0.00  0.00    +0.000 A 
ATOM      5  C   UNL     1       0.408  11.168  18.739  0.00  0.00    +0.000 A 
ATOM      6  C   UNL     1      -0.462  11.893  19.608  0.00  0.00    +0.000 A 
ATOM      7  C   UNL     1      -0.781  11.324  20.872  0.00  0.00    +0.000 A 
ATOM      8  C   UNL     1      -0.213  10.128  21.325  0.00  0.00    +0.000 A 
ATOM      9  C   UNL     1       1.821   8.892  18.528  0.00  0.00    +0.000 C 
ATOM     10  O   UNL     1       2.301   9.017  17.425  0.00  0.00    +0.000 OA
ENDROOT
BRANCH   1  15
ATOM     11  C   UNL     1       4.877   5.515  18.785  0.00  0.00    +0.000 A 
ATOM     12  C   UNL     1       4.312   4.316  19.243  0.00  0.00    +0.000 A 
ATOM     13  C   UNL     1       3.010   4.259  19.773  0.00  0.00    +0.000 A 
ATOM     14  C   UNL     1       2.205   5.406  19.874  0.00  0.00    +0.000 A 
ATOM     15  C   UNL     1       2.700   6.626  19.441  0.00  0.00    +0.000 A 
ATOM     16  C   UNL     1       4.027   6.636  18.916  0.00  0.00    +0.000 A 
BRANCH  11  17
ATOM     17  C   UNL     1       6.351   5.661  18.071  0.00  0.00    +0.000 C 
ATOM     18  C   UNL     1       7.122   4.310  18.004  0.00  0.00    +0.000 C 
ATOM     19  O   UNL     1       8.201   4.818  18.811  0.00  0.00    +0.000 OA
ATOM     20  C   UNL     1       7.566   6.111  18.914  0.00  0.00    +0.000 C 
BRANCH  17  21
ATOM     21  C   UNL     1       6.322   6.323  16.673  0.00  0.00    +0.000 C 
ATOM     22  F   UNL     1       5.151   7.025  16.543  0.00  0.00    +0.000 F 
BRANCH  21  28
ATOM     23  C   UNL     1       4.388   3.985  15.657  0.00  0.00    +0.000 C 
ATOM     24  N   UNL     1       5.620   4.440  15.071  0.00  0.00    +0.000 N 
ATOM     25  C   UNL     1       6.129   3.973  13.896  0.00  0.00    +0.000 A 
ATOM     26  N   UNL     1       7.260   4.574  13.634  0.00  0.00    +0.000 NA
ATOM     27  N   UNL     1       7.489   5.478  14.639  0.00  0.00    +0.000 NA
ATOM     28  C   UNL     1       6.502   5.405  15.509  0.00  0.00    +0.000 A 
ENDBRANCH  21  28
ENDBRANCH  17  21
ENDBRANCH  11  17
ENDBRANCH   1  15
BRANCH   8  29
ATOM     29  C   UNL     1      -0.383   9.664  22.746  0.00  0.00    +0.000 C 
ATOM     30  F   UNL     1       0.786   9.580  23.445  0.00  0.00    +0.000 F 
ATOM     31  F   UNL     1      -1.171  10.498  23.479  0.00  0.00    +0.000 F 
ATOM     32  F   UNL     1      -0.945   8.431  22.829  0.00  0.00    +0.000 F 
ENDBRANCH   8  29
BRANCH   6  33
ATOM     33  C   UNL     1      -0.926  13.348  19.403  0.00  0.00    +0.000 C 
BRANCH  33  34
ATOM     34  N   UNL     1      -0.574  14.342  20.417  0.00  0.00    +0.000 NA
ATOM     35  C   UNL     1      -0.929  15.738  20.144  0.00  0.00    +0.000 C 
ATOM     36  C   UNL     1      -0.246  16.480  21.310  0.00  0.00    +0.000 C 
ATOM     37  C   UNL     1       0.836  15.522  21.800  0.00  0.00    +0.000 C 
ATOM     38  C   UNL     1       0.874  14.447  20.717  0.00  0.00    +0.000 C 
ATOM     39  C   UNL     1       1.755  14.913  19.540  0.00  0.00    +0.000 C 
ATOM     40  C   UNL     1       1.131  15.992  18.651  0.00  0.00    +0.000 C 
ATOM     41  F   UNL     1       1.743  17.180  18.942  0.00  0.00    +0.000 F 
ATOM     42  C   UNL     1      -0.376  16.204  18.790  0.00  0.00    +0.000 C 
ENDBRANCH  33  34
ENDBRANCH   6  33
TORSDOF 7
ENDMDL
MODEL 9
REMARK VINA RESULT:      -9.2      1.092      1.777
REMARK  Name = 
REMARK  8 active torsions:
REMARK  status: ('A' for Active; 'I' for Inactive)
REMARK    1  A    between atoms: C_1  and  N_2
REMARK    2  A    between atoms: C_6  and  C_7
REMARK    3  A    between atoms: C_7  and  C_9
REMARK    4  A    between atoms: C_9  and  C_10
REMARK    5  A    between atoms: C_14  and  N_15
REMARK    6  A    between atoms: C_20  and  C_21
REMARK    7  A    between atoms: C_21  and  N_22
REMARK    8  A    between atoms: C_32  and  C_33
REMARK                            x       y       z     vdW  Elec       q    Type
REMARK                         _______ _______ _______ _____ _____    ______ ____
ROOT
ATOM      1  N   UNL     1       1.997   7.809  19.424  0.00  0.00    +0.000 N 
ATOM      2  C   UNL     1       1.309   8.133  20.640  0.00  0.00    +0.000 C 
ATOM      3  C   UNL     1       0.625   9.410  20.371  0.00  0.00    +0.000 A 
ATOM      4  C   UNL     1       0.904   9.863  19.088  0.00  0.00    +0.000 A 
ATOM      5  C   UNL     1       0.389  11.097  18.657  0.00  0.00    +0.000 A 
ATOM      6  C   UNL     1      -0.476  11.826  19.526  0.00  0.00    +0.000 A 
ATOM      7  C   UNL     1      -0.770  11.274  20.805  0.00  0.00    +0.000 A 
ATOM      8  C   UNL     1      -0.179  10.093  21.269  0.00  0.00    +0.000 A 
ATOM      9  C   UNL     1       1.827   8.835  18.463  0.00  0.00    +0.000 C 
ATOM     10  O   UNL     1       2.289   8.947  17.351  0.00  0.00    +0.000 OA
ENDROOT
BRANCH   1  15
ATOM     11  C   UNL     1       4.939   5.506  18.752  0.00  0.00    +0.000 A 
ATOM     12  C   UNL     1       4.389   4.304  19.219  0.00  0.00    +0.000 A 
ATOM     13  C   UNL     1       3.087   4.236  19.750  0.00  0.00    +0.000 A 
ATOM     14  C   UNL     1       2.269   5.373  19.842  0.00  0.00    +0.000 A 
ATOM     15  C   UNL     1       2.749   6.596  19.400  0.00  0.00    +0.000 A 
ATOM     16  C   UNL     1       4.076   6.618  18.875  0.00  0.00    +0.000 A 
BRANCH  11  17
ATOM     17  C   UNL     1       6.411   5.665  18.037  0.00  0.00    +0.000 C 
ATOM     18  C   UNL     1       7.202   4.325  17.988  0.00  0.00    +0.000 C 
ATOM     19  O   UNL     1       8.273   4.859  18.788  0.00  0.00    +0.000 OA
ATOM     20  C   UNL     1       7.618   6.144  18.874  0.00  0.00    +0.000 C 
BRANCH  17  21
ATOM     21  C   UNL     1       6.373   6.308  16.631  0.00  0.00    +0.000 C 
ATOM     22  F   UNL     1       5.211   7.026  16.507  0.00  0.00    +0.000 F 
BRANCH  21  28
ATOM     23  C   UNL     1       4.392   3.985  15.675  0.00  0.00    +0.000 C 
ATOM     24  N   UNL     1       5.622   4.413  15.064  0.00  0.00    +0.000 N 
ATOM     25  C   UNL     1       6.107   3.923  13.889  0.00  0.00    +0.000 A 
ATOM     26  N   UNL     1       7.242   4.504  13.603  0.00  0.00    +0.000 NA
ATOM     27  N   UNL     1       7.498   5.419  14.592  0.00  0.00    +0.000 NA
ATOM     28  C   UNL     1       6.523   5.372  15.477  0.00  0.00    +0.000 A 
ENDBRANCH  21  28
ENDBRANCH  17  21
ENDBRANCH  11  17
ENDBRANCH   1  15
BRANCH   8  29
ATOM     29  C   UNL     1      -0.321   9.652  22.701  0.00  0.00    +0.000 C 
ATOM     30  F   UNL     1      -1.055  10.504  23.474  0.00  0.00    +0.000 F 
ATOM     31  F   UNL     1      -0.943   8.446  22.818  0.00  0.00    +0.000 F 
ATOM     32  F   UNL     1       0.876   9.530  23.330  0.00  0.00    +0.000 F 
ENDBRANCH   8  29
BRANCH   6  33
ATOM     33  C   UNL     1      -0.962  13.270  19.305  0.00  0.00    +0.000 C 
BRANCH  33  34
ATOM     34  N   UNL     1       0.034  14.310  19.046  0.00  0.00    +0.000 NA
ATOM     35  C   UNL     1       1.117  14.464  20.023  0.00  0.00    +0.000 C 
ATOM     36  C   UNL     1       1.825  15.739  19.521  0.00  0.00    +0.000 C 
ATOM     37  C   UNL     1       0.785  16.450  18.662  0.00  0.00    +0.000 C 
ATOM     38  C   UNL     1      -0.504  15.688  18.963  0.00  0.00    +0.000 C 
ATOM     39  C   UNL     1      -1.143  16.222  20.261  0.00  0.00    +0.000 C 
ATOM     40  C   UNL     1      -0.428  15.811  21.551  0.00  0.00    +0.000 C 
ATOM     41  F   UNL     1       0.253  16.902  22.017  0.00  0.00    +0.000 F 
ATOM     42  C   UNL     1       0.568  14.657  21.443  0.00  0.00    +0.000 C 
ENDBRANCH  33  34
ENDBRANCH   6  33
TORSDOF 7
ENDMDL
