MODEL 1
REMARK VINA RESULT:      -9.6      0.000      0.000
REMARK  Name = 
REMARK  10 active torsions:
REMARK  status: ('A' for Active; 'I' for Inactive)
REMARK    1  A    between atoms: C_1  and  C_2
REMARK    2  A    between atoms: C_5  and  O_6
REMARK    3  A    between atoms: O_6  and  C_7
REMARK    4  A    between atoms: C_9  and  C_10
REMARK    5  A    between atoms: C_10  and  C_11
REMARK    6  A    between atoms: C_10  and  C_12
REMARK    7  A    between atoms: C_12  and  C_13
REMARK    8  A    between atoms: N_17  and  C_18
REMARK    9  A    between atoms: C_20  and  N_21
REMARK   10  A    between atoms: C_28  and  C_29
REMARK                            x       y       z     vdW  Elec       q    Type
REMARK                         _______ _______ _______ _____ _____    ______ ____
ROOT
ATOM      1  C   UNL     1       3.840   4.684  19.667  0.00  0.00    +0.000 A 
ATOM      2  C   UNL     1       4.596   4.539  18.524  0.00  0.00    +0.000 A 
ATOM      3  C   UNL     1       4.580   5.570  17.591  0.00  0.00    +0.000 A 
ATOM      4  C   UNL     1       3.765   6.682  17.858  0.00  0.00    +0.000 A 
ATOM      5  C   UNL     1       3.009   6.738  19.029  0.00  0.00    +0.000 A 
ATOM      6  N   UNL     1       3.068   5.752  19.936  0.00  0.00    +0.000 NA
ENDROOT
BRANCH   5   7
ATOM      7  N   UNL     1       2.131   7.815  19.261  0.00  0.00    +0.000 N 
ATOM      8  C   UNL     1       1.490   8.026  20.540  0.00  0.00    +0.000 C 
ATOM      9  C   UNL     1       0.721   9.287  20.340  0.00  0.00    +0.000 A 
ATOM     10  C   UNL     1       0.909   9.742  19.037  0.00  0.00    +0.000 A 
ATOM     11  C   UNL     1       0.283  10.873  18.548  0.00  0.00    +0.000 A 
ATOM     12  C   UNL     1      -0.561  11.566  19.415  0.00  0.00    +0.000 A 
ATOM     13  C   UNL     1      -0.739  11.132  20.743  0.00  0.00    +0.000 A 
ATOM     14  C   UNL     1      -0.090   9.984  21.233  0.00  0.00    +0.000 A 
ATOM     15  C   UNL     1       1.843   8.832  18.351  0.00  0.00    +0.000 C 
ATOM     16  O   UNL     1       2.225   9.034  17.216  0.00  0.00    +0.000 OA
BRANCH  14  17
ATOM     17  C   UNL     1      -0.267   9.557  22.667  0.00  0.00    +0.000 C 
ATOM     18  F   UNL     1       0.907   9.414  23.343  0.00  0.00    +0.000 F 
ATOM     19  F   UNL     1      -0.998  10.453  23.386  0.00  0.00    +0.000 F 
ATOM     20  F   UNL     1      -0.910   8.364  22.781  0.00  0.00    +0.000 F 
ENDBRANCH  14  17
ENDBRANCH   5   7
BRANCH   3  21
ATOM     21  C   UNL     1       5.407   5.533  16.316  0.00  0.00    +0.000 C 
ATOM     22  C   UNL     1       4.926   4.397  15.408  0.00  0.00    +0.000 C 
BRANCH  21  23
ATOM     23  C   UNL     1       6.922   5.401  16.580  0.00  0.00    +0.000 C 
BRANCH  23  24
ATOM     24  C   UNL     1       7.475   6.592  17.286  0.00  0.00    +0.000 A 
ATOM     25  N   UNL     1       7.558   7.818  16.807  0.00  0.00    +0.000 NA
ATOM     26  N   UNL     1       8.065   8.629  17.794  0.00  0.00    +0.000 NA
ATOM     27  C   UNL     1       8.288   7.884  18.850  0.00  0.00    +0.000 A 
ATOM     28  N   UNL     1       7.954   6.595  18.571  0.00  0.00    +0.000 N 
ATOM     29  C   UNL     1       8.087   5.475  19.463  0.00  0.00    +0.000 C 
ENDBRANCH  23  24
ENDBRANCH  21  23
ENDBRANCH   3  21
BRANCH   1  30
ATOM     30  O   UNL     1       3.826   3.635  20.563  0.00  0.00    +0.000 OA
BRANCH  30  35
ATOM     31  C   UNL     1       1.137   2.667  18.325  0.00  0.00    +0.000 C 
ATOM     32  C   UNL     1       1.487   3.351  19.629  0.00  0.00    +0.000 C 
ATOM     33  O   UNL     1       0.546   2.991  20.679  0.00  0.00    +0.000 OA
ATOM     34  C   UNL     1       1.654   2.798  21.597  0.00  0.00    +0.000 C 
ATOM     35  C   UNL     1       2.665   2.774  20.437  0.00  0.00    +0.000 C 
ENDBRANCH  30  35
ENDBRANCH   1  30
TORSDOF 7
ENDMDL
MODEL 2
REMARK VINA RESULT:      -9.5      0.948      1.551
REMARK  Name = 
REMARK  10 active torsions:
REMARK  status: ('A' for Active; 'I' for Inactive)
REMARK    1  A    between atoms: C_1  and  C_2
REMARK    2  A    between atoms: C_5  and  O_6
REMARK    3  A    between atoms: O_6  and  C_7
REMARK    4  A    between atoms: C_9  and  C_10
REMARK    5  A    between atoms: C_10  and  C_11
REMARK    6  A    between atoms: C_10  and  C_12
REMARK    7  A    between atoms: C_12  and  C_13
REMARK    8  A    between atoms: N_17  and  C_18
REMARK    9  A    between atoms: C_20  and  N_21
REMARK   10  A    between atoms: C_28  and  C_29
REMARK                            x       y       z     vdW  Elec       q    Type
REMARK                         _______ _______ _______ _____ _____    ______ ____
ROOT
ATOM      1  C   UNL     1       2.344   4.310  18.104  0.00  0.00    +0.000 A 
ATOM      2  C   UNL     1       3.467   4.237  17.309  0.00  0.00    +0.000 A 
ATOM      3  C   UNL     1       4.168   5.411  17.056  0.00  0.00    +0.000 A 
ATOM      4  C   UNL     1       3.667   6.604  17.600  0.00  0.00    +0.000 A 
ATOM      5  C   UNL     1       2.506   6.594  18.374  0.00  0.00    +0.000 A 
ATOM      6  N   UNL     1       1.865   5.446  18.641  0.00  0.00    +0.000 NA
ENDROOT
BRANCH   5   7
ATOM      7  N   UNL     1       1.957   7.799  18.855  0.00  0.00    +0.000 N 
ATOM      8  C   UNL     1       1.400   7.916  20.184  0.00  0.00    +0.000 C 
ATOM      9  C   UNL     1       1.005   9.351  20.271  0.00  0.00    +0.000 A 
ATOM     10  C   UNL     1       1.309   9.987  19.069  0.00  0.00    +0.000 A 
ATOM     11  C   UNL     1       1.016  11.318  18.840  0.00  0.00    +0.000 A 
ATOM     12  C   UNL     1       0.395  12.027  19.869  0.00  0.00    +0.000 A 
ATOM     13  C   UNL     1       0.107  11.402  21.098  0.00  0.00    +0.000 A 
ATOM     14  C   UNL     1       0.418  10.048  21.323  0.00  0.00    +0.000 A 
ATOM     15  C   UNL     1       1.957   9.015  18.172  0.00  0.00    +0.000 C 
ATOM     16  O   UNL     1       2.378   9.328  17.077  0.00  0.00    +0.000 OA
BRANCH  14  17
ATOM     17  C   UNL     1       0.132   9.409  22.658  0.00  0.00    +0.000 C 
ATOM     18  F   UNL     1      -0.678   8.318  22.579  0.00  0.00    +0.000 F 
ATOM     19  F   UNL     1       1.266   8.981  23.278  0.00  0.00    +0.000 F 
ATOM     20  F   UNL     1      -0.475  10.263  23.526  0.00  0.00    +0.000 F 
ENDBRANCH  14  17
ENDBRANCH   5   7
BRANCH   3  21
ATOM     21  C   UNL     1       5.442   5.441  16.226  0.00  0.00    +0.000 C 
ATOM     22  C   UNL     1       5.350   4.429  15.081  0.00  0.00    +0.000 C 
BRANCH  21  23
ATOM     23  C   UNL     1       6.715   5.189  17.062  0.00  0.00    +0.000 C 
BRANCH  23  24
ATOM     24  C   UNL     1       7.367   6.459  17.492  0.00  0.00    +0.000 A 
ATOM     25  N   UNL     1       7.419   7.584  16.805  0.00  0.00    +0.000 NA
ATOM     26  N   UNL     1       8.048   8.528  17.580  0.00  0.00    +0.000 NA
ATOM     27  C   UNL     1       8.375   7.962  18.716  0.00  0.00    +0.000 A 
ATOM     28  N   UNL     1       7.987   6.658  18.698  0.00  0.00    +0.000 N 
ATOM     29  C   UNL     1       8.198   5.698  19.747  0.00  0.00    +0.000 C 
ENDBRANCH  23  24
ENDBRANCH  21  23
ENDBRANCH   3  21
BRANCH   1  30
ATOM     30  O   UNL     1       1.630   3.147  18.310  0.00  0.00    +0.000 OA
BRANCH  30  35
ATOM     31  C   UNL     1       2.012   2.860  21.909  0.00  0.00    +0.000 C 
ATOM     32  C   UNL     1       2.732   3.051  20.591  0.00  0.00    +0.000 C 
ATOM     33  O   UNL     1       3.960   2.270  20.545  0.00  0.00    +0.000 OA
ATOM     34  C   UNL     1       3.628   1.840  19.199  0.00  0.00    +0.000 C 
ATOM     35  C   UNL     1       2.171   2.308  19.363  0.00  0.00    +0.000 C 
ENDBRANCH  30  35
ENDBRANCH   1  30
TORSDOF 7
ENDMDL
MODEL 3
REMARK VINA RESULT:      -9.5      1.660      2.464
REMARK  Name = 
REMARK  10 active torsions:
REMARK  status: ('A' for Active; 'I' for Inactive)
REMARK    1  A    between atoms: C_1  and  C_2
REMARK    2  A    between atoms: C_5  and  O_6
REMARK    3  A    between atoms: O_6  and  C_7
REMARK    4  A    between atoms: C_9  and  C_10
REMARK    5  A    between atoms: C_10  and  C_11
REMARK    6  A    between atoms: C_10  and  C_12
REMARK    7  A    between atoms: C_12  and  C_13
REMARK    8  A    between atoms: N_17  and  C_18
REMARK    9  A    between atoms: C_20  and  N_21
REMARK   10  A    between atoms: C_28  and  C_29
REMARK                            x       y       z     vdW  Elec       q    Type
REMARK                         _______ _______ _______ _____ _____    ______ ____
ROOT
ATOM      1  C   UNL     1       3.785   4.886  19.533  0.00  0.00    +0.000 A 
ATOM      2  C   UNL     1       4.620   4.867  18.437  0.00  0.00    +0.000 A 
ATOM      3  C   UNL     1       4.637   5.983  17.607  0.00  0.00    +0.000 A 
ATOM      4  C   UNL     1       3.777   7.046  17.920  0.00  0.00    +0.000 A 
ATOM      5  C   UNL     1       2.942   6.974  19.036  0.00  0.00    +0.000 A 
ATOM      6  N   UNL     1       2.968   5.906  19.848  0.00  0.00    +0.000 NA
ENDROOT
BRANCH   5   7
ATOM      7  N   UNL     1       2.022   8.005  19.308  0.00  0.00    +0.000 N 
ATOM      8  C   UNL     1       1.414   8.173  20.610  0.00  0.00    +0.000 C 
ATOM      9  C   UNL     1       0.579   9.397  20.448  0.00  0.00    +0.000 A 
ATOM     10  C   UNL     1       0.701   9.872  19.144  0.00  0.00    +0.000 A 
ATOM     11  C   UNL     1       0.005  10.974  18.687  0.00  0.00    +0.000 A 
ATOM     12  C   UNL     1      -0.843  11.618  19.589  0.00  0.00    +0.000 A 
ATOM     13  C   UNL     1      -0.955  11.164  20.918  0.00  0.00    +0.000 A 
ATOM     14  C   UNL     1      -0.235  10.045  21.374  0.00  0.00    +0.000 A 
ATOM     15  C   UNL     1       1.654   9.014  18.419  0.00  0.00    +0.000 C 
ATOM     16  O   UNL     1       1.987   9.244  17.273  0.00  0.00    +0.000 OA
BRANCH  14  17
ATOM     17  C   UNL     1      -0.343   9.599  22.809  0.00  0.00    +0.000 C 
ATOM     18  F   UNL     1       0.862   9.463  23.431  0.00  0.00    +0.000 F 
ATOM     19  F   UNL     1      -1.052  10.476  23.571  0.00  0.00    +0.000 F 
ATOM     20  F   UNL     1      -0.965   8.396  22.936  0.00  0.00    +0.000 F 
ENDBRANCH  14  17
ENDBRANCH   5   7
BRANCH   3  21
ATOM     21  C   UNL     1       5.548   6.086  16.394  0.00  0.00    +0.000 C 
ATOM     22  C   UNL     1       4.942   7.035  15.357  0.00  0.00    +0.000 C 
BRANCH  21  23
ATOM     23  C   UNL     1       5.858   4.717  15.751  0.00  0.00    +0.000 C 
BRANCH  23  24
ATOM     24  C   UNL     1       6.730   4.846  14.548  0.00  0.00    +0.000 A 
ATOM     25  N   UNL     1       7.855   5.530  14.466  0.00  0.00    +0.000 NA
ATOM     26  N   UNL     1       8.381   5.337  13.211  0.00  0.00    +0.000 NA
ATOM     27  C   UNL     1       7.567   4.550  12.551  0.00  0.00    +0.000 A 
ATOM     28  N   UNL     1       6.505   4.234  13.342  0.00  0.00    +0.000 N 
ATOM     29  C   UNL     1       5.383   3.418  12.965  0.00  0.00    +0.000 C 
ENDBRANCH  23  24
ENDBRANCH  21  23
ENDBRANCH   3  21
BRANCH   1  30
ATOM     30  O   UNL     1       3.741   3.755  20.323  0.00  0.00    +0.000 OA
BRANCH  30  35
ATOM     31  C   UNL     1       2.257   2.295  17.349  0.00  0.00    +0.000 C 
ATOM     32  C   UNL     1       2.001   3.121  18.591  0.00  0.00    +0.000 C 
ATOM     33  O   UNL     1       0.748   2.741  19.226  0.00  0.00    +0.000 OA
ATOM     34  C   UNL     1       1.406   2.756  20.520  0.00  0.00    +0.000 C 
ATOM     35  C   UNL     1       2.796   2.756  19.860  0.00  0.00    +0.000 C 
ENDBRANCH  30  35
ENDBRANCH   1  30
TORSDOF 7
ENDMDL
MODEL 4
REMARK VINA RESULT:      -9.3      0.634      1.117
REMARK  Name = 
REMARK  10 active torsions:
REMARK  status: ('A' for Active; 'I' for Inactive)
REMARK    1  A    between atoms: C_1  and  C_2
REMARK    2  A    between atoms: C_5  and  O_6
REMARK    3  A    between atoms: O_6  and  C_7
REMARK    4  A    between atoms: C_9  and  C_10
REMARK    5  A    between atoms: C_10  and  C_11
REMARK    6  A    between atoms: C_10  and  C_12
REMARK    7  A    between atoms: C_12  and  C_13
REMARK    8  A    between atoms: N_17  and  C_18
REMARK    9  A    between atoms: C_20  and  N_21
REMARK   10  A    between atoms: C_28  and  C_29
REMARK                            x       y       z     vdW  Elec       q    Type
REMARK                         _______ _______ _______ _____ _____    ______ ____
ROOT
ATOM      1  C   UNL     1       3.809   4.668  19.603  0.00  0.00    +0.000 A 
ATOM      2  C   UNL     1       4.419   4.424  18.392  0.00  0.00    +0.000 A 
ATOM      3  C   UNL     1       4.318   5.394  17.400  0.00  0.00    +0.000 A 
ATOM      4  C   UNL     1       3.573   6.549  17.686  0.00  0.00    +0.000 A 
ATOM      5  C   UNL     1       2.964   6.706  18.931  0.00  0.00    +0.000 A 
ATOM      6  N   UNL     1       3.105   5.777  19.889  0.00  0.00    +0.000 NA
ENDROOT
BRANCH   5   7
ATOM      7  N   UNL     1       2.151   7.825  19.193  0.00  0.00    +0.000 N 
ATOM      8  C   UNL     1       1.506   8.030  20.471  0.00  0.00    +0.000 C 
ATOM      9  C   UNL     1       0.818   9.342  20.309  0.00  0.00    +0.000 A 
ATOM     10  C   UNL     1       1.051   9.830  19.025  0.00  0.00    +0.000 A 
ATOM     11  C   UNL     1       0.501  11.013  18.570  0.00  0.00    +0.000 A 
ATOM     12  C   UNL     1      -0.311  11.726  19.453  0.00  0.00    +0.000 A 
ATOM     13  C   UNL     1      -0.533  11.256  20.762  0.00  0.00    +0.000 A 
ATOM     14  C   UNL     1       0.039  10.054  21.217  0.00  0.00    +0.000 A 
ATOM     15  C   UNL     1       1.936   8.889  18.317  0.00  0.00    +0.000 C 
ATOM     16  O   UNL     1       2.344   9.108  17.194  0.00  0.00    +0.000 OA
BRANCH  14  17
ATOM     17  C   UNL     1      -0.182   9.589  22.634  0.00  0.00    +0.000 C 
ATOM     18  F   UNL     1       0.972   9.363  23.321  0.00  0.00    +0.000 F 
ATOM     19  F   UNL     1      -0.877  10.496  23.372  0.00  0.00    +0.000 F 
ATOM     20  F   UNL     1      -0.887   8.427  22.697  0.00  0.00    +0.000 F 
ENDBRANCH  14  17
ENDBRANCH   5   7
BRANCH   3  21
ATOM     21  C   UNL     1       4.985   5.247  16.042  0.00  0.00    +0.000 C 
ATOM     22  C   UNL     1       5.051   3.770  15.643  0.00  0.00    +0.000 C 
BRANCH  21  23
ATOM     23  C   UNL     1       6.392   5.879  15.985  0.00  0.00    +0.000 C 
BRANCH  23  24
ATOM     24  C   UNL     1       7.111   5.767  17.287  0.00  0.00    +0.000 A 
ATOM     25  N   UNL     1       7.427   4.650  17.913  0.00  0.00    +0.000 NA
ATOM     26  N   UNL     1       8.140   4.980  19.041  0.00  0.00    +0.000 NA
ATOM     27  C   UNL     1       8.237   6.287  19.086  0.00  0.00    +0.000 A 
ATOM     28  N   UNL     1       7.588   6.825  18.018  0.00  0.00    +0.000 N 
ATOM     29  C   UNL     1       7.443   8.227  17.733  0.00  0.00    +0.000 C 
ENDBRANCH  23  24
ENDBRANCH  21  23
ENDBRANCH   3  21
BRANCH   1  30
ATOM     30  O   UNL     1       3.875   3.679  20.563  0.00  0.00    +0.000 OA
BRANCH  30  35
ATOM     31  C   UNL     1       1.294   2.257  18.443  0.00  0.00    +0.000 C 
ATOM     32  C   UNL     1       1.580   3.171  19.615  0.00  0.00    +0.000 C 
ATOM     33  O   UNL     1       0.606   2.979  20.680  0.00  0.00    +0.000 OA
ATOM     34  C   UNL     1       1.682   2.982  21.656  0.00  0.00    +0.000 C 
ATOM     35  C   UNL     1       2.737   2.779  20.553  0.00  0.00    +0.000 C 
ENDBRANCH  30  35
ENDBRANCH   1  30
TORSDOF 7
ENDMDL
MODEL 5
REMARK VINA RESULT:      -9.2      3.931      8.819
REMARK  Name = 
REMARK  10 active torsions:
REMARK  status: ('A' for Active; 'I' for Inactive)
REMARK    1  A    between atoms: C_1  and  C_2
REMARK    2  A    between atoms: C_5  and  O_6
REMARK    3  A    between atoms: O_6  and  C_7
REMARK    4  A    between atoms: C_9  and  C_10
REMARK    5  A    between atoms: C_10  and  C_11
REMARK    6  A    between atoms: C_10  and  C_12
REMARK    7  A    between atoms: C_12  and  C_13
REMARK    8  A    between atoms: N_17  and  C_18
REMARK    9  A    between atoms: C_20  and  N_21
REMARK   10  A    between atoms: C_28  and  C_29
REMARK                            x       y       z     vdW  Elec       q    Type
REMARK                         _______ _______ _______ _____ _____    ______ ____
ROOT
ATOM      1  C   UNL     1      -0.352  10.746  18.772  0.00  0.00    +0.000 A 
ATOM      2  C   UNL     1      -0.671  11.133  20.055  0.00  0.00    +0.000 A 
ATOM      3  C   UNL     1      -0.070  10.459  21.112  0.00  0.00    +0.000 A 
ATOM      4  C   UNL     1       0.801   9.402  20.805  0.00  0.00    +0.000 A 
ATOM      5  C   UNL     1       1.050   9.057  19.476  0.00  0.00    +0.000 A 
ATOM      6  N   UNL     1       0.492   9.744  18.469  0.00  0.00    +0.000 NA
ENDROOT
BRANCH   5   7
ATOM      7  N   UNL     1       1.861   7.947  19.167  0.00  0.00    +0.000 N 
ATOM      8  C   UNL     1       1.848   6.737  19.958  0.00  0.00    +0.000 C 
ATOM      9  C   UNL     1       2.795   5.839  19.237  0.00  0.00    +0.000 A 
ATOM     10  C   UNL     1       3.311   6.506  18.129  0.00  0.00    +0.000 A 
ATOM     11  C   UNL     1       4.251   5.936  17.292  0.00  0.00    +0.000 A 
ATOM     12  C   UNL     1       4.678   4.642  17.591  0.00  0.00    +0.000 A 
ATOM     13  C   UNL     1       4.144   3.947  18.693  0.00  0.00    +0.000 A 
ATOM     14  C   UNL     1       3.181   4.535  19.534  0.00  0.00    +0.000 A 
ATOM     15  C   UNL     1       2.689   7.839  18.050  0.00  0.00    +0.000 C 
ATOM     16  O   UNL     1       2.922   8.607  17.137  0.00  0.00    +0.000 OA
BRANCH  14  17
ATOM     17  C   UNL     1       2.597   3.760  20.687  0.00  0.00    +0.000 C 
ATOM     18  F   UNL     1       3.269   2.609  20.968  0.00  0.00    +0.000 F 
ATOM     19  F   UNL     1       2.597   4.476  21.844  0.00  0.00    +0.000 F 
ATOM     20  F   UNL     1       1.305   3.393  20.468  0.00  0.00    +0.000 F 
ENDBRANCH  14  17
ENDBRANCH   5   7
BRANCH   3  21
ATOM     21  C   UNL     1      -0.319  10.829  22.566  0.00  0.00    +0.000 C 
ATOM     22  C   UNL     1      -0.211   9.586  23.453  0.00  0.00    +0.000 C 
BRANCH  21  23
ATOM     23  C   UNL     1      -1.677  11.528  22.789  0.00  0.00    +0.000 C 
BRANCH  23  24
ATOM     24  C   UNL     1      -1.516  12.912  23.320  0.00  0.00    +0.000 A 
ATOM     25  N   UNL     1      -0.419  13.643  23.280  0.00  0.00    +0.000 NA
ATOM     26  N   UNL     1      -0.708  14.877  23.814  0.00  0.00    +0.000 NA
ATOM     27  C   UNL     1      -1.969  14.871  24.176  0.00  0.00    +0.000 A 
ATOM     28  N   UNL     1      -2.510  13.653  23.906  0.00  0.00    +0.000 N 
ATOM     29  C   UNL     1      -3.860  13.245  24.188  0.00  0.00    +0.000 C 
ENDBRANCH  23  24
ENDBRANCH  21  23
ENDBRANCH   3  21
BRANCH   1  30
ATOM     30  O   UNL     1      -0.990  11.390  17.732  0.00  0.00    +0.000 OA
BRANCH  30  35
ATOM     31  C   UNL     1      -2.903  10.081  14.938  0.00  0.00    +0.000 C 
ATOM     32  C   UNL     1      -2.808  11.176  15.978  0.00  0.00    +0.000 C 
ATOM     33  O   UNL     1      -4.116  11.480  16.542  0.00  0.00    +0.000 OA
ATOM     34  C   UNL     1      -3.532  11.492  17.872  0.00  0.00    +0.000 C 
ATOM     35  C   UNL     1      -2.259  10.790  17.365  0.00  0.00    +0.000 C 
ENDBRANCH  30  35
ENDBRANCH   1  30
TORSDOF 7
ENDMDL
MODEL 6
REMARK VINA RESULT:      -9.1      1.810      2.844
REMARK  Name = 
REMARK  10 active torsions:
REMARK  status: ('A' for Active; 'I' for Inactive)
REMARK    1  A    between atoms: C_1  and  C_2
REMARK    2  A    between atoms: C_5  and  O_6
REMARK    3  A    between atoms: O_6  and  C_7
REMARK    4  A    between atoms: C_9  and  C_10
REMARK    5  A    between atoms: C_10  and  C_11
REMARK    6  A    between atoms: C_10  and  C_12
REMARK    7  A    between atoms: C_12  and  C_13
REMARK    8  A    between atoms: N_17  and  C_18
REMARK    9  A    between atoms: C_20  and  N_21
REMARK   10  A    between atoms: C_28  and  C_29
REMARK                            x       y       z     vdW  Elec       q    Type
REMARK                         _______ _______ _______ _____ _____    ______ ____
ROOT
ATOM      1  C   UNL     1       2.354   4.404  18.150  0.00  0.00    +0.000 A 
ATOM      2  C   UNL     1       3.541   4.351  17.453  0.00  0.00    +0.000 A 
ATOM      3  C   UNL     1       4.256   5.532  17.285  0.00  0.00    +0.000 A 
ATOM      4  C   UNL     1       3.704   6.712  17.807  0.00  0.00    +0.000 A 
ATOM      5  C   UNL     1       2.480   6.682  18.477  0.00  0.00    +0.000 A 
ATOM      6  N   UNL     1       1.825   5.527  18.665  0.00  0.00    +0.000 NA
ENDROOT
BRANCH   5   7
ATOM      7  N   UNL     1       1.887   7.876  18.933  0.00  0.00    +0.000 N 
ATOM      8  C   UNL     1       1.321   7.999  20.258  0.00  0.00    +0.000 C 
ATOM      9  C   UNL     1       0.874   9.420  20.315  0.00  0.00    +0.000 A 
ATOM     10  C   UNL     1       1.158  10.043  19.101  0.00  0.00    +0.000 A 
ATOM     11  C   UNL     1       0.817  11.357  18.845  0.00  0.00    +0.000 A 
ATOM     12  C   UNL     1       0.167  12.063  19.858  0.00  0.00    +0.000 A 
ATOM     13  C   UNL     1      -0.102  11.452  21.098  0.00  0.00    +0.000 A 
ATOM     14  C   UNL     1       0.258  10.116  21.351  0.00  0.00    +0.000 A 
ATOM     15  C   UNL     1       1.844   9.077  18.226  0.00  0.00    +0.000 C 
ATOM     16  O   UNL     1       2.256   9.384  17.125  0.00  0.00    +0.000 OA
BRANCH  14  17
ATOM     17  C   UNL     1      -0.008   9.494  22.699  0.00  0.00    +0.000 C 
ATOM     18  F   UNL     1      -0.797   8.385  22.642  0.00  0.00    +0.000 F 
ATOM     19  F   UNL     1       1.137   9.099  23.320  0.00  0.00    +0.000 F 
ATOM     20  F   UNL     1      -0.629  10.349  23.555  0.00  0.00    +0.000 F 
ENDBRANCH  14  17
ENDBRANCH   5   7
BRANCH   3  21
ATOM     21  C   UNL     1       5.596   5.582  16.569  0.00  0.00    +0.000 C 
ATOM     22  C   UNL     1       5.748   6.912  15.824  0.00  0.00    +0.000 C 
BRANCH  21  23
ATOM     23  C   UNL     1       5.810   4.400  15.599  0.00  0.00    +0.000 C 
BRANCH  23  24
ATOM     24  C   UNL     1       6.718   4.756  14.471  0.00  0.00    +0.000 A 
ATOM     25  N   UNL     1       7.786   5.526  14.538  0.00  0.00    +0.000 NA
ATOM     26  N   UNL     1       8.377   5.545  13.297  0.00  0.00    +0.000 NA
ATOM     27  C   UNL     1       7.656   4.797  12.498  0.00  0.00    +0.000 A 
ATOM     28  N   UNL     1       6.592   4.298  13.184  0.00  0.00    +0.000 N 
ATOM     29  C   UNL     1       5.555   3.460  12.646  0.00  0.00    +0.000 C 
ENDBRANCH  23  24
ENDBRANCH  21  23
ENDBRANCH   3  21
BRANCH   1  30
ATOM     30  O   UNL     1       1.630   3.235  18.270  0.00  0.00    +0.000 OA
BRANCH  30  35
ATOM     31  C   UNL     1       1.647   2.658  21.855  0.00  0.00    +0.000 C 
ATOM     32  C   UNL     1       2.486   3.018  20.647  0.00  0.00    +0.000 C 
ATOM     33  O   UNL     1       3.772   2.336  20.678  0.00  0.00    +0.000 OA
ATOM     34  C   UNL     1       3.623   2.003  19.273  0.00  0.00    +0.000 C 
ATOM     35  C   UNL     1       2.123   2.348  19.308  0.00  0.00    +0.000 C 
ENDBRANCH  30  35
ENDBRANCH   1  30
TORSDOF 7
ENDMDL
MODEL 7
REMARK VINA RESULT:      -9.1      4.336      9.046
REMARK  Name = 
REMARK  10 active torsions:
REMARK  status: ('A' for Active; 'I' for Inactive)
REMARK    1  A    between atoms: C_1  and  C_2
REMARK    2  A    between atoms: C_5  and  O_6
REMARK    3  A    between atoms: O_6  and  C_7
REMARK    4  A    between atoms: C_9  and  C_10
REMARK    5  A    between atoms: C_10  and  C_11
REMARK    6  A    between atoms: C_10  and  C_12
REMARK    7  A    between atoms: C_12  and  C_13
REMARK    8  A    between atoms: N_17  and  C_18
REMARK    9  A    between atoms: C_20  and  N_21
REMARK   10  A    between atoms: C_28  and  C_29
REMARK                            x       y       z     vdW  Elec       q    Type
REMARK                         _______ _______ _______ _____ _____    ______ ____
ROOT
ATOM      1  C   UNL     1      -0.153  10.426  18.642  0.00  0.00    +0.000 A 
ATOM      2  C   UNL     1      -0.475  10.863  19.908  0.00  0.00    +0.000 A 
ATOM      3  C   UNL     1       0.134  10.240  20.992  0.00  0.00    +0.000 A 
ATOM      4  C   UNL     1       1.015   9.179  20.728  0.00  0.00    +0.000 A 
ATOM      5  C   UNL     1       1.267   8.781  19.415  0.00  0.00    +0.000 A 
ATOM      6  N   UNL     1       0.701   9.420  18.380  0.00  0.00    +0.000 NA
ENDROOT
BRANCH   5   7
ATOM      7  N   UNL     1       2.088   7.668  19.151  0.00  0.00    +0.000 N 
ATOM      8  C   UNL     1       3.087   7.676  18.105  0.00  0.00    +0.000 C 
ATOM      9  C   UNL     1       3.736   6.340  18.233  0.00  0.00    +0.000 A 
ATOM     10  C   UNL     1       3.133   5.630  19.269  0.00  0.00    +0.000 A 
ATOM     11  C   UNL     1       3.499   4.338  19.594  0.00  0.00    +0.000 A 
ATOM     12  C   UNL     1       4.515   3.749  18.841  0.00  0.00    +0.000 A 
ATOM     13  C   UNL     1       5.151   4.466  17.809  0.00  0.00    +0.000 A 
ATOM     14  C   UNL     1       4.776   5.784  17.492  0.00  0.00    +0.000 A 
ATOM     15  C   UNL     1       2.107   6.485  19.890  0.00  0.00    +0.000 C 
ATOM     16  O   UNL     1       1.469   6.127  20.860  0.00  0.00    +0.000 OA
BRANCH  14  17
ATOM     17  C   UNL     1       5.494   6.545  16.407  0.00  0.00    +0.000 C 
ATOM     18  F   UNL     1       4.661   7.079  15.471  0.00  0.00    +0.000 F 
ATOM     19  F   UNL     1       6.212   7.592  16.899  0.00  0.00    +0.000 F 
ATOM     20  F   UNL     1       6.376   5.769  15.722  0.00  0.00    +0.000 F 
ENDBRANCH  14  17
ENDBRANCH   5   7
BRANCH   3  21
ATOM     21  C   UNL     1      -0.118  10.668  22.429  0.00  0.00    +0.000 C 
ATOM     22  C   UNL     1       0.007   9.464  23.368  0.00  0.00    +0.000 C 
BRANCH  21  23
ATOM     23  C   UNL     1      -1.484  11.359  22.625  0.00  0.00    +0.000 C 
BRANCH  23  24
ATOM     24  C   UNL     1      -1.340  12.755  23.130  0.00  0.00    +0.000 A 
ATOM     25  N   UNL     1      -0.259  13.506  23.056  0.00  0.00    +0.000 NA
ATOM     26  N   UNL     1      -0.562  14.743  23.576  0.00  0.00    +0.000 NA
ATOM     27  C   UNL     1      -1.815  14.719  23.962  0.00  0.00    +0.000 A 
ATOM     28  N   UNL     1      -2.337  13.485  23.723  0.00  0.00    +0.000 N 
ATOM     29  C   UNL     1      -3.673  13.056  24.038  0.00  0.00    +0.000 C 
ENDBRANCH  23  24
ENDBRANCH  21  23
ENDBRANCH   3  21
BRANCH   1  30
ATOM     30  O   UNL     1      -0.798  11.020  17.577  0.00  0.00    +0.000 OA
BRANCH  30  35
ATOM     31  C   UNL     1      -2.857  10.024  14.757  0.00  0.00    +0.000 C 
ATOM     32  C   UNL     1      -2.753  10.930  15.966  0.00  0.00    +0.000 C 
ATOM     33  O   UNL     1      -4.021  11.002  16.678  0.00  0.00    +0.000 OA
ATOM     34  C   UNL     1      -3.314  10.846  17.937  0.00  0.00    +0.000 C 
ATOM     35  C   UNL     1      -2.043  10.369  17.212  0.00  0.00    +0.000 C 
ENDBRANCH  30  35
ENDBRANCH   1  30
TORSDOF 7
ENDMDL
MODEL 8
REMARK VINA RESULT:      -9.1      1.164      1.829
REMARK  Name = 
REMARK  10 active torsions:
REMARK  status: ('A' for Active; 'I' for Inactive)
REMARK    1  A    between atoms: C_1  and  C_2
REMARK    2  A    between atoms: C_5  and  O_6
REMARK    3  A    between atoms: O_6  and  C_7
REMARK    4  A    between atoms: C_9  and  C_10
REMARK    5  A    between atoms: C_10  and  C_11
REMARK    6  A    between atoms: C_10  and  C_12
REMARK    7  A    between atoms: C_12  and  C_13
REMARK    8  A    between atoms: N_17  and  C_18
REMARK    9  A    between atoms: C_20  and  N_21
REMARK   10  A    between atoms: C_28  and  C_29
REMARK                            x       y       z     vdW  Elec       q    Type
REMARK                         _______ _______ _______ _____ _____    ______ ____
ROOT
ATOM      1  C   UNL     1       2.496   4.502  18.009  0.00  0.00    +0.000 A 
ATOM      2  C   UNL     1       3.625   4.496  17.219  0.00  0.00    +0.000 A 
ATOM      3  C   UNL     1       4.279   5.703  17.000  0.00  0.00    +0.000 A 
ATOM      4  C   UNL     1       3.727   6.861  17.572  0.00  0.00    +0.000 A 
ATOM      5  C   UNL     1       2.564   6.783  18.339  0.00  0.00    +0.000 A 
ATOM      6  N   UNL     1       1.969   5.604  18.572  0.00  0.00    +0.000 NA
ENDROOT
BRANCH   5   7
ATOM      7  N   UNL     1       1.965   7.952  18.848  0.00  0.00    +0.000 N 
ATOM      8  C   UNL     1       1.400   8.013  20.178  0.00  0.00    +0.000 C 
ATOM      9  C   UNL     1       0.946   9.428  20.298  0.00  0.00    +0.000 A 
ATOM     10  C   UNL     1       1.227  10.106  19.114  0.00  0.00    +0.000 A 
ATOM     11  C   UNL     1       0.879  11.429  18.917  0.00  0.00    +0.000 A 
ATOM     12  C   UNL     1       0.227  12.085  19.961  0.00  0.00    +0.000 A 
ATOM     13  C   UNL     1      -0.039  11.418  21.173  0.00  0.00    +0.000 A 
ATOM     14  C   UNL     1       0.327  10.073  21.366  0.00  0.00    +0.000 A 
ATOM     15  C   UNL     1       1.916   9.184  18.196  0.00  0.00    +0.000 C 
ATOM     16  O   UNL     1       2.327   9.541  17.110  0.00  0.00    +0.000 OA
BRANCH  14  17
ATOM     17  C   UNL     1       0.065   9.390  22.684  0.00  0.00    +0.000 C 
ATOM     18  F   UNL     1       1.196   8.965  23.312  0.00  0.00    +0.000 F 
ATOM     19  F   UNL     1      -0.564  10.206  23.572  0.00  0.00    +0.000 F 
ATOM     20  F   UNL     1      -0.724   8.290  22.553  0.00  0.00    +0.000 F 
ENDBRANCH  14  17
ENDBRANCH   5   7
BRANCH   3  21
ATOM     21  C   UNL     1       5.554   5.806  16.179  0.00  0.00    +0.000 C 
ATOM     22  C   UNL     1       5.260   5.502  14.707  0.00  0.00    +0.000 C 
BRANCH  21  23
ATOM     23  C   UNL     1       6.685   4.892  16.698  0.00  0.00    +0.000 C 
BRANCH  23  24
ATOM     24  C   UNL     1       7.159   5.298  18.052  0.00  0.00    +0.000 A 
ATOM     25  N   UNL     1       7.163   4.550  19.137  0.00  0.00    +0.000 NA
ATOM     26  N   UNL     1       7.740   5.274  20.153  0.00  0.00    +0.000 NA
ATOM     27  C   UNL     1       8.068   6.449  19.672  0.00  0.00    +0.000 A 
ATOM     28  N   UNL     1       7.703   6.518  18.363  0.00  0.00    +0.000 N 
ATOM     29  C   UNL     1       7.864   7.655  17.498  0.00  0.00    +0.000 C 
ENDBRANCH  23  24
ENDBRANCH  21  23
ENDBRANCH   3  21
BRANCH   1  30
ATOM     30  O   UNL     1       1.829   3.306  18.181  0.00  0.00    +0.000 OA
BRANCH  30  35
ATOM     31  C   UNL     1       2.142   3.192  21.796  0.00  0.00    +0.000 C 
ATOM     32  C   UNL     1       2.889   3.301  20.483  0.00  0.00    +0.000 C 
ATOM     33  O   UNL     1       4.099   2.492  20.499  0.00  0.00    +0.000 OA
ATOM     34  C   UNL     1       3.781   2.001  19.170  0.00  0.00    +0.000 C 
ATOM     35  C   UNL     1       2.332   2.510  19.284  0.00  0.00    +0.000 C 
ENDBRANCH  30  35
ENDBRANCH   1  30
TORSDOF 7
ENDMDL
MODEL 9
REMARK VINA RESULT:      -9.1      1.483      2.385
REMARK  Name = 
REMARK  10 active torsions:
REMARK  status: ('A' for Active; 'I' for Inactive)
REMARK    1  A    between atoms: C_1  and  C_2
REMARK    2  A    between atoms: C_5  and  O_6
REMARK    3  A    between atoms: O_6  and  C_7
REMARK    4  A    between atoms: C_9  and  C_10
REMARK    5  A    between atoms: C_10  and  C_11
REMARK    6  A    between atoms: C_10  and  C_12
REMARK    7  A    between atoms: C_12  and  C_13
REMARK    8  A    between atoms: N_17  and  C_18
REMARK    9  A    between atoms: C_20  and  N_21
REMARK   10  A    between atoms: C_28  and  C_29
REMARK                            x       y       z     vdW  Elec       q    Type
REMARK                         _______ _______ _______ _____ _____    ______ ____
ROOT
ATOM      1  C   UNL     1       3.127   4.411  18.483  0.00  0.00    +0.000 A 
ATOM      2  C   UNL     1       4.477   4.491  18.219  0.00  0.00    +0.000 A 
ATOM      3  C   UNL     1       5.095   5.731  18.334  0.00  0.00    +0.000 A 
ATOM      4  C   UNL     1       4.296   6.832  18.680  0.00  0.00    +0.000 A 
ATOM      5  C   UNL     1       2.929   6.669  18.905  0.00  0.00    +0.000 A 
ATOM      6  N   UNL     1       2.358   5.458  18.828  0.00  0.00    +0.000 NA
ENDROOT
BRANCH   5   7
ATOM      7  N   UNL     1       2.111   7.784  19.175  0.00  0.00    +0.000 N 
ATOM      8  C   UNL     1       1.491   7.992  20.464  0.00  0.00    +0.000 C 
ATOM      9  C   UNL     1       0.788   9.297  20.306  0.00  0.00    +0.000 A 
ATOM     10  C   UNL     1       0.991   9.778  19.014  0.00  0.00    +0.000 A 
ATOM     11  C   UNL     1       0.422  10.953  18.562  0.00  0.00    +0.000 A 
ATOM     12  C   UNL     1      -0.379  11.665  19.456  0.00  0.00    +0.000 A 
ATOM     13  C   UNL     1      -0.570  11.203  20.773  0.00  0.00    +0.000 A 
ATOM     14  C   UNL     1       0.021  10.009  21.224  0.00  0.00    +0.000 A 
ATOM     15  C   UNL     1       1.870   8.839  18.296  0.00  0.00    +0.000 C 
ATOM     16  O   UNL     1       2.254   9.053  17.163  0.00  0.00    +0.000 OA
BRANCH  14  17
ATOM     17  C   UNL     1      -0.168   9.552  22.648  0.00  0.00    +0.000 C 
ATOM     18  F   UNL     1       1.001   9.336  23.313  0.00  0.00    +0.000 F 
ATOM     19  F   UNL     1      -0.853  10.460  23.396  0.00  0.00    +0.000 F 
ATOM     20  F   UNL     1      -0.866   8.387  22.734  0.00  0.00    +0.000 F 
ENDBRANCH  14  17
ENDBRANCH   5   7
BRANCH   3  21
ATOM     21  C   UNL     1       6.586   5.927  18.106  0.00  0.00    +0.000 C 
ATOM     22  C   UNL     1       6.835   7.221  17.325  0.00  0.00    +0.000 C 
BRANCH  21  23
ATOM     23  C   UNL     1       7.251   4.733  17.389  0.00  0.00    +0.000 C 
BRANCH  23  24
ATOM     24  C   UNL     1       7.160   4.847  15.904  0.00  0.00    +0.000 A 
ATOM     25  N   UNL     1       7.862   5.658  15.137  0.00  0.00    +0.000 NA
ATOM     26  N   UNL     1       7.526   5.406  13.829  0.00  0.00    +0.000 NA
ATOM     27  C   UNL     1       6.622   4.455  13.823  0.00  0.00    +0.000 A 
ATOM     28  N   UNL     1       6.345   4.089  15.104  0.00  0.00    +0.000 N 
ATOM     29  C   UNL     1       5.384   3.101  15.512  0.00  0.00    +0.000 C 
ENDBRANCH  23  24
ENDBRANCH  21  23
ENDBRANCH   3  21
BRANCH   1  30
ATOM     30  O   UNL     1       2.516   3.185  18.320  0.00  0.00    +0.000 OA
BRANCH  30  35
ATOM     31  C   UNL     1       1.406   2.595  21.725  0.00  0.00    +0.000 C 
ATOM     32  C   UNL     1       2.579   2.970  20.845  0.00  0.00    +0.000 C 
ATOM     33  O   UNL     1       3.798   2.305  21.282  0.00  0.00    +0.000 OA
ATOM     34  C   UNL     1       4.105   1.976  19.901  0.00  0.00    +0.000 C 
ATOM     35  C   UNL     1       2.667   2.301  19.460  0.00  0.00    +0.000 C 
ENDBRANCH  30  35
ENDBRANCH   1  30
TORSDOF 7
ENDMDL
