MODEL 1
REMARK VINA RESULT:      -9.0      0.000      0.000
REMARK  Name = 
REMARK  7 active torsions:
REMARK  status: ('A' for Active; 'I' for Inactive)
REMARK    1  A    between atoms: C_1  and  N_2
REMARK    2  A    between atoms: C_6  and  C_7
REMARK    3  A    between atoms: C_7  and  C_8
REMARK    4  A    between atoms: C_8  and  C_9
REMARK    5  A    between atoms: C_13  and  N_14
REMARK    6  A    between atoms: C_15  and  C_17
REMARK    7  A    between atoms: C_21  and  C_22
REMARK                            x       y       z     vdW  Elec       q    Type
REMARK                         _______ _______ _______ _____ _____    ______ ____
ROOT
ATOM      1  C   UNL     1       4.560   4.769  17.340  0.00  0.00    +0.000 A 
ATOM      2  C   UNL     1       3.731   3.679  17.006  0.00  0.00    +0.000 A 
ATOM      3  C   UNL     1       2.419   3.588  17.462  0.00  0.00    +0.000 A 
ATOM      4  C   UNL     1       1.896   4.589  18.270  0.00  0.00    +0.000 A 
ATOM      5  C   UNL     1       2.677   5.686  18.633  0.00  0.00    +0.000 A 
ATOM      6  C   UNL     1       3.991   5.768  18.160  0.00  0.00    +0.000 A 
ENDROOT
BRANCH   1   7
ATOM      7  C   UNL     1       6.065   4.875  16.797  0.00  0.00    +0.000 C 
ATOM      8  C   UNL     1       7.182   4.687  17.867  0.00  0.00    +0.000 C 
ATOM      9  O   UNL     1       7.722   5.999  17.630  0.00  0.00    +0.000 OA
ATOM     10  C   UNL     1       6.696   6.290  16.658  0.00  0.00    +0.000 C 
BRANCH   7  11
ATOM     11  C   UNL     1       6.259   3.943  15.586  0.00  0.00    +0.000 C 
BRANCH  11  17
ATOM     12  C   UNL     1       5.769   3.370  12.472  0.00  0.00    +0.000 C 
ATOM     13  N   UNL     1       6.707   4.281  13.072  0.00  0.00    +0.000 N 
ATOM     14  C   UNL     1       7.610   5.026  12.374  0.00  0.00    +0.000 A 
ATOM     15  N   UNL     1       8.305   5.766  13.204  0.00  0.00    +0.000 NA
ATOM     16  N   UNL     1       7.865   5.489  14.472  0.00  0.00    +0.000 NA
ATOM     17  C   UNL     1       6.912   4.578  14.400  0.00  0.00    +0.000 A 
ENDBRANCH  11  17
ENDBRANCH   7  11
ENDBRANCH   1   7
BRANCH   5  18
ATOM     18  N   UNL     1       2.207   6.733  19.447  0.00  0.00    +0.000 N 
ATOM     19  C   UNL     1       1.826   7.994  19.030  0.00  0.00    +0.000 C 
ATOM     20  O   UNL     1       1.793   8.410  17.878  0.00  0.00    +0.000 OA
ATOM     21  H   UNL     1       2.088   6.547  20.442  0.00  0.00    +0.000 HD
BRANCH  19  22
ATOM     22  C   UNL     1       1.402   8.909  20.135  0.00  0.00    +0.000 A 
ATOM     23  C   UNL     1       1.224   8.383  21.395  0.00  0.00    +0.000 A 
ATOM     24  C   UNL     1       0.813   9.274  22.347  0.00  0.00    +0.000 A 
ATOM     25  N   UNL     1       0.592  10.574  22.092  0.00  0.00    +0.000 NA
ATOM     26  C   UNL     1       0.800  11.018  20.825  0.00  0.00    +0.000 A 
ATOM     27  N   UNL     1       1.208  10.211  19.813  0.00  0.00    +0.000 NA
BRANCH  26  28
ATOM     28  C   UNL     1       0.560  12.504  20.520  0.00  0.00    +0.000 C 
ATOM     29  F   UNL     1      -0.546  12.746  19.755  0.00  0.00    +0.000 F 
ATOM     30  F   UNL     1       0.394  13.253  21.651  0.00  0.00    +0.000 F 
ATOM     31  F   UNL     1       1.603  13.079  19.847  0.00  0.00    +0.000 F 
ENDBRANCH  26  28
ENDBRANCH  19  22
ENDBRANCH   5  18
TORSDOF 6
ENDMDL
MODEL 2
REMARK VINA RESULT:      -8.9      1.021      1.256
REMARK  Name = 
REMARK  7 active torsions:
REMARK  status: ('A' for Active; 'I' for Inactive)
REMARK    1  A    between atoms: C_1  and  N_2
REMARK    2  A    between atoms: C_6  and  C_7
REMARK    3  A    between atoms: C_7  and  C_8
REMARK    4  A    between atoms: C_8  and  C_9
REMARK    5  A    between atoms: C_13  and  N_14
REMARK    6  A    between atoms: C_15  and  C_17
REMARK    7  A    between atoms: C_21  and  C_22
REMARK                            x       y       z     vdW  Elec       q    Type
REMARK                         _______ _______ _______ _____ _____    ______ ____
ROOT
ATOM      1  C   UNL     1       4.631   4.892  17.255  0.00  0.00    +0.000 A 
ATOM      2  C   UNL     1       3.774   3.804  16.992  0.00  0.00    +0.000 A 
ATOM      3  C   UNL     1       2.439   3.809  17.385  0.00  0.00    +0.000 A 
ATOM      4  C   UNL     1       1.919   4.907  18.057  0.00  0.00    +0.000 A 
ATOM      5  C   UNL     1       2.726   6.007  18.346  0.00  0.00    +0.000 A 
ATOM      6  C   UNL     1       4.064   5.991  17.937  0.00  0.00    +0.000 A 
ENDROOT
BRANCH   1   7
ATOM      7  C   UNL     1       6.163   4.887  16.784  0.00  0.00    +0.000 C 
ATOM      8  C   UNL     1       7.211   4.614  17.904  0.00  0.00    +0.000 C 
ATOM      9  O   UNL     1       7.858   5.883  17.700  0.00  0.00    +0.000 OA
ATOM     10  C   UNL     1       6.903   6.251  16.682  0.00  0.00    +0.000 C 
BRANCH   7  11
ATOM     11  C   UNL     1       6.344   3.945  15.579  0.00  0.00    +0.000 C 
BRANCH  11  17
ATOM     12  C   UNL     1       5.769   3.343  12.485  0.00  0.00    +0.000 C 
ATOM     13  N   UNL     1       6.714   4.269  13.051  0.00  0.00    +0.000 N 
ATOM     14  C   UNL     1       7.587   5.020  12.321  0.00  0.00    +0.000 A 
ATOM     15  N   UNL     1       8.297   5.774  13.124  0.00  0.00    +0.000 NA
ATOM     16  N   UNL     1       7.898   5.501  14.407  0.00  0.00    +0.000 NA
ATOM     17  C   UNL     1       6.955   4.579  14.369  0.00  0.00    +0.000 A 
ENDBRANCH  11  17
ENDBRANCH   7  11
ENDBRANCH   1   7
BRANCH   5  18
ATOM     18  N   UNL     1       2.261   7.150  19.022  0.00  0.00    +0.000 N 
ATOM     19  C   UNL     1       1.691   7.188  20.281  0.00  0.00    +0.000 C 
ATOM     20  O   UNL     1       1.524   6.243  21.044  0.00  0.00    +0.000 OA
ATOM     21  H   UNL     1       2.390   8.055  18.574  0.00  0.00    +0.000 HD
BRANCH  19  22
ATOM     22  C   UNL     1       1.261   8.551  20.723  0.00  0.00    +0.000 A 
ATOM     23  C   UNL     1       0.956   8.748  22.052  0.00  0.00    +0.000 A 
ATOM     24  C   UNL     1       0.548  10.011  22.376  0.00  0.00    +0.000 A 
ATOM     25  N   UNL     1       0.444  11.005  21.479  0.00  0.00    +0.000 NA
ATOM     26  C   UNL     1       0.772  10.733  20.189  0.00  0.00    +0.000 A 
ATOM     27  N   UNL     1       1.188   9.511  19.770  0.00  0.00    +0.000 NA
BRANCH  26  28
ATOM     28  C   UNL     1       0.668  11.862  19.152  0.00  0.00    +0.000 C 
ATOM     29  F   UNL     1       0.460  13.099  19.693  0.00  0.00    +0.000 F 
ATOM     30  F   UNL     1       1.794  11.981  18.388  0.00  0.00    +0.000 F 
ATOM     31  F   UNL     1      -0.359  11.673  18.269  0.00  0.00    +0.000 F 
ENDBRANCH  26  28
ENDBRANCH  19  22
ENDBRANCH   5  18
TORSDOF 6
ENDMDL
MODEL 3
REMARK VINA RESULT:      -8.8      1.368      1.821
REMARK  Name = 
REMARK  7 active torsions:
REMARK  status: ('A' for Active; 'I' for Inactive)
REMARK    1  A    between atoms: C_1  and  N_2
REMARK    2  A    between atoms: C_6  and  C_7
REMARK    3  A    between atoms: C_7  and  C_8
REMARK    4  A    between atoms: C_8  and  C_9
REMARK    5  A    between atoms: C_13  and  N_14
REMARK    6  A    between atoms: C_15  and  C_17
REMARK    7  A    between atoms: C_21  and  C_22
REMARK                            x       y       z     vdW  Elec       q    Type
REMARK                         _______ _______ _______ _____ _____    ______ ____
ROOT
ATOM      1  C   UNL     1       4.639   5.193  17.379  0.00  0.00    +0.000 A 
ATOM      2  C   UNL     1       3.837   4.034  17.369  0.00  0.00    +0.000 A 
ATOM      3  C   UNL     1       2.488   4.071  17.711  0.00  0.00    +0.000 A 
ATOM      4  C   UNL     1       1.900   5.275  18.076  0.00  0.00    +0.000 A 
ATOM      5  C   UNL     1       2.651   6.449  18.108  0.00  0.00    +0.000 A 
ATOM      6  C   UNL     1       4.004   6.397  17.753  0.00  0.00    +0.000 A 
ENDROOT
BRANCH   1   7
ATOM      7  C   UNL     1       6.188   5.145  16.968  0.00  0.00    +0.000 C 
ATOM      8  C   UNL     1       7.192   4.953  18.143  0.00  0.00    +0.000 C 
ATOM      9  O   UNL     1       7.855   6.199  17.868  0.00  0.00    +0.000 OA
ATOM     10  C   UNL     1       6.941   6.494  16.791  0.00  0.00    +0.000 C 
BRANCH   7  11
ATOM     11  C   UNL     1       6.406   4.114  15.844  0.00  0.00    +0.000 C 
BRANCH  11  17
ATOM     12  C   UNL     1       5.614   3.423  12.818  0.00  0.00    +0.000 C 
ATOM     13  N   UNL     1       6.631   4.325  13.288  0.00  0.00    +0.000 N 
ATOM     14  C   UNL     1       7.489   5.006  12.476  0.00  0.00    +0.000 A 
ATOM     15  N   UNL     1       8.280   5.757  13.204  0.00  0.00    +0.000 NA
ATOM     16  N   UNL     1       7.950   5.551  14.519  0.00  0.00    +0.000 NA
ATOM     17  C   UNL     1       6.967   4.672  14.575  0.00  0.00    +0.000 A 
ENDBRANCH  11  17
ENDBRANCH   7  11
ENDBRANCH   1   7
BRANCH   5  18
ATOM     18  N   UNL     1       2.116   7.699  18.468  0.00  0.00    +0.000 N 
ATOM     19  C   UNL     1       1.663   8.073  19.719  0.00  0.00    +0.000 C 
ATOM     20  O   UNL     1       1.682   7.398  20.742  0.00  0.00    +0.000 OA
ATOM     21  H   UNL     1       2.093   8.431  17.759  0.00  0.00    +0.000 HD
BRANCH  19  22
ATOM     22  C   UNL     1       1.115   9.463  19.788  0.00  0.00    +0.000 A 
ATOM     23  C   UNL     1       1.311  10.304  18.716  0.00  0.00    +0.000 A 
ATOM     24  C   UNL     1       0.803  11.565  18.863  0.00  0.00    +0.000 A 
ATOM     25  N   UNL     1       0.155  11.974  19.965  0.00  0.00    +0.000 NA
ATOM     26  C   UNL     1      -0.007  11.082  20.976  0.00  0.00    +0.000 A 
ATOM     27  N   UNL     1       0.461   9.809  20.924  0.00  0.00    +0.000 NA
BRANCH  26  28
ATOM     28  C   UNL     1      -0.754  11.532  22.240  0.00  0.00    +0.000 C 
ATOM     29  F   UNL     1      -0.317  12.721  22.753  0.00  0.00    +0.000 F 
ATOM     30  F   UNL     1      -2.094  11.696  22.028  0.00  0.00    +0.000 F 
ATOM     31  F   UNL     1      -0.649  10.632  23.263  0.00  0.00    +0.000 F 
ENDBRANCH  26  28
ENDBRANCH  19  22
ENDBRANCH   5  18
TORSDOF 6
ENDMDL
MODEL 4
REMARK VINA RESULT:      -8.7      1.146      1.370
REMARK  Name = 
REMARK  7 active torsions:
REMARK  status: ('A' for Active; 'I' for Inactive)
REMARK    1  A    between atoms: C_1  and  N_2
REMARK    2  A    between atoms: C_6  and  C_7
REMARK    3  A    between atoms: C_7  and  C_8
REMARK    4  A    between atoms: C_8  and  C_9
REMARK    5  A    between atoms: C_13  and  N_14
REMARK    6  A    between atoms: C_15  and  C_17
REMARK    7  A    between atoms: C_21  and  C_22
REMARK                            x       y       z     vdW  Elec       q    Type
REMARK                         _______ _______ _______ _____ _____    ______ ____
ROOT
ATOM      1  C   UNL     1       4.561   4.951  17.244  0.00  0.00    +0.000 A 
ATOM      2  C   UNL     1       3.733   3.817  17.112  0.00  0.00    +0.000 A 
ATOM      3  C   UNL     1       2.393   3.839  17.489  0.00  0.00    +0.000 A 
ATOM      4  C   UNL     1       1.840   5.001  18.011  0.00  0.00    +0.000 A 
ATOM      5  C   UNL     1       2.618   6.148  18.166  0.00  0.00    +0.000 A 
ATOM      6  C   UNL     1       3.961   6.113  17.775  0.00  0.00    +0.000 A 
ENDROOT
BRANCH   1   7
ATOM      7  C   UNL     1       6.099   4.922  16.792  0.00  0.00    +0.000 C 
ATOM      8  C   UNL     1       7.129   4.643  17.927  0.00  0.00    +0.000 C 
ATOM      9  O   UNL     1       7.795   5.902  17.723  0.00  0.00    +0.000 OA
ATOM     10  C   UNL     1       6.858   6.276  16.692  0.00  0.00    +0.000 C 
BRANCH   7  11
ATOM     11  C   UNL     1       6.283   3.971  15.594  0.00  0.00    +0.000 C 
BRANCH  11  17
ATOM     12  C   UNL     1       5.731   3.369  12.496  0.00  0.00    +0.000 C 
ATOM     13  N   UNL     1       6.686   4.280  13.070  0.00  0.00    +0.000 N 
ATOM     14  C   UNL     1       7.580   5.012  12.347  0.00  0.00    +0.000 A 
ATOM     15  N   UNL     1       8.295   5.756  13.155  0.00  0.00    +0.000 NA
ATOM     16  N   UNL     1       7.877   5.494  14.435  0.00  0.00    +0.000 NA
ATOM     17  C   UNL     1       6.918   4.590  14.390  0.00  0.00    +0.000 A 
ENDBRANCH  11  17
ENDBRANCH   7  11
ENDBRANCH   1   7
BRANCH   5  18
ATOM     18  N   UNL     1       2.119   7.356  18.687  0.00  0.00    +0.000 N 
ATOM     19  C   UNL     1       1.640   7.567  19.966  0.00  0.00    +0.000 C 
ATOM     20  O   UNL     1       1.602   6.753  20.882  0.00  0.00    +0.000 OA
ATOM     21  H   UNL     1       2.146   8.181  18.090  0.00  0.00    +0.000 HD
BRANCH  19  22
ATOM     22  C   UNL     1       1.142   8.954  20.219  0.00  0.00    +0.000 A 
ATOM     23  C   UNL     1       0.238   9.155  21.238  0.00  0.00    +0.000 A 
ATOM     24  C   UNL     1      -0.190  10.444  21.392  0.00  0.00    +0.000 A 
ATOM     25  N   UNL     1       0.229  11.457  20.618  0.00  0.00    +0.000 NA
ATOM     26  C   UNL     1       1.130  11.179  19.640  0.00  0.00    +0.000 A 
ATOM     27  N   UNL     1       1.614   9.933  19.408  0.00  0.00    +0.000 NA
BRANCH  26  28
ATOM     28  C   UNL     1       1.625  12.330  18.750  0.00  0.00    +0.000 C 
ATOM     29  F   UNL     1       2.468  11.938  17.749  0.00  0.00    +0.000 F 
ATOM     30  F   UNL     1       0.604  12.993  18.131  0.00  0.00    +0.000 F 
ATOM     31  F   UNL     1       2.311  13.281  19.453  0.00  0.00    +0.000 F 
ENDBRANCH  26  28
ENDBRANCH  19  22
ENDBRANCH   5  18
TORSDOF 6
ENDMDL
MODEL 5
REMARK VINA RESULT:      -8.7      2.438      3.591
REMARK  Name = 
REMARK  7 active torsions:
REMARK  status: ('A' for Active; 'I' for Inactive)
REMARK    1  A    between atoms: C_1  and  N_2
REMARK    2  A    between atoms: C_6  and  C_7
REMARK    3  A    between atoms: C_7  and  C_8
REMARK    4  A    between atoms: C_8  and  C_9
REMARK    5  A    between atoms: C_13  and  N_14
REMARK    6  A    between atoms: C_15  and  C_17
REMARK    7  A    between atoms: C_21  and  C_22
REMARK                            x       y       z     vdW  Elec       q    Type
REMARK                         _______ _______ _______ _____ _____    ______ ____
ROOT
ATOM      1  C   UNL     1       4.295   4.759  16.854  0.00  0.00    +0.000 A 
ATOM      2  C   UNL     1       3.697   3.511  17.123  0.00  0.00    +0.000 A 
ATOM      3  C   UNL     1       2.582   3.394  17.948  0.00  0.00    +0.000 A 
ATOM      4  C   UNL     1       2.030   4.528  18.529  0.00  0.00    +0.000 A 
ATOM      5  C   UNL     1       2.587   5.785  18.299  0.00  0.00    +0.000 A 
ATOM      6  C   UNL     1       3.703   5.887  17.461  0.00  0.00    +0.000 A 
ENDROOT
BRANCH   1   7
ATOM      7  C   UNL     1       5.570   4.888  15.890  0.00  0.00    +0.000 C 
ATOM      8  C   UNL     1       5.264   4.873  14.363  0.00  0.00    +0.000 C 
ATOM      9  O   UNL     1       6.066   3.699  14.145  0.00  0.00    +0.000 OA
ATOM     10  C   UNL     1       6.367   3.596  15.553  0.00  0.00    +0.000 C 
BRANCH   7  11
ATOM     11  C   UNL     1       6.424   6.103  16.299  0.00  0.00    +0.000 C 
BRANCH  11  17
ATOM     12  C   UNL     1       8.025   8.331  17.953  0.00  0.00    +0.000 C 
ATOM     13  N   UNL     1       7.811   6.951  18.296  0.00  0.00    +0.000 N 
ATOM     14  C   UNL     1       8.331   6.342  19.400  0.00  0.00    +0.000 A 
ATOM     15  N   UNL     1       7.938   5.093  19.440  0.00  0.00    +0.000 NA
ATOM     16  N   UNL     1       7.161   4.869  18.333  0.00  0.00    +0.000 NA
ATOM     17  C   UNL     1       7.096   5.983  17.630  0.00  0.00    +0.000 A 
ENDBRANCH  11  17
ENDBRANCH   7  11
ENDBRANCH   1   7
BRANCH   5  18
ATOM     18  N   UNL     1       2.076   6.971  18.858  0.00  0.00    +0.000 N 
ATOM     19  C   UNL     1       2.096   8.228  18.283  0.00  0.00    +0.000 C 
ATOM     20  O   UNL     1       2.524   8.525  17.174  0.00  0.00    +0.000 OA
ATOM     21  H   UNL     1       1.601   6.909  19.757  0.00  0.00    +0.000 HD
BRANCH  19  22
ATOM     22  C   UNL     1       1.506   9.306  19.136  0.00  0.00    +0.000 A 
ATOM     23  C   UNL     1       1.517  10.600  18.665  0.00  0.00    +0.000 A 
ATOM     24  C   UNL     1       0.983  11.533  19.509  0.00  0.00    +0.000 A 
ATOM     25  N   UNL     1       0.478  11.231  20.716  0.00  0.00    +0.000 NA
ATOM     26  C   UNL     1       0.495   9.930  21.105  0.00  0.00    +0.000 A 
ATOM     27  N   UNL     1       1.002   8.932  20.337  0.00  0.00    +0.000 NA
BRANCH  26  28
ATOM     28  C   UNL     1      -0.088   9.568  22.479  0.00  0.00    +0.000 C 
ATOM     29  F   UNL     1       0.854   9.349  23.444  0.00  0.00    +0.000 F 
ATOM     30  F   UNL     1      -0.904  10.543  22.978  0.00  0.00    +0.000 F 
ATOM     31  F   UNL     1      -0.848   8.431  22.446  0.00  0.00    +0.000 F 
ENDBRANCH  26  28
ENDBRANCH  19  22
ENDBRANCH   5  18
TORSDOF 6
ENDMDL
MODEL 6
REMARK VINA RESULT:      -8.6      4.225      9.630
REMARK  Name = 
REMARK  7 active torsions:
REMARK  status: ('A' for Active; 'I' for Inactive)
REMARK    1  A    between atoms: C_1  and  N_2
REMARK    2  A    between atoms: C_6  and  C_7
REMARK    3  A    between atoms: C_7  and  C_8
REMARK    4  A    between atoms: C_8  and  C_9
REMARK    5  A    between atoms: C_13  and  N_14
REMARK    6  A    between atoms: C_15  and  C_17
REMARK    7  A    between atoms: C_21  and  C_22
REMARK                            x       y       z     vdW  Elec       q    Type
REMARK                         _______ _______ _______ _____ _____    ______ ____
ROOT
ATOM      1  C   UNL     1       0.088  10.326  20.093  0.00  0.00    +0.000 A 
ATOM      2  C   UNL     1      -0.239  10.077  21.441  0.00  0.00    +0.000 A 
ATOM      3  C   UNL     1       0.290   8.993  22.137  0.00  0.00    +0.000 A 
ATOM      4  C   UNL     1       1.166   8.124  21.501  0.00  0.00    +0.000 A 
ATOM      5  C   UNL     1       1.518   8.323  20.167  0.00  0.00    +0.000 A 
ATOM      6  C   UNL     1       0.984   9.422  19.483  0.00  0.00    +0.000 A 
ENDROOT
BRANCH   1   7
ATOM      7  C   UNL     1      -0.512  11.586  19.303  0.00  0.00    +0.000 C 
ATOM      8  C   UNL     1      -1.801  12.212  19.913  0.00  0.00    +0.000 C 
ATOM      9  O   UNL     1      -2.568  11.958  18.722  0.00  0.00    +0.000 OA
ATOM     10  C   UNL     1      -1.444  11.313  18.088  0.00  0.00    +0.000 C 
BRANCH   7  11
ATOM     11  C   UNL     1       0.589  12.638  19.067  0.00  0.00    +0.000 C 
BRANCH  11  17
ATOM     12  C   UNL     1      -0.383  15.674  19.385  0.00  0.00    +0.000 C 
ATOM     13  N   UNL     1       0.415  14.895  20.294  0.00  0.00    +0.000 N 
ATOM     14  C   UNL     1       0.951  15.375  21.452  0.00  0.00    +0.000 A 
ATOM     15  N   UNL     1       1.605  14.418  22.064  0.00  0.00    +0.000 NA
ATOM     16  N   UNL     1       1.515  13.293  21.285  0.00  0.00    +0.000 NA
ATOM     17  C   UNL     1       0.813  13.582  20.206  0.00  0.00    +0.000 A 
ENDBRANCH  11  17
ENDBRANCH   7  11
ENDBRANCH   1   7
BRANCH   5  18
ATOM     18  N   UNL     1       2.399   7.480  19.466  0.00  0.00    +0.000 N 
ATOM     19  C   UNL     1       2.482   6.105  19.569  0.00  0.00    +0.000 C 
ATOM     20  O   UNL     1       1.780   5.374  20.259  0.00  0.00    +0.000 OA
ATOM     21  H   UNL     1       3.016   7.903  18.774  0.00  0.00    +0.000 HD
BRANCH  19  22
ATOM     22  C   UNL     1       3.545   5.483  18.720  0.00  0.00    +0.000 A 
ATOM     23  C   UNL     1       3.165   4.665  17.681  0.00  0.00    +0.000 A 
ATOM     24  C   UNL     1       4.192   4.115  16.966  0.00  0.00    +0.000 A 
ATOM     25  N   UNL     1       5.486   4.343  17.240  0.00  0.00    +0.000 NA
ATOM     26  C   UNL     1       5.780   5.170  18.276  0.00  0.00    +0.000 A 
ATOM     27  N   UNL     1       4.831   5.764  19.044  0.00  0.00    +0.000 NA
BRANCH  26  28
ATOM     28  C   UNL     1       7.256   5.449  18.597  0.00  0.00    +0.000 C 
ATOM     29  F   UNL     1       7.522   5.584  19.930  0.00  0.00    +0.000 F 
ATOM     30  F   UNL     1       8.086   4.456  18.157  0.00  0.00    +0.000 F 
ATOM     31  F   UNL     1       7.714   6.598  18.015  0.00  0.00    +0.000 F 
ENDBRANCH  26  28
ENDBRANCH  19  22
ENDBRANCH   5  18
TORSDOF 6
ENDMDL
MODEL 7
REMARK VINA RESULT:      -8.6      1.132      1.353
REMARK  Name = 
REMARK  7 active torsions:
REMARK  status: ('A' for Active; 'I' for Inactive)
REMARK    1  A    between atoms: C_1  and  N_2
REMARK    2  A    between atoms: C_6  and  C_7
REMARK    3  A    between atoms: C_7  and  C_8
REMARK    4  A    between atoms: C_8  and  C_9
REMARK    5  A    between atoms: C_13  and  N_14
REMARK    6  A    between atoms: C_15  and  C_17
REMARK    7  A    between atoms: C_21  and  C_22
REMARK                            x       y       z     vdW  Elec       q    Type
REMARK                         _______ _______ _______ _____ _____    ______ ____
ROOT
ATOM      1  C   UNL     1       4.894   5.402  17.642  0.00  0.00    +0.000 A 
ATOM      2  C   UNL     1       4.167   4.241  17.307  0.00  0.00    +0.000 A 
ATOM      3  C   UNL     1       2.792   4.152  17.504  0.00  0.00    +0.000 A 
ATOM      4  C   UNL     1       2.101   5.228  18.045  0.00  0.00    +0.000 A 
ATOM      5  C   UNL     1       2.773   6.397  18.398  0.00  0.00    +0.000 A 
ATOM      6  C   UNL     1       4.154   6.474  18.186  0.00  0.00    +0.000 A 
ENDROOT
BRANCH   1   7
ATOM      7  C   UNL     1       6.475   5.502  17.396  0.00  0.00    +0.000 C 
ATOM      8  C   UNL     1       7.353   5.571  18.681  0.00  0.00    +0.000 C 
ATOM      9  O   UNL     1       7.899   6.852  18.319  0.00  0.00    +0.000 OA
ATOM     10  C   UNL     1       7.087   6.906  17.128  0.00  0.00    +0.000 C 
BRANCH   7  11
ATOM     11  C   UNL     1       6.935   4.386  16.439  0.00  0.00    +0.000 C 
BRANCH  11  17
ATOM     12  C   UNL     1       5.307   3.644  13.780  0.00  0.00    +0.000 C 
ATOM     13  N   UNL     1       6.488   4.457  13.903  0.00  0.00    +0.000 N 
ATOM     14  C   UNL     1       7.154   5.009  12.850  0.00  0.00    +0.000 A 
ATOM     15  N   UNL     1       8.173   5.707  13.291  0.00  0.00    +0.000 NA
ATOM     16  N   UNL     1       8.189   5.596  14.658  0.00  0.00    +0.000 NA
ATOM     17  C   UNL     1       7.184   4.826  15.031  0.00  0.00    +0.000 A 
ENDBRANCH  11  17
ENDBRANCH   7  11
ENDBRANCH   1   7
BRANCH   5  18
ATOM     18  N   UNL     1       2.132   7.521  18.950  0.00  0.00    +0.000 N 
ATOM     19  C   UNL     1       1.893   8.727  18.318  0.00  0.00    +0.000 C 
ATOM     20  O   UNL     1       2.163   9.017  17.158  0.00  0.00    +0.000 OA
ATOM     21  H   UNL     1       1.758   7.443  19.894  0.00  0.00    +0.000 HD
BRANCH  19  22
ATOM     22  C   UNL     1       1.219   9.751  19.174  0.00  0.00    +0.000 A 
ATOM     23  C   UNL     1       0.609   9.340  20.338  0.00  0.00    +0.000 A 
ATOM     24  C   UNL     1      -0.007  10.328  21.055  0.00  0.00    +0.000 A 
ATOM     25  N   UNL     1      -0.027  11.614  20.670  0.00  0.00    +0.000 NA
ATOM     26  C   UNL     1       0.606  11.941  19.513  0.00  0.00    +0.000 A 
ATOM     27  N   UNL     1       1.245  11.033  18.733  0.00  0.00    +0.000 NA
BRANCH  26  28
ATOM     28  C   UNL     1       0.598  13.410  19.064  0.00  0.00    +0.000 C 
ATOM     29  F   UNL     1       1.490  13.694  18.068  0.00  0.00    +0.000 F 
ATOM     30  F   UNL     1      -0.619  13.809  18.588  0.00  0.00    +0.000 F 
ATOM     31  F   UNL     1       0.899  14.274  20.080  0.00  0.00    +0.000 F 
ENDBRANCH  26  28
ENDBRANCH  19  22
ENDBRANCH   5  18
TORSDOF 6
ENDMDL
MODEL 8
REMARK VINA RESULT:      -8.6      2.713      3.885
REMARK  Name = 
REMARK  7 active torsions:
REMARK  status: ('A' for Active; 'I' for Inactive)
REMARK    1  A    between atoms: C_1  and  N_2
REMARK    2  A    between atoms: C_6  and  C_7
REMARK    3  A    between atoms: C_7  and  C_8
REMARK    4  A    between atoms: C_8  and  C_9
REMARK    5  A    between atoms: C_13  and  N_14
REMARK    6  A    between atoms: C_15  and  C_17
REMARK    7  A    between atoms: C_21  and  C_22
REMARK                            x       y       z     vdW  Elec       q    Type
REMARK                         _______ _______ _______ _____ _____    ______ ____
ROOT
ATOM      1  C   UNL     1       3.226   5.388  18.324  0.00  0.00    +0.000 A 
ATOM      2  C   UNL     1       3.763   6.076  17.217  0.00  0.00    +0.000 A 
ATOM      3  C   UNL     1       3.589   7.447  17.049  0.00  0.00    +0.000 A 
ATOM      4  C   UNL     1       2.870   8.173  17.989  0.00  0.00    +0.000 A 
ATOM      5  C   UNL     1       2.314   7.540  19.099  0.00  0.00    +0.000 A 
ATOM      6  C   UNL     1       2.504   6.162  19.258  0.00  0.00    +0.000 A 
ENDROOT
BRANCH   1   7
ATOM      7  C   UNL     1       3.444   3.812  18.519  0.00  0.00    +0.000 C 
ATOM      8  C   UNL     1       2.357   2.897  17.881  0.00  0.00    +0.000 C 
ATOM      9  O   UNL     1       2.004   2.319  19.150  0.00  0.00    +0.000 OA
ATOM     10  C   UNL     1       2.949   3.162  19.842  0.00  0.00    +0.000 C 
BRANCH   7  11
ATOM     11  C   UNL     1       4.867   3.415  18.080  0.00  0.00    +0.000 C 
BRANCH  11  17
ATOM     12  C   UNL     1       7.246   4.735  16.388  0.00  0.00    +0.000 C 
ATOM     13  N   UNL     1       6.983   4.856  17.797  0.00  0.00    +0.000 N 
ATOM     14  C   UNL     1       7.778   5.533  18.673  0.00  0.00    +0.000 A 
ATOM     15  N   UNL     1       7.259   5.474  19.875  0.00  0.00    +0.000 NA
ATOM     16  N   UNL     1       6.111   4.728  19.793  0.00  0.00    +0.000 NA
ATOM     17  C   UNL     1       5.950   4.336  18.543  0.00  0.00    +0.000 A 
ENDBRANCH  11  17
ENDBRANCH   7  11
ENDBRANCH   1   7
BRANCH   5  18
ATOM     18  N   UNL     1       1.575   8.217  20.087  0.00  0.00    +0.000 N 
ATOM     19  C   UNL     1       0.813   9.356  19.910  0.00  0.00    +0.000 C 
ATOM     20  O   UNL     1       0.614   9.954  18.858  0.00  0.00    +0.000 OA
ATOM     21  H   UNL     1       1.552   7.818  21.024  0.00  0.00    +0.000 HD
BRANCH  19  22
ATOM     22  C   UNL     1       0.168   9.868  21.158  0.00  0.00    +0.000 A 
ATOM     23  C   UNL     1       0.448   9.241  22.351  0.00  0.00    +0.000 A 
ATOM     24  C   UNL     1      -0.197   9.750  23.443  0.00  0.00    +0.000 A 
ATOM     25  N   UNL     1      -1.047  10.787  23.380  0.00  0.00    +0.000 NA
ATOM     26  C   UNL     1      -1.264  11.358  22.167  0.00  0.00    +0.000 A 
ATOM     27  N   UNL     1      -0.671  10.925  21.026  0.00  0.00    +0.000 NA
BRANCH  26  28
ATOM     28  C   UNL     1      -2.228  12.551  22.080  0.00  0.00    +0.000 C 
ATOM     29  F   UNL     1      -1.679  13.741  22.465  0.00  0.00    +0.000 F 
ATOM     30  F   UNL     1      -2.696  12.757  20.813  0.00  0.00    +0.000 F 
ATOM     31  F   UNL     1      -3.338  12.390  22.862  0.00  0.00    +0.000 F 
ENDBRANCH  26  28
ENDBRANCH  19  22
ENDBRANCH   5  18
TORSDOF 6
ENDMDL
MODEL 9
REMARK VINA RESULT:      -8.5      4.653      9.163
REMARK  Name = 
REMARK  7 active torsions:
REMARK  status: ('A' for Active; 'I' for Inactive)
REMARK    1  A    between atoms: C_1  and  N_2
REMARK    2  A    between atoms: C_6  and  C_7
REMARK    3  A    between atoms: C_7  and  C_8
REMARK    4  A    between atoms: C_8  and  C_9
REMARK    5  A    between atoms: C_13  and  N_14
REMARK    6  A    between atoms: C_15  and  C_17
REMARK    7  A    between atoms: C_21  and  C_22
REMARK                            x       y       z     vdW  Elec       q    Type
REMARK                         _______ _______ _______ _____ _____    ______ ____
ROOT
ATOM      1  C   UNL     1       0.177  10.223  20.050  0.00  0.00    +0.000 A 
ATOM      2  C   UNL     1      -0.342  10.300  21.358  0.00  0.00    +0.000 A 
ATOM      3  C   UNL     1      -0.004   9.371  22.338  0.00  0.00    +0.000 A 
ATOM      4  C   UNL     1       0.867   8.333  22.036  0.00  0.00    +0.000 A 
ATOM      5  C   UNL     1       1.404   8.208  20.755  0.00  0.00    +0.000 A 
ATOM      6  C   UNL     1       1.062   9.155  19.783  0.00  0.00    +0.000 A 
ENDROOT
BRANCH   1   7
ATOM      7  C   UNL     1      -0.204  11.306  18.931  0.00  0.00    +0.000 C 
ATOM      8  C   UNL     1       0.983  12.154  18.383  0.00  0.00    +0.000 C 
ATOM      9  O   UNL     1       0.386  13.390  18.816  0.00  0.00    +0.000 OA
ATOM     10  C   UNL     1      -0.732  12.691  19.402  0.00  0.00    +0.000 C 
BRANCH   7  11
ATOM     11  C   UNL     1      -1.012  10.640  17.801  0.00  0.00    +0.000 C 
BRANCH  11  17
ATOM     12  C   UNL     1      -2.986  10.752  15.279  0.00  0.00    +0.000 C 
ATOM     13  N   UNL     1      -3.271  11.088  16.649  0.00  0.00    +0.000 N 
ATOM     14  C   UNL     1      -4.463  11.584  17.086  0.00  0.00    +0.000 A 
ATOM     15  N   UNL     1      -4.413  11.769  18.383  0.00  0.00    +0.000 NA
ATOM     16  N   UNL     1      -3.160  11.406  18.804  0.00  0.00    +0.000 NA
ATOM     17  C   UNL     1      -2.460  11.012  17.757  0.00  0.00    +0.000 A 
ENDBRANCH  11  17
ENDBRANCH   7  11
ENDBRANCH   1   7
BRANCH   5  18
ATOM     18  N   UNL     1       2.291   7.181  20.385  0.00  0.00    +0.000 N 
ATOM     19  C   UNL     1       2.017   5.827  20.350  0.00  0.00    +0.000 C 
ATOM     20  O   UNL     1       0.945   5.286  20.598  0.00  0.00    +0.000 OA
ATOM     21  H   UNL     1       3.221   7.446  20.065  0.00  0.00    +0.000 HD
BRANCH  19  22
ATOM     22  C   UNL     1       3.175   4.971  19.948  0.00  0.00    +0.000 A 
ATOM     23  C   UNL     1       3.038   3.603  20.010  0.00  0.00    +0.000 A 
ATOM     24  C   UNL     1       4.146   2.888  19.650  0.00  0.00    +0.000 A 
ATOM     25  N   UNL     1       5.297   3.459  19.261  0.00  0.00    +0.000 NA
ATOM     26  C   UNL     1       5.350   4.816  19.217  0.00  0.00    +0.000 A 
ATOM     27  N   UNL     1       4.303   5.611  19.554  0.00  0.00    +0.000 NA
BRANCH  26  28
ATOM     28  C   UNL     1       6.657   5.485  18.765  0.00  0.00    +0.000 C 
ATOM     29  F   UNL     1       7.463   5.887  19.792  0.00  0.00    +0.000 F 
ATOM     30  F   UNL     1       7.430   4.662  17.995  0.00  0.00    +0.000 F 
ATOM     31  F   UNL     1       6.443   6.604  18.009  0.00  0.00    +0.000 F 
ENDBRANCH  26  28
ENDBRANCH  19  22
ENDBRANCH   5  18
TORSDOF 6
ENDMDL
