MODEL 1
REMARK VINA RESULT:      -9.0      0.000      0.000
REMARK  Name = 
REMARK  7 active torsions:
REMARK  status: ('A' for Active; 'I' for Inactive)
REMARK    1  A    between atoms: C_1  and  C_2
REMARK    2  A    between atoms: C_2  and  C_3
REMARK    3  A    between atoms: C_2  and  C_10
REMARK    4  A    between atoms: C_3  and  C_4
REMARK    5  A    between atoms: N_8  and  C_9
REMARK    6  A    between atoms: C_12  and  C_13
REMARK    7  A    between atoms: C_28  and  C_29
REMARK                            x       y       z     vdW  Elec       q    Type
REMARK                         _______ _______ _______ _____ _____    ______ ____
ROOT
ATOM      1  C   UNL     1       3.793   7.258  17.741  0.00  0.00    +0.000 A 
ATOM      2  C   UNL     1       3.790   6.053  18.442  0.00  0.00    +0.000 A 
ATOM      3  C   UNL     1       2.890   5.865  19.489  0.00  0.00    +0.000 A 
ATOM      4  N   UNL     1       2.052   6.842  19.902  0.00  0.00    +0.000 NA
ATOM      5  C   UNL     1       2.052   8.020  19.252  0.00  0.00    +0.000 A 
ATOM      6  N   UNL     1       1.226   9.066  19.700  0.00  0.00    +0.000 N 
ATOM      7  C   UNL     1       1.150  10.342  19.012  0.00  0.00    +0.000 C 
ATOM      8  C   UNL     1       0.210  11.138  19.851  0.00  0.00    +0.000 A 
ATOM      9  C   UNL     1      -0.180  10.371  20.948  0.00  0.00    +0.000 A 
ATOM     10  C   UNL     1      -1.014  10.857  21.934  0.00  0.00    +0.000 A 
ATOM     11  C   UNL     1      -1.472  12.168  21.801  0.00  0.00    +0.000 A 
ATOM     12  C   UNL     1      -1.102  12.947  20.689  0.00  0.00    +0.000 A 
ATOM     13  C   UNL     1      -0.249  12.440  19.687  0.00  0.00    +0.000 A 
ATOM     14  C   UNL     1       0.444   9.041  20.850  0.00  0.00    +0.000 C 
ATOM     15  O   UNL     1       0.247   8.181  21.684  0.00  0.00    +0.000 OA
ATOM     16  C   UNL     1       2.882   8.230  18.153  0.00  0.00    +0.000 A 
ENDROOT
BRANCH   3  17
ATOM     17  C   UNL     1       2.785   4.561  20.175  0.00  0.00    +0.000 C 
ATOM     18  C   UNL     1       3.722   3.602  20.028  0.00  0.00    +0.000 C 
ATOM     19  C   UNL     1       3.700   2.314  20.792  0.00  0.00    +0.000 C 
ATOM     20  O   UNL     1       2.771   2.346  21.883  0.00  0.00    +0.000 OA
ATOM     21  C   UNL     1       1.498   2.838  21.468  0.00  0.00    +0.000 C 
ATOM     22  C   UNL     1       1.614   4.312  21.090  0.00  0.00    +0.000 C 
ENDBRANCH   3  17
BRANCH  13  23
ATOM     23  C   UNL     1       0.115  13.289  18.496  0.00  0.00    +0.000 C 
ATOM     24  F   UNL     1      -0.609  12.997  17.378  0.00  0.00    +0.000 F 
ATOM     25  F   UNL     1      -0.077  14.616  18.726  0.00  0.00    +0.000 F 
ATOM     26  F   UNL     1       1.420  13.151  18.137  0.00  0.00    +0.000 F 
ENDBRANCH  13  23
BRANCH   1  28
ATOM     27  C   UNL     1       4.598   6.516  15.410  0.00  0.00    +0.000 C 
ATOM     28  C   UNL     1       4.772   7.487  16.596  0.00  0.00    +0.000 C 
BRANCH  28  29
ATOM     29  C   UNL     1       6.247   7.555  17.061  0.00  0.00    +0.000 C 
BRANCH  29  30
ATOM     30  C   UNL     1       6.947   6.241  16.992  0.00  0.00    +0.000 A 
ATOM     31  N   UNL     1       7.332   5.621  15.894  0.00  0.00    +0.000 NA
ATOM     32  N   UNL     1       7.853   4.401  16.244  0.00  0.00    +0.000 NA
ATOM     33  C   UNL     1       7.809   4.314  17.552  0.00  0.00    +0.000 A 
ATOM     34  N   UNL     1       7.292   5.462  18.067  0.00  0.00    +0.000 N 
ATOM     35  C   UNL     1       7.178   5.782  19.464  0.00  0.00    +0.000 C 
ENDBRANCH  29  30
ENDBRANCH  28  29
ENDBRANCH   1  28
TORSDOF 5
ENDMDL
MODEL 2
REMARK VINA RESULT:      -8.9      0.858      1.162
REMARK  Name = 
REMARK  7 active torsions:
REMARK  status: ('A' for Active; 'I' for Inactive)
REMARK    1  A    between atoms: C_1  and  C_2
REMARK    2  A    between atoms: C_2  and  C_3
REMARK    3  A    between atoms: C_2  and  C_10
REMARK    4  A    between atoms: C_3  and  C_4
REMARK    5  A    between atoms: N_8  and  C_9
REMARK    6  A    between atoms: C_12  and  C_13
REMARK    7  A    between atoms: C_28  and  C_29
REMARK                            x       y       z     vdW  Elec       q    Type
REMARK                         _______ _______ _______ _____ _____    ______ ____
ROOT
ATOM      1  C   UNL     1       3.630   7.336  17.656  0.00  0.00    +0.000 A 
ATOM      2  C   UNL     1       3.366   6.059  18.150  0.00  0.00    +0.000 A 
ATOM      3  C   UNL     1       2.369   5.881  19.106  0.00  0.00    +0.000 A 
ATOM      4  N   UNL     1       1.681   6.919  19.631  0.00  0.00    +0.000 NA
ATOM      5  C   UNL     1       1.933   8.162  19.184  0.00  0.00    +0.000 A 
ATOM      6  N   UNL     1       1.266   9.261  19.755  0.00  0.00    +0.000 N 
ATOM      7  C   UNL     1       1.463  10.619  19.282  0.00  0.00    +0.000 C 
ATOM      8  C   UNL     1       0.611  11.435  20.192  0.00  0.00    +0.000 A 
ATOM      9  C   UNL     1       0.012  10.594  21.128  0.00  0.00    +0.000 A 
ATOM     10  C   UNL     1      -0.801  11.068  22.138  0.00  0.00    +0.000 A 
ATOM     11  C   UNL     1      -1.016  12.444  22.198  0.00  0.00    +0.000 A 
ATOM     12  C   UNL     1      -0.433  13.303  21.248  0.00  0.00    +0.000 A 
ATOM     13  C   UNL     1       0.396  12.808  20.220  0.00  0.00    +0.000 A 
ATOM     14  C   UNL     1       0.405   9.203  20.845  0.00  0.00    +0.000 C 
ATOM     15  O   UNL     1      -0.001   8.277  21.517  0.00  0.00    +0.000 OA
ATOM     16  C   UNL     1       2.869   8.383  18.175  0.00  0.00    +0.000 A 
ENDROOT
BRANCH   3  17
ATOM     17  C   UNL     1       1.989   4.528  19.564  0.00  0.00    +0.000 C 
ATOM     18  C   UNL     1       1.520   3.594  18.712  0.00  0.00    +0.000 C 
ATOM     19  C   UNL     1       1.231   2.184  19.124  0.00  0.00    +0.000 C 
ATOM     20  O   UNL     1       1.778   1.871  20.412  0.00  0.00    +0.000 OA
ATOM     21  C   UNL     1       1.452   2.874  21.373  0.00  0.00    +0.000 C 
ATOM     22  C   UNL     1       2.165   4.177  21.019  0.00  0.00    +0.000 C 
ENDBRANCH   3  17
BRANCH  13  23
ATOM     23  C   UNL     1       0.991  13.748  19.203  0.00  0.00    +0.000 C 
ATOM     24  F   UNL     1       2.354  13.745  19.192  0.00  0.00    +0.000 F 
ATOM     25  F   UNL     1       0.610  13.447  17.933  0.00  0.00    +0.000 F 
ATOM     26  F   UNL     1       0.626  15.041  19.412  0.00  0.00    +0.000 F 
ENDBRANCH  13  23
BRANCH   1  28
ATOM     27  C   UNL     1       4.636   6.604  15.401  0.00  0.00    +0.000 C 
ATOM     28  C   UNL     1       4.719   7.554  16.613  0.00  0.00    +0.000 C 
BRANCH  28  29
ATOM     29  C   UNL     1       6.144   7.579  17.218  0.00  0.00    +0.000 C 
BRANCH  29  30
ATOM     30  C   UNL     1       6.861   6.278  17.087  0.00  0.00    +0.000 A 
ATOM     31  N   UNL     1       7.393   5.790  15.984  0.00  0.00    +0.000 NA
ATOM     32  N   UNL     1       7.876   4.535  16.254  0.00  0.00    +0.000 NA
ATOM     33  C   UNL     1       7.661   4.293  17.525  0.00  0.00    +0.000 A 
ATOM     34  N   UNL     1       7.068   5.375  18.099  0.00  0.00    +0.000 N 
ATOM     35  C   UNL     1       6.768   5.528  19.497  0.00  0.00    +0.000 C 
ENDBRANCH  29  30
ENDBRANCH  28  29
ENDBRANCH   1  28
TORSDOF 5
ENDMDL
MODEL 3
REMARK VINA RESULT:      -8.8      0.743      1.080
REMARK  Name = 
REMARK  7 active torsions:
REMARK  status: ('A' for Active; 'I' for Inactive)
REMARK    1  A    between atoms: C_1  and  C_2
REMARK    2  A    between atoms: C_2  and  C_3
REMARK    3  A    between atoms: C_2  and  C_10
REMARK    4  A    between atoms: C_3  and  C_4
REMARK    5  A    between atoms: N_8  and  C_9
REMARK    6  A    between atoms: C_12  and  C_13
REMARK    7  A    between atoms: C_28  and  C_29
REMARK                            x       y       z     vdW  Elec       q    Type
REMARK                         _______ _______ _______ _____ _____    ______ ____
ROOT
ATOM      1  C   UNL     1       3.668   7.344  17.715  0.00  0.00    +0.000 A 
ATOM      2  C   UNL     1       3.487   6.081  18.277  0.00  0.00    +0.000 A 
ATOM      3  C   UNL     1       2.519   5.896  19.262  0.00  0.00    +0.000 A 
ATOM      4  N   UNL     1       1.781   6.919  19.747  0.00  0.00    +0.000 NA
ATOM      5  C   UNL     1       1.953   8.149  19.233  0.00  0.00    +0.000 A 
ATOM      6  N   UNL     1       1.233   9.236  19.761  0.00  0.00    +0.000 N 
ATOM      7  C   UNL     1       1.344  10.577  19.216  0.00  0.00    +0.000 C 
ATOM      8  C   UNL     1       0.462  11.390  20.101  0.00  0.00    +0.000 A 
ATOM      9  C   UNL     1      -0.072  10.565  21.090  0.00  0.00    +0.000 A 
ATOM     10  C   UNL     1      -0.893  11.043  22.091  0.00  0.00    +0.000 A 
ATOM     11  C   UNL     1      -1.186  12.407  22.086  0.00  0.00    +0.000 A 
ATOM     12  C   UNL     1      -0.670  13.247  21.082  0.00  0.00    +0.000 A 
ATOM     13  C   UNL     1       0.168  12.748  20.064  0.00  0.00    +0.000 A 
ATOM     14  C   UNL     1       0.396   9.186  20.870  0.00  0.00    +0.000 C 
ATOM     15  O   UNL     1       0.056   8.274  21.596  0.00  0.00    +0.000 OA
ATOM     16  C   UNL     1       2.858   8.371  18.196  0.00  0.00    +0.000 A 
ENDROOT
BRANCH   3  17
ATOM     17  C   UNL     1       2.226   4.549  19.795  0.00  0.00    +0.000 C 
ATOM     18  C   UNL     1       2.296   4.274  21.113  0.00  0.00    +0.000 C 
ATOM     19  C   UNL     1       1.901   2.953  21.694  0.00  0.00    +0.000 C 
ATOM     20  O   UNL     1       1.176   2.143  20.760  0.00  0.00    +0.000 OA
ATOM     21  C   UNL     1       1.838   2.087  19.497  0.00  0.00    +0.000 C 
ATOM     22  C   UNL     1       1.804   3.464  18.838  0.00  0.00    +0.000 C 
ENDBRANCH   3  17
BRANCH  13  23
ATOM     23  C   UNL     1       0.690  13.666  18.990  0.00  0.00    +0.000 C 
ATOM     24  F   UNL     1       0.326  14.968  19.162  0.00  0.00    +0.000 F 
ATOM     25  F   UNL     1       2.049  13.668  18.924  0.00  0.00    +0.000 F 
ATOM     26  F   UNL     1       0.251  13.321  17.750  0.00  0.00    +0.000 F 
ENDBRANCH  13  23
BRANCH   1  28
ATOM     27  C   UNL     1       4.606   6.626  15.426  0.00  0.00    +0.000 C 
ATOM     28  C   UNL     1       4.725   7.569  16.641  0.00  0.00    +0.000 C 
BRANCH  28  29
ATOM     29  C   UNL     1       6.168   7.592  17.202  0.00  0.00    +0.000 C 
BRANCH  29  30
ATOM     30  C   UNL     1       6.872   6.285  17.066  0.00  0.00    +0.000 A 
ATOM     31  N   UNL     1       7.328   5.760  15.947  0.00  0.00    +0.000 NA
ATOM     32  N   UNL     1       7.826   4.512  16.224  0.00  0.00    +0.000 NA
ATOM     33  C   UNL     1       7.698   4.313  17.515  0.00  0.00    +0.000 A 
ATOM     34  N   UNL     1       7.147   5.415  18.091  0.00  0.00    +0.000 N 
ATOM     35  C   UNL     1       6.942   5.615  19.500  0.00  0.00    +0.000 C 
ENDBRANCH  29  30
ENDBRANCH  28  29
ENDBRANCH   1  28
TORSDOF 5
ENDMDL
MODEL 4
REMARK VINA RESULT:      -8.5      1.038      1.389
REMARK  Name = 
REMARK  7 active torsions:
REMARK  status: ('A' for Active; 'I' for Inactive)
REMARK    1  A    between atoms: C_1  and  C_2
REMARK    2  A    between atoms: C_2  and  C_3
REMARK    3  A    between atoms: C_2  and  C_10
REMARK    4  A    between atoms: C_3  and  C_4
REMARK    5  A    between atoms: N_8  and  C_9
REMARK    6  A    between atoms: C_12  and  C_13
REMARK    7  A    between atoms: C_28  and  C_29
REMARK                            x       y       z     vdW  Elec       q    Type
REMARK                         _______ _______ _______ _____ _____    ______ ____
ROOT
ATOM      1  C   UNL     1       3.994   7.042  17.834  0.00  0.00    +0.000 A 
ATOM      2  C   UNL     1       3.939   5.842  18.543  0.00  0.00    +0.000 A 
ATOM      3  C   UNL     1       2.998   5.683  19.558  0.00  0.00    +0.000 A 
ATOM      4  N   UNL     1       2.167   6.680  19.933  0.00  0.00    +0.000 NA
ATOM      5  C   UNL     1       2.216   7.852  19.275  0.00  0.00    +0.000 A 
ATOM      6  N   UNL     1       1.397   8.920  19.685  0.00  0.00    +0.000 N 
ATOM      7  C   UNL     1       1.373  10.192  18.985  0.00  0.00    +0.000 C 
ATOM      8  C   UNL     1       0.421  11.014  19.784  0.00  0.00    +0.000 A 
ATOM      9  C   UNL     1      -0.025  10.265  20.872  0.00  0.00    +0.000 A 
ATOM     10  C   UNL     1      -0.883  10.776  21.824  0.00  0.00    +0.000 A 
ATOM     11  C   UNL     1      -1.307  12.095  21.664  0.00  0.00    +0.000 A 
ATOM     12  C   UNL     1      -0.881  12.857  20.560  0.00  0.00    +0.000 A 
ATOM     13  C   UNL     1      -0.003  12.324  19.594  0.00  0.00    +0.000 A 
ATOM     14  C   UNL     1       0.574   8.921  20.806  0.00  0.00    +0.000 C 
ATOM     15  O   UNL     1       0.329   8.072  21.639  0.00  0.00    +0.000 OA
ATOM     16  C   UNL     1       3.089   8.036  18.205  0.00  0.00    +0.000 A 
ENDROOT
BRANCH   3  17
ATOM     17  C   UNL     1       2.840   4.386  20.249  0.00  0.00    +0.000 C 
ATOM     18  C   UNL     1       3.738   3.390  20.107  0.00  0.00    +0.000 C 
ATOM     19  C   UNL     1       3.664   2.108  20.877  0.00  0.00    +0.000 C 
ATOM     20  O   UNL     1       2.736   2.181  21.967  0.00  0.00    +0.000 OA
ATOM     21  C   UNL     1       1.484   2.722  21.548  0.00  0.00    +0.000 C 
ATOM     22  C   UNL     1       1.660   4.189  21.164  0.00  0.00    +0.000 C 
ENDBRANCH   3  17
BRANCH  13  23
ATOM     23  C   UNL     1       0.422  13.155  18.411  0.00  0.00    +0.000 C 
ATOM     24  F   UNL     1       1.628  12.788  17.893  0.00  0.00    +0.000 F 
ATOM     25  F   UNL     1      -0.462  13.080  17.380  0.00  0.00    +0.000 F 
ATOM     26  F   UNL     1       0.538  14.476  18.716  0.00  0.00    +0.000 F 
ENDBRANCH  13  23
BRANCH   1  28
ATOM     27  C   UNL     1       4.436   7.134  15.298  0.00  0.00    +0.000 C 
ATOM     28  C   UNL     1       5.018   7.240  16.723  0.00  0.00    +0.000 C 
BRANCH  28  29
ATOM     29  C   UNL     1       6.276   6.353  16.890  0.00  0.00    +0.000 C 
BRANCH  29  30
ATOM     30  C   UNL     1       6.480   5.404  15.759  0.00  0.00    +0.000 A 
ATOM     31  N   UNL     1       7.322   5.558  14.756  0.00  0.00    +0.000 NA
ATOM     32  N   UNL     1       7.146   4.518  13.878  0.00  0.00    +0.000 NA
ATOM     33  C   UNL     1       6.225   3.730  14.379  0.00  0.00    +0.000 A 
ATOM     34  N   UNL     1       5.811   4.220  15.579  0.00  0.00    +0.000 N 
ATOM     35  C   UNL     1       4.885   3.581  16.475  0.00  0.00    +0.000 C 
ENDBRANCH  29  30
ENDBRANCH  28  29
ENDBRANCH   1  28
TORSDOF 5
ENDMDL
MODEL 5
REMARK VINA RESULT:      -8.3      1.368      1.867
REMARK  Name = 
REMARK  7 active torsions:
REMARK  status: ('A' for Active; 'I' for Inactive)
REMARK    1  A    between atoms: C_1  and  C_2
REMARK    2  A    between atoms: C_2  and  C_3
REMARK    3  A    between atoms: C_2  and  C_10
REMARK    4  A    between atoms: C_3  and  C_4
REMARK    5  A    between atoms: N_8  and  C_9
REMARK    6  A    between atoms: C_12  and  C_13
REMARK    7  A    between atoms: C_28  and  C_29
REMARK                            x       y       z     vdW  Elec       q    Type
REMARK                         _______ _______ _______ _____ _____    ______ ____
ROOT
ATOM      1  C   UNL     1       4.038   6.784  17.298  0.00  0.00    +0.000 A 
ATOM      2  C   UNL     1       3.597   5.581  17.848  0.00  0.00    +0.000 A 
ATOM      3  C   UNL     1       2.541   5.583  18.756  0.00  0.00    +0.000 A 
ATOM      4  N   UNL     1       1.958   6.727  19.181  0.00  0.00    +0.000 NA
ATOM      5  C   UNL     1       2.382   7.900  18.678  0.00  0.00    +0.000 A 
ATOM      6  N   UNL     1       1.826   9.104  19.147  0.00  0.00    +0.000 N 
ATOM      7  C   UNL     1       2.209  10.396  18.609  0.00  0.00    +0.000 C 
ATOM      8  C   UNL     1       1.419  11.364  19.422  0.00  0.00    +0.000 A 
ATOM      9  C   UNL     1       0.677  10.661  20.369  0.00  0.00    +0.000 A 
ATOM     10  C   UNL     1      -0.120  11.291  21.303  0.00  0.00    +0.000 A 
ATOM     11  C   UNL     1      -0.169  12.684  21.272  0.00  0.00    +0.000 A 
ATOM     12  C   UNL     1       0.559  13.406  20.308  0.00  0.00    +0.000 A 
ATOM     13  C   UNL     1       1.372  12.752  19.358  0.00  0.00    +0.000 A 
ATOM     14  C   UNL     1       0.912   9.218  20.189  0.00  0.00    +0.000 C 
ATOM     15  O   UNL     1       0.364   8.391  20.889  0.00  0.00    +0.000 OA
ATOM     16  C   UNL     1       3.386   7.944  17.713  0.00  0.00    +0.000 A 
ENDROOT
BRANCH   3  17
ATOM     17  C   UNL     1       1.977   4.316  19.269  0.00  0.00    +0.000 C 
ATOM     18  C   UNL     1       1.255   3.491  18.485  0.00  0.00    +0.000 C 
ATOM     19  C   UNL     1       0.764   2.152  18.942  0.00  0.00    +0.000 C 
ATOM     20  O   UNL     1       1.387   1.733  20.163  0.00  0.00    +0.000 OA
ATOM     21  C   UNL     1       1.358   2.769  21.144  0.00  0.00    +0.000 C 
ATOM     22  C   UNL     1       2.249   3.925  20.698  0.00  0.00    +0.000 C 
ENDBRANCH   3  17
BRANCH  13  23
ATOM     23  C   UNL     1       2.125  13.548  18.325  0.00  0.00    +0.000 C 
ATOM     24  F   UNL     1       1.795  14.870  18.309  0.00  0.00    +0.000 F 
ATOM     25  F   UNL     1       3.471  13.504  18.516  0.00  0.00    +0.000 F 
ATOM     26  F   UNL     1       1.908  13.098  17.060  0.00  0.00    +0.000 F 
ENDBRANCH  13  23
BRANCH   1  28
ATOM     27  C   UNL     1       4.769   7.002  14.838  0.00  0.00    +0.000 C 
ATOM     28  C   UNL     1       5.196   6.805  16.308  0.00  0.00    +0.000 C 
BRANCH  28  29
ATOM     29  C   UNL     1       6.152   5.597  16.464  0.00  0.00    +0.000 C 
BRANCH  29  30
ATOM     30  C   UNL     1       6.979   5.659  17.703  0.00  0.00    +0.000 A 
ATOM     31  N   UNL     1       7.189   4.669  18.548  0.00  0.00    +0.000 NA
ATOM     32  N   UNL     1       7.922   5.149  19.604  0.00  0.00    +0.000 NA
ATOM     33  C   UNL     1       8.177   6.413  19.366  0.00  0.00    +0.000 A 
ATOM     34  N   UNL     1       7.645   6.766  18.165  0.00  0.00    +0.000 N 
ATOM     35  C   UNL     1       7.800   8.040  17.517  0.00  0.00    +0.000 C 
ENDBRANCH  29  30
ENDBRANCH  28  29
ENDBRANCH   1  28
TORSDOF 5
ENDMDL
MODEL 6
REMARK VINA RESULT:      -8.3      1.102      1.512
REMARK  Name = 
REMARK  7 active torsions:
REMARK  status: ('A' for Active; 'I' for Inactive)
REMARK    1  A    between atoms: C_1  and  C_2
REMARK    2  A    between atoms: C_2  and  C_3
REMARK    3  A    between atoms: C_2  and  C_10
REMARK    4  A    between atoms: C_3  and  C_4
REMARK    5  A    between atoms: N_8  and  C_9
REMARK    6  A    between atoms: C_12  and  C_13
REMARK    7  A    between atoms: C_28  and  C_29
REMARK                            x       y       z     vdW  Elec       q    Type
REMARK                         _______ _______ _______ _____ _____    ______ ____
ROOT
ATOM      1  C   UNL     1       3.956   7.031  17.640  0.00  0.00    +0.000 A 
ATOM      2  C   UNL     1       3.943   5.836  18.358  0.00  0.00    +0.000 A 
ATOM      3  C   UNL     1       3.058   5.680  19.423  0.00  0.00    +0.000 A 
ATOM      4  N   UNL     1       2.245   6.678  19.836  0.00  0.00    +0.000 NA
ATOM      5  C   UNL     1       2.256   7.846  19.170  0.00  0.00    +0.000 A 
ATOM      6  N   UNL     1       1.456   8.914  19.617  0.00  0.00    +0.000 N 
ATOM      7  C   UNL     1       1.392  10.181  18.912  0.00  0.00    +0.000 C 
ATOM      8  C   UNL     1       0.482  11.006  19.756  0.00  0.00    +0.000 A 
ATOM      9  C   UNL     1       0.097  10.262  20.870  0.00  0.00    +0.000 A 
ATOM     10  C   UNL     1      -0.710  10.777  21.864  0.00  0.00    +0.000 A 
ATOM     11  C   UNL     1      -1.147  12.094  21.719  0.00  0.00    +0.000 A 
ATOM     12  C   UNL     1      -0.782  12.850  20.590  0.00  0.00    +0.000 A 
ATOM     13  C   UNL     1       0.044  12.314  19.581  0.00  0.00    +0.000 A 
ATOM     14  C   UNL     1       0.695   8.919  20.780  0.00  0.00    +0.000 C 
ATOM     15  O   UNL     1       0.497   8.075  21.630  0.00  0.00    +0.000 OA
ATOM     16  C   UNL     1       3.070   8.025  18.053  0.00  0.00    +0.000 A 
ENDROOT
BRANCH   3  17
ATOM     17  C   UNL     1       2.941   4.387  20.130  0.00  0.00    +0.000 C 
ATOM     18  C   UNL     1       3.844   3.400  19.960  0.00  0.00    +0.000 C 
ATOM     19  C   UNL     1       3.814   2.123  20.742  0.00  0.00    +0.000 C 
ATOM     20  O   UNL     1       2.927   2.195  21.866  0.00  0.00    +0.000 OA
ATOM     21  C   UNL     1       1.654   2.718  21.492  0.00  0.00    +0.000 C 
ATOM     22  C   UNL     1       1.799   4.184  21.090  0.00  0.00    +0.000 C 
ENDBRANCH   3  17
BRANCH  13  23
ATOM     23  C   UNL     1       0.402  13.139  18.372  0.00  0.00    +0.000 C 
ATOM     24  F   UNL     1       0.411  14.481  18.612  0.00  0.00    +0.000 F 
ATOM     25  F   UNL     1       1.638  12.841  17.888  0.00  0.00    +0.000 F 
ATOM     26  F   UNL     1      -0.464  12.955  17.339  0.00  0.00    +0.000 F 
ENDBRANCH  13  23
BRANCH   1  28
ATOM     27  C   UNL     1       4.341   6.823  15.102  0.00  0.00    +0.000 C 
ATOM     28  C   UNL     1       4.918   7.225  16.475  0.00  0.00    +0.000 C 
BRANCH  28  29
ATOM     29  C   UNL     1       6.305   6.582  16.718  0.00  0.00    +0.000 C 
BRANCH  29  30
ATOM     30  C   UNL     1       7.222   7.446  17.515  0.00  0.00    +0.000 A 
ATOM     31  N   UNL     1       7.471   8.723  17.301  0.00  0.00    +0.000 NA
ATOM     32  N   UNL     1       8.435   9.132  18.187  0.00  0.00    +0.000 NA
ATOM     33  C   UNL     1       8.732   8.106  18.949  0.00  0.00    +0.000 A 
ATOM     34  N   UNL     1       7.964   7.040  18.595  0.00  0.00    +0.000 N 
ATOM     35  C   UNL     1       7.931   5.768  19.264  0.00  0.00    +0.000 C 
ENDBRANCH  29  30
ENDBRANCH  28  29
ENDBRANCH   1  28
TORSDOF 5
ENDMDL
MODEL 7
REMARK VINA RESULT:      -8.2      0.764      1.154
REMARK  Name = 
REMARK  7 active torsions:
REMARK  status: ('A' for Active; 'I' for Inactive)
REMARK    1  A    between atoms: C_1  and  C_2
REMARK    2  A    between atoms: C_2  and  C_3
REMARK    3  A    between atoms: C_2  and  C_10
REMARK    4  A    between atoms: C_3  and  C_4
REMARK    5  A    between atoms: N_8  and  C_9
REMARK    6  A    between atoms: C_12  and  C_13
REMARK    7  A    between atoms: C_28  and  C_29
REMARK                            x       y       z     vdW  Elec       q    Type
REMARK                         _______ _______ _______ _____ _____    ______ ____
ROOT
ATOM      1  C   UNL     1       3.818   6.805  17.617  0.00  0.00    +0.000 A 
ATOM      2  C   UNL     1       3.785   5.626  18.361  0.00  0.00    +0.000 A 
ATOM      3  C   UNL     1       2.951   5.535  19.473  0.00  0.00    +0.000 A 
ATOM      4  N   UNL     1       2.209   6.579  19.904  0.00  0.00    +0.000 NA
ATOM      5  C   UNL     1       2.240   7.731  19.212  0.00  0.00    +0.000 A 
ATOM      6  N   UNL     1       1.516   8.846  19.675  0.00  0.00    +0.000 N 
ATOM      7  C   UNL     1       1.475  10.100  18.945  0.00  0.00    +0.000 C 
ATOM      8  C   UNL     1       0.650  10.985  19.816  0.00  0.00    +0.000 A 
ATOM      9  C   UNL     1       0.289  10.283  20.964  0.00  0.00    +0.000 A 
ATOM     10  C   UNL     1      -0.441  10.857  21.986  0.00  0.00    +0.000 A 
ATOM     11  C   UNL     1      -0.821  12.190  21.834  0.00  0.00    +0.000 A 
ATOM     12  C   UNL     1      -0.480  12.905  20.671  0.00  0.00    +0.000 A 
ATOM     13  C   UNL     1       0.266  12.309  19.633  0.00  0.00    +0.000 A 
ATOM     14  C   UNL     1       0.817   8.912  20.875  0.00  0.00    +0.000 C 
ATOM     15  O   UNL     1       0.624   8.095  21.752  0.00  0.00    +0.000 OA
ATOM     16  C   UNL     1       3.003   7.849  18.052  0.00  0.00    +0.000 A 
ENDROOT
BRANCH   3  17
ATOM     17  C   UNL     1       2.810   4.264  20.213  0.00  0.00    +0.000 C 
ATOM     18  C   UNL     1       3.739   3.289  20.138  0.00  0.00    +0.000 C 
ATOM     19  C   UNL     1       3.679   2.038  20.958  0.00  0.00    +0.000 C 
ATOM     20  O   UNL     1       2.718   2.129  22.018  0.00  0.00    +0.000 OA
ATOM     21  C   UNL     1       1.464   2.615  21.543  0.00  0.00    +0.000 C 
ATOM     22  C   UNL     1       1.609   4.070  21.103  0.00  0.00    +0.000 C 
ENDBRANCH   3  17
BRANCH  13  23
ATOM     23  C   UNL     1       0.600  13.091  18.390  0.00  0.00    +0.000 C 
ATOM     24  F   UNL     1       0.626  14.440  18.585  0.00  0.00    +0.000 F 
ATOM     25  F   UNL     1       1.821  12.767  17.885  0.00  0.00    +0.000 F 
ATOM     26  F   UNL     1      -0.293  12.881  17.386  0.00  0.00    +0.000 F 
ENDBRANCH  13  23
BRANCH   1  28
ATOM     27  C   UNL     1       4.807   5.653  15.536  0.00  0.00    +0.000 C 
ATOM     28  C   UNL     1       4.727   6.928  16.400  0.00  0.00    +0.000 C 
BRANCH  28  29
ATOM     29  C   UNL     1       6.136   7.469  16.745  0.00  0.00    +0.000 C 
BRANCH  29  30
ATOM     30  C   UNL     1       6.935   6.532  17.587  0.00  0.00    +0.000 A 
ATOM     31  N   UNL     1       6.824   5.219  17.609  0.00  0.00    +0.000 NA
ATOM     32  N   UNL     1       7.664   4.729  18.577  0.00  0.00    +0.000 NA
ATOM     33  C   UNL     1       8.299   5.749  19.103  0.00  0.00    +0.000 A 
ATOM     34  N   UNL     1       7.908   6.895  18.483  0.00  0.00    +0.000 N 
ATOM     35  C   UNL     1       8.453   8.206  18.714  0.00  0.00    +0.000 C 
ENDBRANCH  29  30
ENDBRANCH  28  29
ENDBRANCH   1  28
TORSDOF 5
ENDMDL
MODEL 8
REMARK VINA RESULT:      -8.2      0.531      1.221
REMARK  Name = 
REMARK  7 active torsions:
REMARK  status: ('A' for Active; 'I' for Inactive)
REMARK    1  A    between atoms: C_1  and  C_2
REMARK    2  A    between atoms: C_2  and  C_3
REMARK    3  A    between atoms: C_2  and  C_10
REMARK    4  A    between atoms: C_3  and  C_4
REMARK    5  A    between atoms: N_8  and  C_9
REMARK    6  A    between atoms: C_12  and  C_13
REMARK    7  A    between atoms: C_28  and  C_29
REMARK                            x       y       z     vdW  Elec       q    Type
REMARK                         _______ _______ _______ _____ _____    ______ ____
ROOT
ATOM      1  C   UNL     1       3.819   7.035  17.664  0.00  0.00    +0.000 A 
ATOM      2  C   UNL     1       3.809   5.843  18.387  0.00  0.00    +0.000 A 
ATOM      3  C   UNL     1       2.944   5.699  19.469  0.00  0.00    +0.000 A 
ATOM      4  N   UNL     1       2.148   6.705  19.894  0.00  0.00    +0.000 NA
ATOM      5  C   UNL     1       2.156   7.870  19.223  0.00  0.00    +0.000 A 
ATOM      6  N   UNL     1       1.375   8.947  19.681  0.00  0.00    +0.000 N 
ATOM      7  C   UNL     1       1.307  10.212  18.973  0.00  0.00    +0.000 C 
ATOM      8  C   UNL     1       0.421  11.049  19.831  0.00  0.00    +0.000 A 
ATOM      9  C   UNL     1       0.051  10.312  20.955  0.00  0.00    +0.000 A 
ATOM     10  C   UNL     1      -0.732  10.838  21.962  0.00  0.00    +0.000 A 
ATOM     11  C   UNL     1      -1.159  12.159  21.821  0.00  0.00    +0.000 A 
ATOM     12  C   UNL     1      -0.810  12.907  20.681  0.00  0.00    +0.000 A 
ATOM     13  C   UNL     1      -0.009  12.359  19.658  0.00  0.00    +0.000 A 
ATOM     14  C   UNL     1       0.636   8.964  20.859  0.00  0.00    +0.000 C 
ATOM     15  O   UNL     1       0.447   8.125  21.716  0.00  0.00    +0.000 OA
ATOM     16  C   UNL     1       2.950   8.038  18.090  0.00  0.00    +0.000 A 
ENDROOT
BRANCH   3  17
ATOM     17  C   UNL     1       2.830   4.409  20.183  0.00  0.00    +0.000 C 
ATOM     18  C   UNL     1       3.750   3.434  20.043  0.00  0.00    +0.000 C 
ATOM     19  C   UNL     1       3.721   2.163  20.834  0.00  0.00    +0.000 C 
ATOM     20  O   UNL     1       2.807   2.230  21.936  0.00  0.00    +0.000 OA
ATOM     21  C   UNL     1       1.536   2.732  21.528  0.00  0.00    +0.000 C 
ATOM     22  C   UNL     1       1.668   4.197  21.119  0.00  0.00    +0.000 C 
ENDBRANCH   3  17
BRANCH  13  23
ATOM     23  C   UNL     1       0.333  13.176  18.440  0.00  0.00    +0.000 C 
ATOM     24  F   UNL     1       0.287  14.522  18.656  0.00  0.00    +0.000 F 
ATOM     25  F   UNL     1       1.586  12.919  17.977  0.00  0.00    +0.000 F 
ATOM     26  F   UNL     1      -0.511  12.941  17.400  0.00  0.00    +0.000 F 
ENDBRANCH  13  23
BRANCH   1  28
ATOM     27  C   UNL     1       4.651   6.111  15.408  0.00  0.00    +0.000 C 
ATOM     28  C   UNL     1       4.760   7.216  16.480  0.00  0.00    +0.000 C 
BRANCH  28  29
ATOM     29  C   UNL     1       6.230   7.453  16.902  0.00  0.00    +0.000 C 
BRANCH  29  30
ATOM     30  C   UNL     1       6.859   6.262  17.540  0.00  0.00    +0.000 A 
ATOM     31  N   UNL     1       7.027   6.070  18.833  0.00  0.00    +0.000 NA
ATOM     32  N   UNL     1       7.724   4.901  19.011  0.00  0.00    +0.000 NA
ATOM     33  C   UNL     1       7.937   4.383  17.825  0.00  0.00    +0.000 A 
ATOM     34  N   UNL     1       7.373   5.177  16.876  0.00  0.00    +0.000 N 
ATOM     35  C   UNL     1       7.309   4.891  15.468  0.00  0.00    +0.000 C 
ENDBRANCH  29  30
ENDBRANCH  28  29
ENDBRANCH   1  28
TORSDOF 5
ENDMDL
MODEL 9
REMARK VINA RESULT:      -8.1      3.309      5.671
REMARK  Name = 
REMARK  7 active torsions:
REMARK  status: ('A' for Active; 'I' for Inactive)
REMARK    1  A    between atoms: C_1  and  C_2
REMARK    2  A    between atoms: C_2  and  C_3
REMARK    3  A    between atoms: C_2  and  C_10
REMARK    4  A    between atoms: C_3  and  C_4
REMARK    5  A    between atoms: N_8  and  C_9
REMARK    6  A    between atoms: C_12  and  C_13
REMARK    7  A    between atoms: C_28  and  C_29
REMARK                            x       y       z     vdW  Elec       q    Type
REMARK                         _______ _______ _______ _____ _____    ______ ____
ROOT
ATOM      1  C   UNL     1       4.163   4.137  19.696  0.00  0.00    +0.000 A 
ATOM      2  C   UNL     1       4.839   3.968  18.489  0.00  0.00    +0.000 A 
ATOM      3  C   UNL     1       4.809   4.981  17.533  0.00  0.00    +0.000 A 
ATOM      4  N   UNL     1       4.087   6.111  17.703  0.00  0.00    +0.000 NA
ATOM      5  C   UNL     1       3.411   6.285  18.853  0.00  0.00    +0.000 A 
ATOM      6  N   UNL     1       2.611   7.429  19.027  0.00  0.00    +0.000 N 
ATOM      7  C   UNL     1       1.896   7.694  20.263  0.00  0.00    +0.000 C 
ATOM      8  C   UNL     1       1.161   8.959  19.979  0.00  0.00    +0.000 A 
ATOM      9  C   UNL     1       1.420   9.350  18.666  0.00  0.00    +0.000 A 
ATOM     10  C   UNL     1       0.839  10.464  18.096  0.00  0.00    +0.000 A 
ATOM     11  C   UNL     1      -0.033  11.211  18.887  0.00  0.00    +0.000 A 
ATOM     12  C   UNL     1      -0.288  10.839  20.220  0.00  0.00    +0.000 A 
ATOM     13  C   UNL     1       0.310   9.698  20.793  0.00  0.00    +0.000 A 
ATOM     14  C   UNL     1       2.360   8.394  18.058  0.00  0.00    +0.000 C 
ATOM     15  O   UNL     1       2.754   8.525  16.916  0.00  0.00    +0.000 OA
ATOM     16  C   UNL     1       3.469   5.333  19.869  0.00  0.00    +0.000 A 
ENDROOT
BRANCH   3  17
ATOM     17  C   UNL     1       5.608   4.879  16.294  0.00  0.00    +0.000 C 
ATOM     18  C   UNL     1       5.192   4.152  15.237  0.00  0.00    +0.000 C 
ATOM     19  C   UNL     1       5.923   4.117  13.931  0.00  0.00    +0.000 C 
ATOM     20  O   UNL     1       6.915   5.148  13.836  0.00  0.00    +0.000 OA
ATOM     21  C   UNL     1       7.736   5.188  15.002  0.00  0.00    +0.000 C 
ATOM     22  C   UNL     1       6.906   5.638  16.201  0.00  0.00    +0.000 C 
ENDBRANCH   3  17
BRANCH  13  23
ATOM     23  C   UNL     1       0.035   9.334  22.229  0.00  0.00    +0.000 C 
ATOM     24  F   UNL     1      -0.635  10.302  22.917  0.00  0.00    +0.000 F 
ATOM     25  F   UNL     1      -0.720   8.208  22.343  0.00  0.00    +0.000 F 
ATOM     26  F   UNL     1       1.174   9.100  22.935  0.00  0.00    +0.000 F 
ENDBRANCH  13  23
BRANCH   1  28
ATOM     27  C   UNL     1       5.073   1.833  20.403  0.00  0.00    +0.000 C 
ATOM     28  C   UNL     1       4.178   3.040  20.754  0.00  0.00    +0.000 C 
BRANCH  28  29
ATOM     29  C   UNL     1       2.761   2.589  21.184  0.00  0.00    +0.000 C 
BRANCH  29  30
ATOM     30  C   UNL     1       1.798   2.516  20.049  0.00  0.00    +0.000 A 
ATOM     31  N   UNL     1       1.740   1.567  19.136  0.00  0.00    +0.000 NA
ATOM     32  N   UNL     1       0.783   1.909  18.214  0.00  0.00    +0.000 NA
ATOM     33  C   UNL     1       0.249   3.043  18.601  0.00  0.00    +0.000 A 
ATOM     34  N   UNL     1       0.821   3.439  19.770  0.00  0.00    +0.000 N 
ATOM     35  C   UNL     1       0.432   4.579  20.554  0.00  0.00    +0.000 C 
ENDBRANCH  29  30
ENDBRANCH  28  29
ENDBRANCH   1  28
TORSDOF 5
ENDMDL
