MODEL 1
REMARK VINA RESULT:      -9.1      0.000      0.000
REMARK  Name = 
REMARK  10 active torsions:
REMARK  status: ('A' for Active; 'I' for Inactive)
REMARK    1  A    between atoms: C_1  and  C_2
REMARK    2  A    between atoms: C_2  and  C_3
REMARK    3  A    between atoms: C_2  and  C_10
REMARK    4  A    between atoms: C_3  and  C_4
REMARK    5  A    between atoms: N_8  and  C_9
REMARK    6  A    between atoms: C_14  and  N_15
REMARK    7  A    between atoms: C_16  and  C_18
REMARK    8  A    between atoms: C_20  and  C_21
REMARK    9  A    between atoms: C_25  and  S_26
REMARK   10  A    between atoms: S_26  and  C_27
REMARK                            x       y       z     vdW  Elec       q    Type
REMARK                         _______ _______ _______ _____ _____    ______ ____
ROOT
ATOM      1  N   UNL     1       7.860   9.016  17.862  0.00  0.00    +0.000 N 
ATOM      2  C   UNL     1       7.902   7.663  18.152  0.00  0.00    +0.000 C 
ATOM      3  O   UNL     1       8.575   7.124  19.025  0.00  0.00    +0.000 OA
ATOM      4  H   UNL     1       7.168   9.298  17.172  0.00  0.00    +0.000 HD
ENDROOT
BRANCH   1   9
ATOM      5  C   UNL     1       9.769  12.184  18.301  0.00  0.00    +0.000 A 
ATOM      6  C   UNL     1      10.251  12.007  19.608  0.00  0.00    +0.000 A 
ATOM      7  C   UNL     1       9.952  10.860  20.332  0.00  0.00    +0.000 A 
ATOM      8  C   UNL     1       9.164   9.868  19.765  0.00  0.00    +0.000 A 
ATOM      9  C   UNL     1       8.651  10.010  18.474  0.00  0.00    +0.000 A 
ATOM     10  C   UNL     1       8.958  11.169  17.749  0.00  0.00    +0.000 A 
BRANCH   5  12
ATOM     11  C   UNL     1      11.312  13.148  16.503  0.00  0.00    +0.000 C 
ATOM     12  C   UNL     1      10.133  13.412  17.460  0.00  0.00    +0.000 C 
BRANCH  12  13
ATOM     13  C   UNL     1      10.407  14.631  18.368  0.00  0.00    +0.000 C 
BRANCH  13  14
ATOM     14  C   UNL     1       9.228  15.539  18.500  0.00  0.00    +0.000 A 
ATOM     15  N   UNL     1       8.053  15.235  19.010  0.00  0.00    +0.000 NA
ATOM     16  N   UNL     1       7.237  16.337  18.894  0.00  0.00    +0.000 NA
ATOM     17  C   UNL     1       7.936  17.290  18.322  0.00  0.00    +0.000 A 
ATOM     18  N   UNL     1       9.198  16.843  18.081  0.00  0.00    +0.000 N 
ATOM     19  C   UNL     1      10.273  17.598  17.503  0.00  0.00    +0.000 C 
ENDBRANCH  13  14
ENDBRANCH  12  13
ENDBRANCH   5  12
ENDBRANCH   1   9
BRANCH   2  20
ATOM     20  C   UNL     1       7.003   6.802  17.331  0.00  0.00    +0.000 A 
ATOM     21  C   UNL     1       5.733   6.543  17.818  0.00  0.00    +0.000 A 
ATOM     22  C   UNL     1       4.880   5.758  17.048  0.00  0.00    +0.000 A 
ATOM     23  C   UNL     1       5.334   5.256  15.830  0.00  0.00    +0.000 A 
ATOM     24  C   UNL     1       6.627   5.562  15.431  0.00  0.00    +0.000 A 
ATOM     25  N   UNL     1       7.478   6.332  16.151  0.00  0.00    +0.000 NA
BRANCH  22  26
ATOM     26  C   UNL     1       3.536   5.385  17.552  0.00  0.00    +0.000 C 
ATOM     27  O   UNL     1       2.721   6.253  17.827  0.00  0.00    +0.000 OA
ATOM     28  N   UNL     1       3.271   4.028  17.656  0.00  0.00    +0.000 N 
ATOM     29  C   UNL     1       1.969   3.447  17.991  0.00  0.00    +0.000 C 
ATOM     30  C   UNL     1       2.669   2.611  19.050  0.00  0.00    +0.000 C 
ATOM     31  C   UNL     1       4.011   3.094  18.517  0.00  0.00    +0.000 C 
BRANCH  30  32
ATOM     32  S   UNL     1       2.262   3.019  20.733  0.00  0.00    +0.000 S 
ATOM     33  C   UNL     1       2.434   4.774  20.895  0.00  0.00    +0.000 C 
ATOM     34  O   UNL     1       0.862   2.711  20.956  0.00  0.00    +0.000 OA
ATOM     35  O   UNL     1       3.272   2.428  21.595  0.00  0.00    +0.000 OA
ENDBRANCH  30  32
ENDBRANCH  22  26
ENDBRANCH   2  20
TORSDOF 7
ENDMDL
MODEL 2
REMARK VINA RESULT:      -9.0      5.291      9.805
REMARK  Name = 
REMARK  10 active torsions:
REMARK  status: ('A' for Active; 'I' for Inactive)
REMARK    1  A    between atoms: C_1  and  C_2
REMARK    2  A    between atoms: C_2  and  C_3
REMARK    3  A    between atoms: C_2  and  C_10
REMARK    4  A    between atoms: C_3  and  C_4
REMARK    5  A    between atoms: N_8  and  C_9
REMARK    6  A    between atoms: C_14  and  N_15
REMARK    7  A    between atoms: C_16  and  C_18
REMARK    8  A    between atoms: C_20  and  C_21
REMARK    9  A    between atoms: C_25  and  S_26
REMARK   10  A    between atoms: S_26  and  C_27
REMARK                            x       y       z     vdW  Elec       q    Type
REMARK                         _______ _______ _______ _____ _____    ______ ____
ROOT
ATOM      1  N   UNL     1       2.158   7.068  18.986  0.00  0.00    +0.000 N 
ATOM      2  C   UNL     1       1.914   8.310  18.426  0.00  0.00    +0.000 C 
ATOM      3  O   UNL     1       2.013   8.609  17.240  0.00  0.00    +0.000 OA
ATOM      4  H   UNL     1       1.927   6.976  19.972  0.00  0.00    +0.000 HD
ENDROOT
BRANCH   1   9
ATOM      5  C   UNL     1       4.364   4.960  16.849  0.00  0.00    +0.000 A 
ATOM      6  C   UNL     1       3.647   3.752  16.864  0.00  0.00    +0.000 A 
ATOM      7  C   UNL     1       2.455   3.636  17.567  0.00  0.00    +0.000 A 
ATOM      8  C   UNL     1       1.955   4.724  18.270  0.00  0.00    +0.000 A 
ATOM      9  C   UNL     1       2.643   5.939  18.294  0.00  0.00    +0.000 A 
ATOM     10  C   UNL     1       3.845   6.049  17.582  0.00  0.00    +0.000 A 
BRANCH   5  12
ATOM     11  C   UNL     1       5.741   4.144  14.854  0.00  0.00    +0.000 C 
ATOM     12  C   UNL     1       5.650   5.131  16.035  0.00  0.00    +0.000 C 
BRANCH  12  13
ATOM     13  C   UNL     1       6.891   5.030  16.949  0.00  0.00    +0.000 C 
BRANCH  13  14
ATOM     14  C   UNL     1       7.378   6.360  17.422  0.00  0.00    +0.000 A 
ATOM     15  N   UNL     1       7.354   7.493  16.751  0.00  0.00    +0.000 NA
ATOM     16  N   UNL     1       7.946   8.463  17.527  0.00  0.00    +0.000 NA
ATOM     17  C   UNL     1       8.310   7.902  18.656  0.00  0.00    +0.000 A 
ATOM     18  N   UNL     1       7.951   6.590  18.646  0.00  0.00    +0.000 N 
ATOM     19  C   UNL     1       8.139   5.646  19.711  0.00  0.00    +0.000 C 
ENDBRANCH  13  14
ENDBRANCH  12  13
ENDBRANCH   5  12
ENDBRANCH   1   9
BRANCH   2  20
ATOM     20  C   UNL     1       1.452   9.363  19.374  0.00  0.00    +0.000 A 
ATOM     21  C   UNL     1       1.335  10.658  18.897  0.00  0.00    +0.000 A 
ATOM     22  C   UNL     1       0.884  11.643  19.770  0.00  0.00    +0.000 A 
ATOM     23  C   UNL     1       0.578  11.297  21.085  0.00  0.00    +0.000 A 
ATOM     24  C   UNL     1       0.737   9.975  21.473  0.00  0.00    +0.000 A 
ATOM     25  N   UNL     1       1.163   8.990  20.646  0.00  0.00    +0.000 NA
BRANCH  22  26
ATOM     26  C   UNL     1       0.809  13.060  19.338  0.00  0.00    +0.000 C 
ATOM     27  O   UNL     1       0.169  13.365  18.343  0.00  0.00    +0.000 OA
ATOM     28  N   UNL     1       1.472  13.983  20.132  0.00  0.00    +0.000 N 
ATOM     29  C   UNL     1       1.407  15.436  19.968  0.00  0.00    +0.000 C 
ATOM     30  C   UNL     1       2.926  15.460  20.007  0.00  0.00    +0.000 C 
ATOM     31  C   UNL     1       2.920  13.985  20.383  0.00  0.00    +0.000 C 
BRANCH  30  32
ATOM     32  S   UNL     1       3.719  15.913  18.480  0.00  0.00    +0.000 S 
ATOM     33  C   UNL     1       5.464  15.746  18.735  0.00  0.00    +0.000 C 
ATOM     34  O   UNL     1       3.348  14.946  17.464  0.00  0.00    +0.000 OA
ATOM     35  O   UNL     1       3.473  17.327  18.249  0.00  0.00    +0.000 OA
ENDBRANCH  30  32
ENDBRANCH  22  26
ENDBRANCH   2  20
TORSDOF 7
ENDMDL
MODEL 3
REMARK VINA RESULT:      -9.0      1.374      1.573
REMARK  Name = 
REMARK  10 active torsions:
REMARK  status: ('A' for Active; 'I' for Inactive)
REMARK    1  A    between atoms: C_1  and  C_2
REMARK    2  A    between atoms: C_2  and  C_3
REMARK    3  A    between atoms: C_2  and  C_10
REMARK    4  A    between atoms: C_3  and  C_4
REMARK    5  A    between atoms: N_8  and  C_9
REMARK    6  A    between atoms: C_14  and  N_15
REMARK    7  A    between atoms: C_16  and  C_18
REMARK    8  A    between atoms: C_20  and  C_21
REMARK    9  A    between atoms: C_25  and  S_26
REMARK   10  A    between atoms: S_26  and  C_27
REMARK                            x       y       z     vdW  Elec       q    Type
REMARK                         _______ _______ _______ _____ _____    ______ ____
ROOT
ATOM      1  N   UNL     1       7.747   8.357  17.489  0.00  0.00    +0.000 N 
ATOM      2  C   UNL     1       7.643   7.049  17.927  0.00  0.00    +0.000 C 
ATOM      3  O   UNL     1       8.037   6.604  19.001  0.00  0.00    +0.000 OA
ATOM      4  H   UNL     1       7.274   8.568  16.613  0.00  0.00    +0.000 HD
ENDROOT
BRANCH   1   9
ATOM      5  C   UNL     1       9.227  11.709  18.160  0.00  0.00    +0.000 A 
ATOM      6  C   UNL     1       9.725  11.508  19.458  0.00  0.00    +0.000 A 
ATOM      7  C   UNL     1       9.575  10.285  20.100  0.00  0.00    +0.000 A 
ATOM      8  C   UNL     1       8.924   9.240  19.459  0.00  0.00    +0.000 A 
ATOM      9  C   UNL     1       8.401   9.401  18.175  0.00  0.00    +0.000 A 
ATOM     10  C   UNL     1       8.556  10.637  17.532  0.00  0.00    +0.000 A 
BRANCH   5  12
ATOM     11  C   UNL     1      10.853  13.167  16.829  0.00  0.00    +0.000 C 
ATOM     12  C   UNL     1       9.431  13.028  17.407  0.00  0.00    +0.000 C 
BRANCH  12  13
ATOM     13  C   UNL     1       9.070  14.229  18.308  0.00  0.00    +0.000 C 
BRANCH  13  14
ATOM     14  C   UNL     1       7.613  14.557  18.289  0.00  0.00    +0.000 A 
ATOM     15  N   UNL     1       6.695  14.022  17.512  0.00  0.00    +0.000 NA
ATOM     16  N   UNL     1       5.494  14.640  17.778  0.00  0.00    +0.000 NA
ATOM     17  C   UNL     1       5.707  15.533  18.716  0.00  0.00    +0.000 A 
ATOM     18  N   UNL     1       7.015  15.499  19.086  0.00  0.00    +0.000 N 
ATOM     19  C   UNL     1       7.633  16.294  20.109  0.00  0.00    +0.000 C 
ENDBRANCH  13  14
ENDBRANCH  12  13
ENDBRANCH   5  12
ENDBRANCH   1   9
BRANCH   2  20
ATOM     20  C   UNL     1       6.947   6.113  16.998  0.00  0.00    +0.000 A 
ATOM     21  C   UNL     1       5.827   5.448  17.468  0.00  0.00    +0.000 A 
ATOM     22  C   UNL     1       5.159   4.590  16.601  0.00  0.00    +0.000 A 
ATOM     23  C   UNL     1       5.641   4.423  15.304  0.00  0.00    +0.000 A 
ATOM     24  C   UNL     1       6.777   5.125  14.928  0.00  0.00    +0.000 A 
ATOM     25  N   UNL     1       7.445   5.976  15.743  0.00  0.00    +0.000 NA
BRANCH  22  26
ATOM     26  C   UNL     1       3.998   3.795  17.070  0.00  0.00    +0.000 C 
ATOM     27  O   UNL     1       2.916   3.899  16.511  0.00  0.00    +0.000 OA
ATOM     28  N   UNL     1       4.229   2.934  18.132  0.00  0.00    +0.000 N 
ATOM     29  C   UNL     1       3.266   1.962  18.654  0.00  0.00    +0.000 C 
ATOM     30  C   UNL     1       3.531   2.517  20.043  0.00  0.00    +0.000 C 
ATOM     31  C   UNL     1       4.666   3.356  19.471  0.00  0.00    +0.000 C 
BRANCH  30  32
ATOM     32  S   UNL     1       2.167   3.384  20.788  0.00  0.00    +0.000 S 
ATOM     33  C   UNL     1       2.418   5.109  20.474  0.00  0.00    +0.000 C 
ATOM     34  O   UNL     1       0.948   3.004  20.099  0.00  0.00    +0.000 OA
ATOM     35  O   UNL     1       2.260   3.214  22.229  0.00  0.00    +0.000 OA
ENDBRANCH  30  32
ENDBRANCH  22  26
ENDBRANCH   2  20
TORSDOF 7
ENDMDL
MODEL 4
REMARK VINA RESULT:      -8.5      6.689     10.080
REMARK  Name = 
REMARK  10 active torsions:
REMARK  status: ('A' for Active; 'I' for Inactive)
REMARK    1  A    between atoms: C_1  and  C_2
REMARK    2  A    between atoms: C_2  and  C_3
REMARK    3  A    between atoms: C_2  and  C_10
REMARK    4  A    between atoms: C_3  and  C_4
REMARK    5  A    between atoms: N_8  and  C_9
REMARK    6  A    between atoms: C_14  and  N_15
REMARK    7  A    between atoms: C_16  and  C_18
REMARK    8  A    between atoms: C_20  and  C_21
REMARK    9  A    between atoms: C_25  and  S_26
REMARK   10  A    between atoms: S_26  and  C_27
REMARK                            x       y       z     vdW  Elec       q    Type
REMARK                         _______ _______ _______ _____ _____    ______ ____
ROOT
ATOM      1  N   UNL     1       1.803   8.238  19.980  0.00  0.00    +0.000 N 
ATOM      2  C   UNL     1       1.402   9.104  18.977  0.00  0.00    +0.000 C 
ATOM      3  O   UNL     1       1.233   8.824  17.794  0.00  0.00    +0.000 OA
ATOM      4  H   UNL     1       1.793   8.620  20.922  0.00  0.00    +0.000 HD
ENDROOT
BRANCH   1   9
ATOM      5  C   UNL     1       3.434   5.225  18.519  0.00  0.00    +0.000 A 
ATOM      6  C   UNL     1       2.905   4.225  19.352  0.00  0.00    +0.000 A 
ATOM      7  C   UNL     1       2.024   4.541  20.378  0.00  0.00    +0.000 A 
ATOM      8  C   UNL     1       1.654   5.862  20.593  0.00  0.00    +0.000 A 
ATOM      9  C   UNL     1       2.168   6.889  19.799  0.00  0.00    +0.000 A 
ATOM     10  C   UNL     1       3.056   6.563  18.765  0.00  0.00    +0.000 A 
BRANCH   5  12
ATOM     11  C   UNL     1       3.903   3.654  16.556  0.00  0.00    +0.000 C 
ATOM     12  C   UNL     1       4.361   4.897  17.345  0.00  0.00    +0.000 C 
BRANCH  12  13
ATOM     13  C   UNL     1       5.821   4.749  17.828  0.00  0.00    +0.000 C 
BRANCH  13  14
ATOM     14  C   UNL     1       6.598   6.021  17.740  0.00  0.00    +0.000 A 
ATOM     15  N   UNL     1       6.460   6.968  16.835  0.00  0.00    +0.000 NA
ATOM     16  N   UNL     1       7.403   7.939  17.084  0.00  0.00    +0.000 NA
ATOM     17  C   UNL     1       8.089   7.565  18.138  0.00  0.00    +0.000 A 
ATOM     18  N   UNL     1       7.603   6.382  18.599  0.00  0.00    +0.000 N 
ATOM     19  C   UNL     1       8.060   5.665  19.756  0.00  0.00    +0.000 C 
ENDBRANCH  13  14
ENDBRANCH  12  13
ENDBRANCH   5  12
ENDBRANCH   1   9
BRANCH   2  20
ATOM     20  C   UNL     1       1.117  10.502  19.410  0.00  0.00    +0.000 A 
ATOM     21  C   UNL     1       0.474  10.686  20.623  0.00  0.00    +0.000 A 
ATOM     22  C   UNL     1       0.225  11.988  21.045  0.00  0.00    +0.000 A 
ATOM     23  C   UNL     1       0.619  13.052  20.235  0.00  0.00    +0.000 A 
ATOM     24  C   UNL     1       1.248  12.767  19.032  0.00  0.00    +0.000 A 
ATOM     25  N   UNL     1       1.516  11.512  18.597  0.00  0.00    +0.000 NA
BRANCH  22  26
ATOM     26  C   UNL     1      -0.526  12.246  22.298  0.00  0.00    +0.000 C 
ATOM     27  O   UNL     1      -0.516  11.421  23.199  0.00  0.00    +0.000 OA
ATOM     28  N   UNL     1      -1.192  13.459  22.379  0.00  0.00    +0.000 N 
ATOM     29  C   UNL     1      -1.868  13.971  23.573  0.00  0.00    +0.000 C 
ATOM     30  C   UNL     1      -3.091  14.231  22.709  0.00  0.00    +0.000 C 
ATOM     31  C   UNL     1      -2.269  13.885  21.475  0.00  0.00    +0.000 C 
BRANCH  30  32
ATOM     32  S   UNL     1      -4.504  13.209  23.064  0.00  0.00    +0.000 S 
ATOM     33  C   UNL     1      -5.153  12.666  21.508  0.00  0.00    +0.000 C 
ATOM     34  O   UNL     1      -4.051  12.025  23.768  0.00  0.00    +0.000 OA
ATOM     35  O   UNL     1      -5.528  14.051  23.661  0.00  0.00    +0.000 OA
ENDBRANCH  30  32
ENDBRANCH  22  26
ENDBRANCH   2  20
TORSDOF 7
ENDMDL
MODEL 5
REMARK VINA RESULT:      -8.5      6.566     10.372
REMARK  Name = 
REMARK  10 active torsions:
REMARK  status: ('A' for Active; 'I' for Inactive)
REMARK    1  A    between atoms: C_1  and  C_2
REMARK    2  A    between atoms: C_2  and  C_3
REMARK    3  A    between atoms: C_2  and  C_10
REMARK    4  A    between atoms: C_3  and  C_4
REMARK    5  A    between atoms: N_8  and  C_9
REMARK    6  A    between atoms: C_14  and  N_15
REMARK    7  A    between atoms: C_16  and  C_18
REMARK    8  A    between atoms: C_20  and  C_21
REMARK    9  A    between atoms: C_25  and  S_26
REMARK   10  A    between atoms: S_26  and  C_27
REMARK                            x       y       z     vdW  Elec       q    Type
REMARK                         _______ _______ _______ _____ _____    ______ ____
ROOT
ATOM      1  N   UNL     1       1.905   8.614  19.799  0.00  0.00    +0.000 N 
ATOM      2  C   UNL     1       1.451   9.363  18.727  0.00  0.00    +0.000 C 
ATOM      3  O   UNL     1       0.993   8.929  17.674  0.00  0.00    +0.000 OA
ATOM      4  H   UNL     1       2.156   9.142  20.631  0.00  0.00    +0.000 HD
ENDROOT
BRANCH   1   9
ATOM      5  C   UNL     1       2.798   5.141  18.791  0.00  0.00    +0.000 A 
ATOM      6  C   UNL     1       2.179   4.414  19.821  0.00  0.00    +0.000 A 
ATOM      7  C   UNL     1       1.476   5.060  20.830  0.00  0.00    +0.000 A 
ATOM      8  C   UNL     1       1.380   6.445  20.832  0.00  0.00    +0.000 A 
ATOM      9  C   UNL     1       1.994   7.207  19.836  0.00  0.00    +0.000 A 
ATOM     10  C   UNL     1       2.700   6.549  18.820  0.00  0.00    +0.000 A 
BRANCH   5  12
ATOM     11  C   UNL     1       2.581   3.621  16.746  0.00  0.00    +0.000 C 
ATOM     12  C   UNL     1       3.529   4.451  17.635  0.00  0.00    +0.000 C 
BRANCH  12  13
ATOM     13  C   UNL     1       4.698   3.592  18.165  0.00  0.00    +0.000 C 
BRANCH  13  14
ATOM     14  C   UNL     1       5.873   4.406  18.596  0.00  0.00    +0.000 A 
ATOM     15  N   UNL     1       6.124   4.848  19.811  0.00  0.00    +0.000 NA
ATOM     16  N   UNL     1       7.276   5.599  19.764  0.00  0.00    +0.000 NA
ATOM     17  C   UNL     1       7.706   5.592  18.524  0.00  0.00    +0.000 A 
ATOM     18  N   UNL     1       6.872   4.836  17.761  0.00  0.00    +0.000 N 
ATOM     19  C   UNL     1       7.021   4.550  16.362  0.00  0.00    +0.000 C 
ENDBRANCH  13  14
ENDBRANCH  12  13
ENDBRANCH   5  12
ENDBRANCH   1   9
BRANCH   2  20
ATOM     20  C   UNL     1       1.500  10.842  18.909  0.00  0.00    +0.000 A 
ATOM     21  C   UNL     1       0.787  11.389  19.963  0.00  0.00    +0.000 A 
ATOM     22  C   UNL     1       0.846  12.766  20.152  0.00  0.00    +0.000 A 
ATOM     23  C   UNL     1       1.605  13.541  19.277  0.00  0.00    +0.000 A 
ATOM     24  C   UNL     1       2.276  12.903  18.245  0.00  0.00    +0.000 A 
ATOM     25  N   UNL     1       2.250  11.564  18.038  0.00  0.00    +0.000 NA
BRANCH  22  26
ATOM     26  C   UNL     1       0.044  13.416  21.217  0.00  0.00    +0.000 C 
ATOM     27  O   UNL     1       0.459  13.444  22.367  0.00  0.00    +0.000 OA
ATOM     28  N   UNL     1      -1.153  13.994  20.823  0.00  0.00    +0.000 N 
ATOM     29  C   UNL     1      -2.020  14.805  21.680  0.00  0.00    +0.000 C 
ATOM     30  C   UNL     1      -3.185  13.930  21.247  0.00  0.00    +0.000 C 
ATOM     31  C   UNL     1      -2.278  13.263  20.222  0.00  0.00    +0.000 C 
BRANCH  30  32
ATOM     32  S   UNL     1      -3.877  12.900  22.522  0.00  0.00    +0.000 S 
ATOM     33  C   UNL     1      -4.500  13.982  23.778  0.00  0.00    +0.000 C 
ATOM     34  O   UNL     1      -5.017  12.191  21.973  0.00  0.00    +0.000 OA
ATOM     35  O   UNL     1      -2.791  12.149  23.131  0.00  0.00    +0.000 OA
ENDBRANCH  30  32
ENDBRANCH  22  26
ENDBRANCH   2  20
TORSDOF 7
ENDMDL
MODEL 6
REMARK VINA RESULT:      -8.5      7.042     10.384
REMARK  Name = 
REMARK  10 active torsions:
REMARK  status: ('A' for Active; 'I' for Inactive)
REMARK    1  A    between atoms: C_1  and  C_2
REMARK    2  A    between atoms: C_2  and  C_3
REMARK    3  A    between atoms: C_2  and  C_10
REMARK    4  A    between atoms: C_3  and  C_4
REMARK    5  A    between atoms: N_8  and  C_9
REMARK    6  A    between atoms: C_14  and  N_15
REMARK    7  A    between atoms: C_16  and  C_18
REMARK    8  A    between atoms: C_20  and  C_21
REMARK    9  A    between atoms: C_25  and  S_26
REMARK   10  A    between atoms: S_26  and  C_27
REMARK                            x       y       z     vdW  Elec       q    Type
REMARK                         _______ _______ _______ _____ _____    ______ ____
ROOT
ATOM      1  N   UNL     1       1.854   8.433  19.790  0.00  0.00    +0.000 N 
ATOM      2  C   UNL     1       0.818   8.982  20.525  0.00  0.00    +0.000 C 
ATOM      3  O   UNL     1       0.097   8.395  21.326  0.00  0.00    +0.000 OA
ATOM      4  H   UNL     1       2.410   9.092  19.251  0.00  0.00    +0.000 HD
ENDROOT
BRANCH   1   9
ATOM      5  C   UNL     1       3.312   5.216  18.605  0.00  0.00    +0.000 A 
ATOM      6  C   UNL     1       2.927   4.365  19.654  0.00  0.00    +0.000 A 
ATOM      7  C   UNL     1       2.197   4.845  20.734  0.00  0.00    +0.000 A 
ATOM      8  C   UNL     1       1.838   6.185  20.788  0.00  0.00    +0.000 A 
ATOM      9  C   UNL     1       2.213   7.069  19.774  0.00  0.00    +0.000 A 
ATOM     10  C   UNL     1       2.949   6.578  18.688  0.00  0.00    +0.000 A 
BRANCH   5  12
ATOM     11  C   UNL     1       3.458   3.403  16.808  0.00  0.00    +0.000 C 
ATOM     12  C   UNL     1       4.067   4.701  17.375  0.00  0.00    +0.000 C 
BRANCH  12  13
ATOM     13  C   UNL     1       5.568   4.526  17.692  0.00  0.00    +0.000 C 
BRANCH  13  14
ATOM     14  C   UNL     1       6.342   5.798  17.576  0.00  0.00    +0.000 A 
ATOM     15  N   UNL     1       6.236   6.701  16.623  0.00  0.00    +0.000 NA
ATOM     16  N   UNL     1       7.163   7.689  16.864  0.00  0.00    +0.000 NA
ATOM     17  C   UNL     1       7.808   7.370  17.962  0.00  0.00    +0.000 A 
ATOM     18  N   UNL     1       7.309   6.206  18.458  0.00  0.00    +0.000 N 
ATOM     19  C   UNL     1       7.722   5.547  19.664  0.00  0.00    +0.000 C 
ENDBRANCH  13  14
ENDBRANCH  12  13
ENDBRANCH   5  12
ENDBRANCH   1   9
BRANCH   2  20
ATOM     20  C   UNL     1       0.600  10.445  20.334  0.00  0.00    +0.000 A 
ATOM     21  C   UNL     1      -0.212  11.103  21.243  0.00  0.00    +0.000 A 
ATOM     22  C   UNL     1      -0.403  12.472  21.084  0.00  0.00    +0.000 A 
ATOM     23  C   UNL     1       0.216  13.126  20.021  0.00  0.00    +0.000 A 
ATOM     24  C   UNL     1       1.003  12.379  19.157  0.00  0.00    +0.000 A 
ATOM     25  N   UNL     1       1.219  11.048  19.289  0.00  0.00    +0.000 NA
BRANCH  22  26
ATOM     26  C   UNL     1      -1.321  13.215  21.982  0.00  0.00    +0.000 C 
ATOM     27  O   UNL     1      -1.079  13.297  23.176  0.00  0.00    +0.000 OA
ATOM     28  N   UNL     1      -2.418  13.814  21.382  0.00  0.00    +0.000 N 
ATOM     29  C   UNL     1      -3.363  14.708  22.055  0.00  0.00    +0.000 C 
ATOM     30  C   UNL     1      -4.491  13.854  21.501  0.00  0.00    +0.000 C 
ATOM     31  C   UNL     1      -3.476  13.092  20.660  0.00  0.00    +0.000 C 
BRANCH  30  32
ATOM     32  S   UNL     1      -5.411  12.930  22.711  0.00  0.00    +0.000 S 
ATOM     33  C   UNL     1      -6.342  14.102  23.658  0.00  0.00    +0.000 C 
ATOM     34  O   UNL     1      -6.371  12.090  22.019  0.00  0.00    +0.000 OA
ATOM     35  O   UNL     1      -4.461  12.325  23.631  0.00  0.00    +0.000 OA
ENDBRANCH  30  32
ENDBRANCH  22  26
ENDBRANCH   2  20
TORSDOF 7
ENDMDL
MODEL 7
REMARK VINA RESULT:      -8.4      1.122      1.448
REMARK  Name = 
REMARK  10 active torsions:
REMARK  status: ('A' for Active; 'I' for Inactive)
REMARK    1  A    between atoms: C_1  and  C_2
REMARK    2  A    between atoms: C_2  and  C_3
REMARK    3  A    between atoms: C_2  and  C_10
REMARK    4  A    between atoms: C_3  and  C_4
REMARK    5  A    between atoms: N_8  and  C_9
REMARK    6  A    between atoms: C_14  and  N_15
REMARK    7  A    between atoms: C_16  and  C_18
REMARK    8  A    between atoms: C_20  and  C_21
REMARK    9  A    between atoms: C_25  and  S_26
REMARK   10  A    between atoms: S_26  and  C_27
REMARK                            x       y       z     vdW  Elec       q    Type
REMARK                         _______ _______ _______ _____ _____    ______ ____
ROOT
ATOM      1  N   UNL     1       7.941   9.157  17.827  0.00  0.00    +0.000 N 
ATOM      2  C   UNL     1       7.970   7.805  18.124  0.00  0.00    +0.000 C 
ATOM      3  O   UNL     1       8.648   7.261  18.989  0.00  0.00    +0.000 OA
ATOM      4  H   UNL     1       7.243   9.444  17.146  0.00  0.00    +0.000 HD
ENDROOT
BRANCH   1   9
ATOM      5  C   UNL     1       9.759  12.375  18.290  0.00  0.00    +0.000 A 
ATOM      6  C   UNL     1      10.387  12.133  19.522  0.00  0.00    +0.000 A 
ATOM      7  C   UNL     1      10.215  10.927  20.189  0.00  0.00    +0.000 A 
ATOM      8  C   UNL     1       9.409   9.939  19.638  0.00  0.00    +0.000 A 
ATOM      9  C   UNL     1       8.754  10.143  18.422  0.00  0.00    +0.000 A 
ATOM     10  C   UNL     1       8.934  11.362  17.755  0.00  0.00    +0.000 A 
BRANCH   5  12
ATOM     11  C   UNL     1      11.250  13.630  16.634  0.00  0.00    +0.000 C 
ATOM     12  C   UNL     1       9.980  13.673  17.506  0.00  0.00    +0.000 C 
BRANCH  12  13
ATOM     13  C   UNL     1       9.993  14.888  18.459  0.00  0.00    +0.000 C 
BRANCH  13  14
ATOM     14  C   UNL     1       8.802  14.938  19.359  0.00  0.00    +0.000 A 
ATOM     15  N   UNL     1       8.810  14.978  20.675  0.00  0.00    +0.000 NA
ATOM     16  N   UNL     1       7.505  14.961  21.112  0.00  0.00    +0.000 NA
ATOM     17  C   UNL     1       6.731  14.920  20.053  0.00  0.00    +0.000 A 
ATOM     18  N   UNL     1       7.500  14.930  18.930  0.00  0.00    +0.000 N 
ATOM     19  C   UNL     1       7.029  14.933  17.575  0.00  0.00    +0.000 C 
ENDBRANCH  13  14
ENDBRANCH  12  13
ENDBRANCH   5  12
ENDBRANCH   1   9
BRANCH   2  20
ATOM     20  C   UNL     1       7.048   6.951  17.321  0.00  0.00    +0.000 A 
ATOM     21  C   UNL     1       5.746   6.806  17.769  0.00  0.00    +0.000 A 
ATOM     22  C   UNL     1       4.874   6.028  17.013  0.00  0.00    +0.000 A 
ATOM     23  C   UNL     1       5.339   5.421  15.849  0.00  0.00    +0.000 A 
ATOM     24  C   UNL     1       6.663   5.618  15.487  0.00  0.00    +0.000 A 
ATOM     25  N   UNL     1       7.536   6.377  16.193  0.00  0.00    +0.000 NA
BRANCH  22  26
ATOM     26  C   UNL     1       3.489   5.775  17.482  0.00  0.00    +0.000 C 
ATOM     27  O   UNL     1       2.761   6.710  17.779  0.00  0.00    +0.000 OA
ATOM     28  N   UNL     1       3.087   4.449  17.528  0.00  0.00    +0.000 N 
ATOM     29  C   UNL     1       1.727   3.990  17.821  0.00  0.00    +0.000 C 
ATOM     30  C   UNL     1       2.319   3.048  18.855  0.00  0.00    +0.000 C 
ATOM     31  C   UNL     1       3.712   3.412  18.361  0.00  0.00    +0.000 C 
BRANCH  30  32
ATOM     32  S   UNL     1       1.924   3.430  20.547  0.00  0.00    +0.000 S 
ATOM     33  C   UNL     1       2.888   2.344  21.561  0.00  0.00    +0.000 C 
ATOM     34  O   UNL     1       2.372   4.780  20.831  0.00  0.00    +0.000 OA
ATOM     35  O   UNL     1       0.533   3.073  20.774  0.00  0.00    +0.000 OA
ENDBRANCH  30  32
ENDBRANCH  22  26
ENDBRANCH   2  20
TORSDOF 7
ENDMDL
MODEL 8
REMARK VINA RESULT:      -8.4      6.364     10.344
REMARK  Name = 
REMARK  10 active torsions:
REMARK  status: ('A' for Active; 'I' for Inactive)
REMARK    1  A    between atoms: C_1  and  C_2
REMARK    2  A    between atoms: C_2  and  C_3
REMARK    3  A    between atoms: C_2  and  C_10
REMARK    4  A    between atoms: C_3  and  C_4
REMARK    5  A    between atoms: N_8  and  C_9
REMARK    6  A    between atoms: C_14  and  N_15
REMARK    7  A    between atoms: C_16  and  C_18
REMARK    8  A    between atoms: C_20  and  C_21
REMARK    9  A    between atoms: C_25  and  S_26
REMARK   10  A    between atoms: S_26  and  C_27
REMARK                            x       y       z     vdW  Elec       q    Type
REMARK                         _______ _______ _______ _____ _____    ______ ____
ROOT
ATOM      1  N   UNL     1       2.423   6.711  20.001  0.00  0.00    +0.000 N 
ATOM      2  C   UNL     1       1.976   7.885  19.420  0.00  0.00    +0.000 C 
ATOM      3  O   UNL     1       2.100   8.211  18.244  0.00  0.00    +0.000 OA
ATOM      4  H   UNL     1       2.143   6.563  20.968  0.00  0.00    +0.000 HD
ENDROOT
BRANCH   1   9
ATOM      5  C   UNL     1       4.806   5.123  17.620  0.00  0.00    +0.000 A 
ATOM      6  C   UNL     1       4.670   3.775  17.990  0.00  0.00    +0.000 A 
ATOM      7  C   UNL     1       3.805   3.397  19.009  0.00  0.00    +0.000 A 
ATOM      8  C   UNL     1       3.059   4.358  19.679  0.00  0.00    +0.000 A 
ATOM      9  C   UNL     1       3.175   5.711  19.352  0.00  0.00    +0.000 A 
ATOM     10  C   UNL     1       4.049   6.085  18.323  0.00  0.00    +0.000 A 
BRANCH   5  12
ATOM     11  C   UNL     1       5.074   6.671  15.602  0.00  0.00    +0.000 C 
ATOM     12  C   UNL     1       5.709   5.560  16.461  0.00  0.00    +0.000 C 
BRANCH  12  13
ATOM     13  C   UNL     1       6.115   4.345  15.599  0.00  0.00    +0.000 C 
BRANCH  13  14
ATOM     14  C   UNL     1       6.900   4.724  14.387  0.00  0.00    +0.000 A 
ATOM     15  N   UNL     1       7.941   5.529  14.342  0.00  0.00    +0.000 NA
ATOM     16  N   UNL     1       8.332   5.651  13.028  0.00  0.00    +0.000 NA
ATOM     17  C   UNL     1       7.525   4.911  12.303  0.00  0.00    +0.000 A 
ATOM     18  N   UNL     1       6.627   4.291  13.115  0.00  0.00    +0.000 N 
ATOM     19  C   UNL     1       5.605   3.369  12.708  0.00  0.00    +0.000 C 
ENDBRANCH  13  14
ENDBRANCH  12  13
ENDBRANCH   5  12
ENDBRANCH   1   9
BRANCH   2  20
ATOM     20  C   UNL     1       1.242   8.813  20.328  0.00  0.00    +0.000 A 
ATOM     21  C   UNL     1       0.817  10.025  19.809  0.00  0.00    +0.000 A 
ATOM     22  C   UNL     1       0.113  10.887  20.643  0.00  0.00    +0.000 A 
ATOM     23  C   UNL     1      -0.129  10.509  21.963  0.00  0.00    +0.000 A 
ATOM     24  C   UNL     1       0.345   9.279  22.394  0.00  0.00    +0.000 A 
ATOM     25  N   UNL     1       1.024   8.411  21.605  0.00  0.00    +0.000 NA
BRANCH  22  26
ATOM     26  C   UNL     1      -0.302  12.229  20.166  0.00  0.00    +0.000 C 
ATOM     27  O   UNL     1      -0.951  12.340  19.136  0.00  0.00    +0.000 OA
ATOM     28  N   UNL     1       0.062  13.305  20.959  0.00  0.00    +0.000 N 
ATOM     29  C   UNL     1      -0.366  14.690  20.749  0.00  0.00    +0.000 C 
ATOM     30  C   UNL     1       1.092  15.105  20.851  0.00  0.00    +0.000 C 
ATOM     31  C   UNL     1       1.447  13.686  21.270  0.00  0.00    +0.000 C 
BRANCH  30  32
ATOM     32  S   UNL     1       1.814  15.720  19.346  0.00  0.00    +0.000 S 
ATOM     33  C   UNL     1       0.810  17.076  18.807  0.00  0.00    +0.000 C 
ATOM     34  O   UNL     1       3.125  16.262  19.651  0.00  0.00    +0.000 OA
ATOM     35  O   UNL     1       1.684  14.687  18.331  0.00  0.00    +0.000 OA
ENDBRANCH  30  32
ENDBRANCH  22  26
ENDBRANCH   2  20
TORSDOF 7
ENDMDL
MODEL 9
REMARK VINA RESULT:      -8.4      6.889     10.274
REMARK  Name = 
REMARK  10 active torsions:
REMARK  status: ('A' for Active; 'I' for Inactive)
REMARK    1  A    between atoms: C_1  and  C_2
REMARK    2  A    between atoms: C_2  and  C_3
REMARK    3  A    between atoms: C_2  and  C_10
REMARK    4  A    between atoms: C_3  and  C_4
REMARK    5  A    between atoms: N_8  and  C_9
REMARK    6  A    between atoms: C_14  and  N_15
REMARK    7  A    between atoms: C_16  and  C_18
REMARK    8  A    between atoms: C_20  and  C_21
REMARK    9  A    between atoms: C_25  and  S_26
REMARK   10  A    between atoms: S_26  and  C_27
REMARK                            x       y       z     vdW  Elec       q    Type
REMARK                         _______ _______ _______ _____ _____    ______ ____
ROOT
ATOM      1  N   UNL     1       1.688   8.761  20.001  0.00  0.00    +0.000 N 
ATOM      2  C   UNL     1       1.160   9.576  19.014  0.00  0.00    +0.000 C 
ATOM      3  O   UNL     1       0.786   9.225  17.899  0.00  0.00    +0.000 OA
ATOM      4  H   UNL     1       1.850   9.206  20.901  0.00  0.00    +0.000 HD
ENDROOT
BRANCH   1   9
ATOM      5  C   UNL     1       3.000   5.584  18.564  0.00  0.00    +0.000 A 
ATOM      6  C   UNL     1       2.516   4.664  19.508  0.00  0.00    +0.000 A 
ATOM      7  C   UNL     1       1.768   5.085  20.600  0.00  0.00    +0.000 A 
ATOM      8  C   UNL     1       1.490   6.435  20.771  0.00  0.00    +0.000 A 
ATOM      9  C   UNL     1       1.964   7.385  19.865  0.00  0.00    +0.000 A 
ATOM     10  C   UNL     1       2.718   6.953  18.765  0.00  0.00    +0.000 A 
BRANCH   5  12
ATOM     11  C   UNL     1       4.180   3.654  17.373  0.00  0.00    +0.000 C 
ATOM     12  C   UNL     1       3.777   5.140  17.320  0.00  0.00    +0.000 C 
BRANCH  12  13
ATOM     13  C   UNL     1       5.005   6.049  17.093  0.00  0.00    +0.000 C 
BRANCH  13  14
ATOM     14  C   UNL     1       6.081   5.841  18.107  0.00  0.00    +0.000 A 
ATOM     15  N   UNL     1       6.088   4.952  19.078  0.00  0.00    +0.000 NA
ATOM     16  N   UNL     1       7.237   5.131  19.815  0.00  0.00    +0.000 NA
ATOM     17  C   UNL     1       7.907   6.120  19.272  0.00  0.00    +0.000 A 
ATOM     18  N   UNL     1       7.234   6.580  18.183  0.00  0.00    +0.000 N 
ATOM     19  C   UNL     1       7.658   7.627  17.298  0.00  0.00    +0.000 C 
ENDBRANCH  13  14
ENDBRANCH  12  13
ENDBRANCH   5  12
ENDBRANCH   1   9
BRANCH   2  20
ATOM     20  C   UNL     1       1.008  11.013  19.381  0.00  0.00    +0.000 A 
ATOM     21  C   UNL     1       0.246  11.319  20.496  0.00  0.00    +0.000 A 
ATOM     22  C   UNL     1       0.117  12.657  20.858  0.00  0.00    +0.000 A 
ATOM     23  C   UNL     1       0.745  13.633  20.087  0.00  0.00    +0.000 A 
ATOM     24  C   UNL     1       1.479  13.229  18.981  0.00  0.00    +0.000 A 
ATOM     25  N   UNL     1       1.634  11.935  18.608  0.00  0.00    +0.000 NA
BRANCH  22  26
ATOM     26  C   UNL     1      -0.747  13.051  21.997  0.00  0.00    +0.000 C 
ATOM     27  O   UNL     1      -0.526  12.611  23.116  0.00  0.00    +0.000 OA
ATOM     28  N   UNL     1      -1.769  13.945  21.716  0.00  0.00    +0.000 N 
ATOM     29  C   UNL     1      -2.640  14.570  22.713  0.00  0.00    +0.000 C 
ATOM     30  C   UNL     1      -3.831  14.131  21.877  0.00  0.00    +0.000 C 
ATOM     31  C   UNL     1      -2.873  13.687  20.780  0.00  0.00    +0.000 C 
BRANCH  30  32
ATOM     32  S   UNL     1      -4.862  12.884  22.618  0.00  0.00    +0.000 S 
ATOM     33  C   UNL     1      -6.075  13.729  23.592  0.00  0.00    +0.000 C 
ATOM     34  O   UNL     1      -5.577  12.191  21.563  0.00  0.00    +0.000 OA
ATOM     35  O   UNL     1      -4.046  12.124  23.551  0.00  0.00    +0.000 OA
ENDBRANCH  30  32
ENDBRANCH  22  26
ENDBRANCH   2  20
TORSDOF 7
ENDMDL
