MODEL 1
REMARK VINA RESULT:      -8.9      0.000      0.000
REMARK  Name = 
REMARK  10 active torsions:
REMARK  status: ('A' for Active; 'I' for Inactive)
REMARK    1  A    between atoms: C_1  and  C_2
REMARK    2  A    between atoms: C_2  and  C_3
REMARK    3  A    between atoms: C_2  and  N_32
REMARK    4  A    between atoms: C_5  and  C_6
REMARK    5  A    between atoms: N_8  and  C_9
REMARK    6  A    between atoms: C_13  and  C_14
REMARK    7  A    between atoms: C_14  and  C_15
REMARK    8  A    between atoms: C_15  and  C_16
REMARK    9  A    between atoms: N_20  and  C_21
REMARK   10  A    between atoms: C_27  and  C_28
REMARK                            x       y       z     vdW  Elec       q    Type
REMARK                         _______ _______ _______ _____ _____    ______ ____
ROOT
ATOM      1  C   UNL     1       2.150   7.648  19.555  0.00  0.00    +0.000 C 
ATOM      2  O   UNL     1       2.086   8.414  18.597  0.00  0.00    +0.000 OA
ATOM      3  N   UNL     1       1.557   7.845  20.795  0.00  0.00    +0.000 N 
ATOM      4  H   UNL     1       1.822   7.172  21.511  0.00  0.00    +0.000 HD
ENDROOT
BRANCH   1   7
ATOM      5  C   UNL     1       4.797   5.220  18.619  0.00  0.00    +0.000 A 
ATOM      6  C   UNL     1       4.135   6.421  18.725  0.00  0.00    +0.000 A 
ATOM      7  C   UNL     1       2.947   6.396  19.421  0.00  0.00    +0.000 A 
ATOM      8  N   UNL     1       2.437   5.299  20.023  0.00  0.00    +0.000 NA
ATOM      9  C   UNL     1       3.157   4.171  19.901  0.00  0.00    +0.000 A 
ATOM     10  N   UNL     1       4.310   4.098  19.201  0.00  0.00    +0.000 NA
BRANCH   9  11
ATOM     11  C   UNL     1       2.671   2.941  20.623  0.00  0.00    +0.000 C 
ATOM     12  C   UNL     1       1.349   2.955  21.357  0.00  0.00    +0.000 C 
ATOM     13  C   UNL     1       1.477   2.187  20.076  0.00  0.00    +0.000 C 
ENDBRANCH   9  11
BRANCH   5  15
ATOM     14  C   UNL     1       6.637   6.528  17.613  0.00  0.00    +0.000 C 
ATOM     15  C   UNL     1       6.168   5.102  17.942  0.00  0.00    +0.000 C 
BRANCH  15  16
ATOM     16  N   UNL     1       6.166   4.266  16.718  0.00  0.00    +0.000 NA
ATOM     17  C   UNL     1       5.021   4.613  15.834  0.00  0.00    +0.000 C 
ATOM     18  C   UNL     1       5.980   4.586  14.629  0.00  0.00    +0.000 C 
ATOM     19  F   UNL     1       6.037   3.424  13.933  0.00  0.00    +0.000 F 
ATOM     20  C   UNL     1       7.085   4.814  15.684  0.00  0.00    +0.000 C 
ENDBRANCH  15  16
ENDBRANCH   5  15
ENDBRANCH   1   7
BRANCH   3  21
ATOM     21  C   UNL     1       0.778   8.956  21.164  0.00  0.00    +0.000 A 
ATOM     22  C   UNL     1       0.414   9.215  22.486  0.00  0.00    +0.000 A 
ATOM     23  C   UNL     1      -0.397  10.299  22.796  0.00  0.00    +0.000 A 
ATOM     24  C   UNL     1      -0.877  11.120  21.779  0.00  0.00    +0.000 A 
ATOM     25  C   UNL     1      -0.554  10.889  20.425  0.00  0.00    +0.000 A 
ATOM     26  C   UNL     1       0.329   9.820  20.157  0.00  0.00    +0.000 A 
BRANCH  25  27
ATOM     27  C   UNL     1      -1.225  11.755  19.256  0.00  0.00    +0.000 C 
ATOM     28  C   UNL     1      -1.327  11.144  17.827  0.00  0.00    +0.000 C 
ATOM     29  O   UNL     1      -2.718  11.566  17.725  0.00  0.00    +0.000 OA
ATOM     30  C   UNL     1      -2.780  11.642  19.171  0.00  0.00    +0.000 C 
BRANCH  27  31
ATOM     31  C   UNL     1      -0.742  13.217  19.267  0.00  0.00    +0.000 C 
BRANCH  31  32
ATOM     32  C   UNL     1       0.747  13.350  19.290  0.00  0.00    +0.000 A 
ATOM     33  N   UNL     1       1.566  13.053  18.300  0.00  0.00    +0.000 NA
ATOM     34  N   UNL     1       2.851  13.340  18.699  0.00  0.00    +0.000 NA
ATOM     35  C   UNL     1       2.789  13.808  19.922  0.00  0.00    +0.000 A 
ATOM     36  N   UNL     1       1.494  13.826  20.339  0.00  0.00    +0.000 N 
ATOM     37  C   UNL     1       1.042  14.277  21.627  0.00  0.00    +0.000 C 
ENDBRANCH  31  32
ENDBRANCH  27  31
ENDBRANCH  25  27
ENDBRANCH   3  21
TORSDOF 8
ENDMDL
MODEL 2
REMARK VINA RESULT:      -8.9      1.988      2.782
REMARK  Name = 
REMARK  10 active torsions:
REMARK  status: ('A' for Active; 'I' for Inactive)
REMARK    1  A    between atoms: C_1  and  C_2
REMARK    2  A    between atoms: C_2  and  C_3
REMARK    3  A    between atoms: C_2  and  N_32
REMARK    4  A    between atoms: C_5  and  C_6
REMARK    5  A    between atoms: N_8  and  C_9
REMARK    6  A    between atoms: C_13  and  C_14
REMARK    7  A    between atoms: C_14  and  C_15
REMARK    8  A    between atoms: C_15  and  C_16
REMARK    9  A    between atoms: N_20  and  C_21
REMARK   10  A    between atoms: C_27  and  C_28
REMARK                            x       y       z     vdW  Elec       q    Type
REMARK                         _______ _______ _______ _____ _____    ______ ____
ROOT
ATOM      1  C   UNL     1       2.089   8.632  18.125  0.00  0.00    +0.000 C 
ATOM      2  O   UNL     1       2.162   9.288  17.089  0.00  0.00    +0.000 OA
ATOM      3  N   UNL     1       1.321   8.953  19.237  0.00  0.00    +0.000 N 
ATOM      4  H   UNL     1       1.481   8.367  20.054  0.00  0.00    +0.000 HD
ENDROOT
BRANCH   1   7
ATOM      5  C   UNL     1       4.783   6.111  17.730  0.00  0.00    +0.000 A 
ATOM      6  C   UNL     1       4.108   7.301  17.593  0.00  0.00    +0.000 A 
ATOM      7  C   UNL     1       2.899   7.388  18.247  0.00  0.00    +0.000 A 
ATOM      8  N   UNL     1       2.379   6.412  19.024  0.00  0.00    +0.000 NA
ATOM      9  C   UNL     1       3.111   5.291  19.132  0.00  0.00    +0.000 A 
ATOM     10  N   UNL     1       4.287   5.107  18.493  0.00  0.00    +0.000 NA
BRANCH   9  11
ATOM     11  C   UNL     1       2.612   4.207  20.053  0.00  0.00    +0.000 C 
ATOM     12  C   UNL     1       1.233   4.299  20.667  0.00  0.00    +0.000 C 
ATOM     13  C   UNL     1       1.497   3.296  19.585  0.00  0.00    +0.000 C 
ENDBRANCH   9  11
BRANCH   5  15
ATOM     14  C   UNL     1       7.006   7.146  17.428  0.00  0.00    +0.000 C 
ATOM     15  C   UNL     1       6.175   5.889  17.127  0.00  0.00    +0.000 C 
BRANCH  15  16
ATOM     16  N   UNL     1       6.166   5.615  15.671  0.00  0.00    +0.000 NA
ATOM     17  C   UNL     1       7.242   4.656  15.299  0.00  0.00    +0.000 C 
ATOM     18  C   UNL     1       6.226   3.902  14.420  0.00  0.00    +0.000 C 
ATOM     19  F   UNL     1       6.206   4.236  13.106  0.00  0.00    +0.000 F 
ATOM     20  C   UNL     1       5.164   4.573  15.319  0.00  0.00    +0.000 C 
ENDBRANCH  15  16
ENDBRANCH   5  15
ENDBRANCH   1   7
BRANCH   3  21
ATOM     21  C   UNL     1       0.494  10.083  19.365  0.00  0.00    +0.000 A 
ATOM     22  C   UNL     1      -0.826  10.104  18.913  0.00  0.00    +0.000 A 
ATOM     23  C   UNL     1      -1.589  11.259  19.018  0.00  0.00    +0.000 A 
ATOM     24  C   UNL     1      -1.028  12.417  19.551  0.00  0.00    +0.000 A 
ATOM     25  C   UNL     1       0.308  12.453  20.004  0.00  0.00    +0.000 A 
ATOM     26  C   UNL     1       1.030  11.240  19.945  0.00  0.00    +0.000 A 
BRANCH  25  27
ATOM     27  C   UNL     1       0.982  13.824  20.483  0.00  0.00    +0.000 C 
ATOM     28  C   UNL     1       0.685  14.349  21.920  0.00  0.00    +0.000 C 
ATOM     29  O   UNL     1       2.102  14.610  22.138  0.00  0.00    +0.000 OA
ATOM     30  C   UNL     1       2.417  13.671  21.079  0.00  0.00    +0.000 C 
BRANCH  27  31
ATOM     31  C   UNL     1       0.908  14.917  19.402  0.00  0.00    +0.000 C 
BRANCH  31  32
ATOM     32  C   UNL     1       2.242  15.282  18.835  0.00  0.00    +0.000 A 
ATOM     33  N   UNL     1       2.920  14.588  17.941  0.00  0.00    +0.000 NA
ATOM     34  N   UNL     1       4.082  15.267  17.655  0.00  0.00    +0.000 NA
ATOM     35  C   UNL     1       4.088  16.361  18.378  0.00  0.00    +0.000 A 
ATOM     36  N   UNL     1       2.961  16.411  19.139  0.00  0.00    +0.000 N 
ATOM     37  C   UNL     1       2.624  17.467  20.055  0.00  0.00    +0.000 C 
ENDBRANCH  31  32
ENDBRANCH  27  31
ENDBRANCH  25  27
ENDBRANCH   3  21
TORSDOF 8
ENDMDL
MODEL 3
REMARK VINA RESULT:      -8.9      1.825      2.828
REMARK  Name = 
REMARK  10 active torsions:
REMARK  status: ('A' for Active; 'I' for Inactive)
REMARK    1  A    between atoms: C_1  and  C_2
REMARK    2  A    between atoms: C_2  and  C_3
REMARK    3  A    between atoms: C_2  and  N_32
REMARK    4  A    between atoms: C_5  and  C_6
REMARK    5  A    between atoms: N_8  and  C_9
REMARK    6  A    between atoms: C_13  and  C_14
REMARK    7  A    between atoms: C_14  and  C_15
REMARK    8  A    between atoms: C_15  and  C_16
REMARK    9  A    between atoms: N_20  and  C_21
REMARK   10  A    between atoms: C_27  and  C_28
REMARK                            x       y       z     vdW  Elec       q    Type
REMARK                         _______ _______ _______ _____ _____    ______ ____
ROOT
ATOM      1  C   UNL     1       1.821   7.890  19.697  0.00  0.00    +0.000 C 
ATOM      2  O   UNL     1       1.635   8.676  18.772  0.00  0.00    +0.000 OA
ATOM      3  N   UNL     1       1.361   8.043  20.999  0.00  0.00    +0.000 N 
ATOM      4  H   UNL     1       1.718   7.361  21.664  0.00  0.00    +0.000 HD
ENDROOT
BRANCH   1   7
ATOM      5  C   UNL     1       4.335   5.524  18.334  0.00  0.00    +0.000 A 
ATOM      6  C   UNL     1       3.658   6.705  18.533  0.00  0.00    +0.000 A 
ATOM      7  C   UNL     1       2.627   6.663  19.446  0.00  0.00    +0.000 A 
ATOM      8  N   UNL     1       2.286   5.569  20.163  0.00  0.00    +0.000 NA
ATOM      9  C   UNL     1       3.014   4.463  19.935  0.00  0.00    +0.000 A 
ATOM     10  N   UNL     1       4.014   4.406  19.029  0.00  0.00    +0.000 NA
BRANCH   9  11
ATOM     11  C   UNL     1       2.725   3.242  20.770  0.00  0.00    +0.000 C 
ATOM     12  C   UNL     1       1.487   3.182  21.637  0.00  0.00    +0.000 C 
ATOM     13  C   UNL     1       1.563   2.348  20.393  0.00  0.00    +0.000 C 
ENDBRANCH   9  11
BRANCH   5  15
ATOM     14  C   UNL     1       6.023   6.866  17.127  0.00  0.00    +0.000 C 
ATOM     15  C   UNL     1       5.554   5.430  17.410  0.00  0.00    +0.000 C 
BRANCH  15  16
ATOM     16  N   UNL     1       5.294   4.716  16.138  0.00  0.00    +0.000 NA
ATOM     17  C   UNL     1       5.561   5.593  14.966  0.00  0.00    +0.000 C 
ATOM     18  C   UNL     1       6.304   4.423  14.295  0.00  0.00    +0.000 C 
ATOM     19  F   UNL     1       5.579   3.665  13.436  0.00  0.00    +0.000 F 
ATOM     20  C   UNL     1       6.458   3.882  15.734  0.00  0.00    +0.000 C 
ENDBRANCH  15  16
ENDBRANCH   5  15
ENDBRANCH   1   7
BRANCH   3  21
ATOM     21  C   UNL     1       0.601   9.125  21.478  0.00  0.00    +0.000 A 
ATOM     22  C   UNL     1       0.093   9.171  22.776  0.00  0.00    +0.000 A 
ATOM     23  C   UNL     1      -0.693  10.238  23.189  0.00  0.00    +0.000 A 
ATOM     24  C   UNL     1      -1.002  11.260  22.295  0.00  0.00    +0.000 A 
ATOM     25  C   UNL     1      -0.528  11.251  20.966  0.00  0.00    +0.000 A 
ATOM     26  C   UNL     1       0.324  10.184  20.604  0.00  0.00    +0.000 A 
BRANCH  25  27
ATOM     27  C   UNL     1      -1.005  12.357  19.911  0.00  0.00    +0.000 C 
ATOM     28  C   UNL     1      -0.682  13.855  20.190  0.00  0.00    +0.000 C 
ATOM     29  O   UNL     1      -0.217  14.030  18.819  0.00  0.00    +0.000 OA
ATOM     30  C   UNL     1      -0.015  12.598  18.727  0.00  0.00    +0.000 C 
BRANCH  27  31
ATOM     31  C   UNL     1      -2.448  12.118  19.431  0.00  0.00    +0.000 C 
BRANCH  31  32
ATOM     32  C   UNL     1      -2.534  11.246  18.220  0.00  0.00    +0.000 A 
ATOM     33  N   UNL     1      -1.601  10.415  17.797  0.00  0.00    +0.000 NA
ATOM     34  N   UNL     1      -2.068   9.776  16.672  0.00  0.00    +0.000 NA
ATOM     35  C   UNL     1      -3.275  10.227  16.433  0.00  0.00    +0.000 A 
ATOM     36  N   UNL     1      -3.609  11.156  17.371  0.00  0.00    +0.000 N 
ATOM     37  C   UNL     1      -4.857  11.866  17.429  0.00  0.00    +0.000 C 
ENDBRANCH  31  32
ENDBRANCH  27  31
ENDBRANCH  25  27
ENDBRANCH   3  21
TORSDOF 8
ENDMDL
MODEL 4
REMARK VINA RESULT:      -8.8      2.139      3.286
REMARK  Name = 
REMARK  10 active torsions:
REMARK  status: ('A' for Active; 'I' for Inactive)
REMARK    1  A    between atoms: C_1  and  C_2
REMARK    2  A    between atoms: C_2  and  C_3
REMARK    3  A    between atoms: C_2  and  N_32
REMARK    4  A    between atoms: C_5  and  C_6
REMARK    5  A    between atoms: N_8  and  C_9
REMARK    6  A    between atoms: C_13  and  C_14
REMARK    7  A    between atoms: C_14  and  C_15
REMARK    8  A    between atoms: C_15  and  C_16
REMARK    9  A    between atoms: N_20  and  C_21
REMARK   10  A    between atoms: C_27  and  C_28
REMARK                            x       y       z     vdW  Elec       q    Type
REMARK                         _______ _______ _______ _____ _____    ______ ____
ROOT
ATOM      1  C   UNL     1       1.937   8.710  18.214  0.00  0.00    +0.000 C 
ATOM      2  O   UNL     1       2.247   9.366  17.223  0.00  0.00    +0.000 OA
ATOM      3  N   UNL     1       0.930   9.027  19.117  0.00  0.00    +0.000 N 
ATOM      4  H   UNL     1       0.897   8.443  19.948  0.00  0.00    +0.000 HD
ENDROOT
BRANCH   1   7
ATOM      5  C   UNL     1       4.521   6.046  18.186  0.00  0.00    +0.000 A 
ATOM      6  C   UNL     1       3.889   7.226  17.869  0.00  0.00    +0.000 A 
ATOM      7  C   UNL     1       2.702   7.470  18.524  0.00  0.00    +0.000 A 
ATOM      8  N   UNL     1       2.166   6.658  19.461  0.00  0.00    +0.000 NA
ATOM      9  C   UNL     1       2.857   5.540  19.738  0.00  0.00    +0.000 A 
ATOM     10  N   UNL     1       4.007   5.203  19.114  0.00  0.00    +0.000 NA
BRANCH   9  11
ATOM     11  C   UNL     1       2.342   4.644  20.835  0.00  0.00    +0.000 C 
ATOM     12  C   UNL     1       1.065   3.856  20.645  0.00  0.00    +0.000 C 
ATOM     13  C   UNL     1       2.384   3.143  20.643  0.00  0.00    +0.000 C 
ENDBRANCH   9  11
BRANCH   5  15
ATOM     14  C   UNL     1       6.584   6.978  17.194  0.00  0.00    +0.000 C 
ATOM     15  C   UNL     1       5.887   5.669  17.600  0.00  0.00    +0.000 C 
BRANCH  15  16
ATOM     16  N   UNL     1       5.814   4.746  16.443  0.00  0.00    +0.000 NA
ATOM     17  C   UNL     1       5.511   5.485  15.187  0.00  0.00    +0.000 C 
ATOM     18  C   UNL     1       6.607   4.668  14.477  0.00  0.00    +0.000 C 
ATOM     19  F   UNL     1       6.195   3.562  13.810  0.00  0.00    +0.000 F 
ATOM     20  C   UNL     1       7.166   4.448  15.900  0.00  0.00    +0.000 C 
ENDBRANCH  15  16
ENDBRANCH   5  15
ENDBRANCH   1   7
BRANCH   3  21
ATOM     21  C   UNL     1       0.091  10.154  19.046  0.00  0.00    +0.000 A 
ATOM     22  C   UNL     1      -1.005  10.223  18.186  0.00  0.00    +0.000 A 
ATOM     23  C   UNL     1      -1.777  11.375  18.117  0.00  0.00    +0.000 A 
ATOM     24  C   UNL     1      -1.440  12.483  18.890  0.00  0.00    +0.000 A 
ATOM     25  C   UNL     1      -0.330  12.471  19.760  0.00  0.00    +0.000 A 
ATOM     26  C   UNL     1       0.388  11.259  19.855  0.00  0.00    +0.000 A 
BRANCH  25  27
ATOM     27  C   UNL     1       0.127  13.796  20.536  0.00  0.00    +0.000 C 
ATOM     28  C   UNL     1       1.414  14.539  20.068  0.00  0.00    +0.000 C 
ATOM     29  O   UNL     1       0.718  15.818  20.122  0.00  0.00    +0.000 OA
ATOM     30  C   UNL     1      -0.545  15.112  20.031  0.00  0.00    +0.000 C 
BRANCH  27  31
ATOM     31  C   UNL     1       0.031  13.636  22.064  0.00  0.00    +0.000 C 
BRANCH  31  32
ATOM     32  C   UNL     1      -1.350  13.319  22.542  0.00  0.00    +0.000 A 
ATOM     33  N   UNL     1      -2.365  14.160  22.587  0.00  0.00    +0.000 NA
ATOM     34  N   UNL     1      -3.467  13.485  23.057  0.00  0.00    +0.000 NA
ATOM     35  C   UNL     1      -3.104  12.246  23.286  0.00  0.00    +0.000 A 
ATOM     36  N   UNL     1      -1.785  12.096  22.986  0.00  0.00    +0.000 N 
ATOM     37  C   UNL     1      -1.039  10.873  23.112  0.00  0.00    +0.000 C 
ENDBRANCH  31  32
ENDBRANCH  27  31
ENDBRANCH  25  27
ENDBRANCH   3  21
TORSDOF 8
ENDMDL
MODEL 5
REMARK VINA RESULT:      -8.8      1.341      1.657
REMARK  Name = 
REMARK  10 active torsions:
REMARK  status: ('A' for Active; 'I' for Inactive)
REMARK    1  A    between atoms: C_1  and  C_2
REMARK    2  A    between atoms: C_2  and  C_3
REMARK    3  A    between atoms: C_2  and  N_32
REMARK    4  A    between atoms: C_5  and  C_6
REMARK    5  A    between atoms: N_8  and  C_9
REMARK    6  A    between atoms: C_13  and  C_14
REMARK    7  A    between atoms: C_14  and  C_15
REMARK    8  A    between atoms: C_15  and  C_16
REMARK    9  A    between atoms: N_20  and  C_21
REMARK   10  A    between atoms: C_27  and  C_28
REMARK                            x       y       z     vdW  Elec       q    Type
REMARK                         _______ _______ _______ _____ _____    ______ ____
ROOT
ATOM      1  C   UNL     1       1.872   7.920  19.767  0.00  0.00    +0.000 C 
ATOM      2  O   UNL     1       1.636   8.673  18.826  0.00  0.00    +0.000 OA
ATOM      3  N   UNL     1       1.466   8.111  21.082  0.00  0.00    +0.000 N 
ATOM      4  H   UNL     1       1.860   7.456  21.753  0.00  0.00    +0.000 HD
ENDROOT
BRANCH   1   7
ATOM      5  C   UNL     1       4.452   5.582  18.484  0.00  0.00    +0.000 A 
ATOM      6  C   UNL     1       3.773   6.761  18.684  0.00  0.00    +0.000 A 
ATOM      7  C   UNL     1       2.682   6.695  19.522  0.00  0.00    +0.000 A 
ATOM      8  N   UNL     1       2.284   5.577  20.170  0.00  0.00    +0.000 NA
ATOM      9  C   UNL     1       3.016   4.473  19.947  0.00  0.00    +0.000 A 
ATOM     10  N   UNL     1       4.075   4.441  19.109  0.00  0.00    +0.000 NA
BRANCH   9  11
ATOM     11  C   UNL     1       2.661   3.224  20.711  0.00  0.00    +0.000 C 
ATOM     12  C   UNL     1       1.240   2.986  21.174  0.00  0.00    +0.000 C 
ATOM     13  C   UNL     1       1.798   2.172  20.045  0.00  0.00    +0.000 C 
ENDBRANCH   9  11
BRANCH   5  15
ATOM     14  C   UNL     1       6.102   6.951  17.255  0.00  0.00    +0.000 C 
ATOM     15  C   UNL     1       5.731   5.510  17.641  0.00  0.00    +0.000 C 
BRANCH  15  16
ATOM     16  N   UNL     1       5.607   4.670  16.426  0.00  0.00    +0.000 NA
ATOM     17  C   UNL     1       5.400   5.507  15.214  0.00  0.00    +0.000 C 
ATOM     18  C   UNL     1       6.439   4.643  14.475  0.00  0.00    +0.000 C 
ATOM     19  F   UNL     1       5.949   3.620  13.731  0.00  0.00    +0.000 F 
ATOM     20  C   UNL     1       6.942   4.288  15.891  0.00  0.00    +0.000 C 
ENDBRANCH  15  16
ENDBRANCH   5  15
ENDBRANCH   1   7
BRANCH   3  21
ATOM     21  C   UNL     1       0.713   9.199  21.558  0.00  0.00    +0.000 A 
ATOM     22  C   UNL     1       0.005   9.157  22.759  0.00  0.00    +0.000 A 
ATOM     23  C   UNL     1      -0.763  10.240  23.165  0.00  0.00    +0.000 A 
ATOM     24  C   UNL     1      -0.854  11.369  22.355  0.00  0.00    +0.000 A 
ATOM     25  C   UNL     1      -0.173  11.453  21.122  0.00  0.00    +0.000 A 
ATOM     26  C   UNL     1       0.653  10.361  20.777  0.00  0.00    +0.000 A 
BRANCH  25  27
ATOM     27  C   UNL     1      -0.398  12.697  20.137  0.00  0.00    +0.000 C 
ATOM     28  C   UNL     1       0.604  12.923  18.966  0.00  0.00    +0.000 C 
ATOM     29  O   UNL     1      -0.499  13.128  18.037  0.00  0.00    +0.000 OA
ATOM     30  C   UNL     1      -1.374  12.420  18.951  0.00  0.00    +0.000 C 
BRANCH  27  31
ATOM     31  C   UNL     1      -0.752  13.986  20.902  0.00  0.00    +0.000 C 
BRANCH  31  32
ATOM     32  C   UNL     1       0.447  14.771  21.328  0.00  0.00    +0.000 A 
ATOM     33  N   UNL     1       1.281  14.444  22.295  0.00  0.00    +0.000 NA
ATOM     34  N   UNL     1       2.266  15.403  22.360  0.00  0.00    +0.000 NA
ATOM     35  C   UNL     1       2.014  16.292  21.431  0.00  0.00    +0.000 A 
ATOM     36  N   UNL     1       0.880  15.944  20.763  0.00  0.00    +0.000 N 
ATOM     37  C   UNL     1       0.296  16.683  19.676  0.00  0.00    +0.000 C 
ENDBRANCH  31  32
ENDBRANCH  27  31
ENDBRANCH  25  27
ENDBRANCH   3  21
TORSDOF 8
ENDMDL
MODEL 6
REMARK VINA RESULT:      -8.8      1.673      2.589
REMARK  Name = 
REMARK  10 active torsions:
REMARK  status: ('A' for Active; 'I' for Inactive)
REMARK    1  A    between atoms: C_1  and  C_2
REMARK    2  A    between atoms: C_2  and  C_3
REMARK    3  A    between atoms: C_2  and  N_32
REMARK    4  A    between atoms: C_5  and  C_6
REMARK    5  A    between atoms: N_8  and  C_9
REMARK    6  A    between atoms: C_13  and  C_14
REMARK    7  A    between atoms: C_14  and  C_15
REMARK    8  A    between atoms: C_15  and  C_16
REMARK    9  A    between atoms: N_20  and  C_21
REMARK   10  A    between atoms: C_27  and  C_28
REMARK                            x       y       z     vdW  Elec       q    Type
REMARK                         _______ _______ _______ _____ _____    ______ ____
ROOT
ATOM      1  C   UNL     1       1.870   7.877  19.771  0.00  0.00    +0.000 C 
ATOM      2  O   UNL     1       1.521   8.575  18.823  0.00  0.00    +0.000 OA
ATOM      3  N   UNL     1       1.589   8.124  21.109  0.00  0.00    +0.000 N 
ATOM      4  H   UNL     1       2.066   7.513  21.769  0.00  0.00    +0.000 HD
ENDROOT
BRANCH   1   7
ATOM      5  C   UNL     1       4.484   5.587  18.470  0.00  0.00    +0.000 A 
ATOM      6  C   UNL     1       3.797   6.757  18.691  0.00  0.00    +0.000 A 
ATOM      7  C   UNL     1       2.691   6.662  19.506  0.00  0.00    +0.000 A 
ATOM      8  N   UNL     1       2.285   5.525  20.114  0.00  0.00    +0.000 NA
ATOM      9  C   UNL     1       3.026   4.431  19.873  0.00  0.00    +0.000 A 
ATOM     10  N   UNL     1       4.101   4.427  19.054  0.00  0.00    +0.000 NA
BRANCH   9  11
ATOM     11  C   UNL     1       2.662   3.158  20.593  0.00  0.00    +0.000 C 
ATOM     12  C   UNL     1       1.353   3.050  21.343  0.00  0.00    +0.000 C 
ATOM     13  C   UNL     1       1.533   2.303  20.056  0.00  0.00    +0.000 C 
ENDBRANCH   9  11
BRANCH   5  15
ATOM     14  C   UNL     1       6.083   6.985  17.206  0.00  0.00    +0.000 C 
ATOM     15  C   UNL     1       5.779   5.545  17.649  0.00  0.00    +0.000 C 
BRANCH  15  16
ATOM     16  N   UNL     1       5.718   4.648  16.471  0.00  0.00    +0.000 NA
ATOM     17  C   UNL     1       5.486   5.420  15.221  0.00  0.00    +0.000 C 
ATOM     18  C   UNL     1       6.580   4.582  14.533  0.00  0.00    +0.000 C 
ATOM     19  F   UNL     1       6.156   3.504  13.829  0.00  0.00    +0.000 F 
ATOM     20  C   UNL     1       7.079   4.315  15.970  0.00  0.00    +0.000 C 
ENDBRANCH  15  16
ENDBRANCH   5  15
ENDBRANCH   1   7
BRANCH   3  21
ATOM     21  C   UNL     1       0.852   9.214  21.605  0.00  0.00    +0.000 A 
ATOM     22  C   UNL     1      -0.139   9.074  22.576  0.00  0.00    +0.000 A 
ATOM     23  C   UNL     1      -0.873  10.174  23.000  0.00  0.00    +0.000 A 
ATOM     24  C   UNL     1      -0.640  11.424  22.433  0.00  0.00    +0.000 A 
ATOM     25  C   UNL     1       0.338  11.615  21.434  0.00  0.00    +0.000 A 
ATOM     26  C   UNL     1       1.111  10.487  21.080  0.00  0.00    +0.000 A 
BRANCH  25  27
ATOM     27  C   UNL     1       0.499  13.026  20.693  0.00  0.00    +0.000 C 
ATOM     28  C   UNL     1       1.360  14.137  21.364  0.00  0.00    +0.000 C 
ATOM     29  O   UNL     1       2.037  14.402  20.101  0.00  0.00    +0.000 OA
ATOM     30  C   UNL     1       1.652  13.082  19.642  0.00  0.00    +0.000 C 
BRANCH  27  31
ATOM     31  C   UNL     1      -0.838  13.541  20.128  0.00  0.00    +0.000 C 
BRANCH  31  32
ATOM     32  C   UNL     1      -1.515  12.563  19.222  0.00  0.00    +0.000 A 
ATOM     33  N   UNL     1      -0.944  11.902  18.233  0.00  0.00    +0.000 NA
ATOM     34  N   UNL     1      -1.888  11.082  17.659  0.00  0.00    +0.000 NA
ATOM     35  C   UNL     1      -3.013  11.258  18.309  0.00  0.00    +0.000 A 
ATOM     36  N   UNL     1      -2.831  12.182  19.292  0.00  0.00    +0.000 N 
ATOM     37  C   UNL     1      -3.844  12.629  20.209  0.00  0.00    +0.000 C 
ENDBRANCH  31  32
ENDBRANCH  27  31
ENDBRANCH  25  27
ENDBRANCH   3  21
TORSDOF 8
ENDMDL
MODEL 7
REMARK VINA RESULT:      -8.8      2.718      3.750
REMARK  Name = 
REMARK  10 active torsions:
REMARK  status: ('A' for Active; 'I' for Inactive)
REMARK    1  A    between atoms: C_1  and  C_2
REMARK    2  A    between atoms: C_2  and  C_3
REMARK    3  A    between atoms: C_2  and  N_32
REMARK    4  A    between atoms: C_5  and  C_6
REMARK    5  A    between atoms: N_8  and  C_9
REMARK    6  A    between atoms: C_13  and  C_14
REMARK    7  A    between atoms: C_14  and  C_15
REMARK    8  A    between atoms: C_15  and  C_16
REMARK    9  A    between atoms: N_20  and  C_21
REMARK   10  A    between atoms: C_27  and  C_28
REMARK                            x       y       z     vdW  Elec       q    Type
REMARK                         _______ _______ _______ _____ _____    ______ ____
ROOT
ATOM      1  C   UNL     1       1.728   7.917  19.603  0.00  0.00    +0.000 C 
ATOM      2  O   UNL     1       1.267   8.153  20.716  0.00  0.00    +0.000 OA
ATOM      3  N   UNL     1       1.482   8.651  18.449  0.00  0.00    +0.000 N 
ATOM      4  H   UNL     1       1.842   8.238  17.592  0.00  0.00    +0.000 HD
ENDROOT
BRANCH   1   7
ATOM      5  C   UNL     1       4.476   5.690  18.482  0.00  0.00    +0.000 A 
ATOM      6  C   UNL     1       3.724   6.833  18.617  0.00  0.00    +0.000 A 
ATOM      7  C   UNL     1       2.615   6.733  19.428  0.00  0.00    +0.000 A 
ATOM      8  N   UNL     1       2.264   5.620  20.108  0.00  0.00    +0.000 NA
ATOM      9  C   UNL     1       3.065   4.553  19.949  0.00  0.00    +0.000 A 
ATOM     10  N   UNL     1       4.148   4.552  19.141  0.00  0.00    +0.000 NA
BRANCH   9  11
ATOM     11  C   UNL     1       2.761   3.314  20.750  0.00  0.00    +0.000 C 
ATOM     12  C   UNL     1       1.369   3.073  21.290  0.00  0.00    +0.000 C 
ATOM     13  C   UNL     1       1.875   2.244  20.148  0.00  0.00    +0.000 C 
ENDBRANCH   9  11
BRANCH   5  15
ATOM     14  C   UNL     1       6.054   7.100  17.205  0.00  0.00    +0.000 C 
ATOM     15  C   UNL     1       5.781   5.662  17.677  0.00  0.00    +0.000 C 
BRANCH  15  16
ATOM     16  N   UNL     1       5.756   4.738  16.518  0.00  0.00    +0.000 NA
ATOM     17  C   UNL     1       5.582   5.483  15.242  0.00  0.00    +0.000 C 
ATOM     18  C   UNL     1       6.693   4.617  14.618  0.00  0.00    +0.000 C 
ATOM     19  F   UNL     1       6.285   3.527  13.923  0.00  0.00    +0.000 F 
ATOM     20  C   UNL     1       7.132   4.379  16.080  0.00  0.00    +0.000 C 
ENDBRANCH  15  16
ENDBRANCH   5  15
ENDBRANCH   1   7
BRANCH   3  21
ATOM     21  C   UNL     1       0.664   9.791  18.361  0.00  0.00    +0.000 A 
ATOM     22  C   UNL     1       1.000  11.006  18.960  0.00  0.00    +0.000 A 
ATOM     23  C   UNL     1       0.138  12.092  18.886  0.00  0.00    +0.000 A 
ATOM     24  C   UNL     1      -1.086  11.963  18.235  0.00  0.00    +0.000 A 
ATOM     25  C   UNL     1      -1.481  10.751  17.630  0.00  0.00    +0.000 A 
ATOM     26  C   UNL     1      -0.548   9.691  17.666  0.00  0.00    +0.000 A 
BRANCH  25  27
ATOM     27  C   UNL     1      -2.946  10.576  17.008  0.00  0.00    +0.000 C 
ATOM     28  C   UNL     1      -3.433  11.585  15.926  0.00  0.00    +0.000 C 
ATOM     29  O   UNL     1      -3.917  10.491  15.095  0.00  0.00    +0.000 OA
ATOM     30  C   UNL     1      -3.028   9.589  15.801  0.00  0.00    +0.000 C 
BRANCH  27  31
ATOM     31  C   UNL     1      -4.003  10.275  18.087  0.00  0.00    +0.000 C 
BRANCH  31  32
ATOM     32  C   UNL     1      -5.032  11.350  18.227  0.00  0.00    +0.000 A 
ATOM     33  N   UNL     1      -6.142  11.454  17.522  0.00  0.00    +0.000 NA
ATOM     34  N   UNL     1      -6.836  12.556  17.967  0.00  0.00    +0.000 NA
ATOM     35  C   UNL     1      -6.136  13.100  18.933  0.00  0.00    +0.000 A 
ATOM     36  N   UNL     1      -4.994  12.385  19.127  0.00  0.00    +0.000 N 
ATOM     37  C   UNL     1      -3.984  12.684  20.105  0.00  0.00    +0.000 C 
ENDBRANCH  31  32
ENDBRANCH  27  31
ENDBRANCH  25  27
ENDBRANCH   3  21
TORSDOF 8
ENDMDL
MODEL 8
REMARK VINA RESULT:      -8.7      2.863      3.953
REMARK  Name = 
REMARK  10 active torsions:
REMARK  status: ('A' for Active; 'I' for Inactive)
REMARK    1  A    between atoms: C_1  and  C_2
REMARK    2  A    between atoms: C_2  and  C_3
REMARK    3  A    between atoms: C_2  and  N_32
REMARK    4  A    between atoms: C_5  and  C_6
REMARK    5  A    between atoms: N_8  and  C_9
REMARK    6  A    between atoms: C_13  and  C_14
REMARK    7  A    between atoms: C_14  and  C_15
REMARK    8  A    between atoms: C_15  and  C_16
REMARK    9  A    between atoms: N_20  and  C_21
REMARK   10  A    between atoms: C_27  and  C_28
REMARK                            x       y       z     vdW  Elec       q    Type
REMARK                         _______ _______ _______ _____ _____    ______ ____
ROOT
ATOM      1  C   UNL     1       1.839   8.845  18.533  0.00  0.00    +0.000 C 
ATOM      2  O   UNL     1       2.071   9.575  17.574  0.00  0.00    +0.000 OA
ATOM      3  N   UNL     1       0.955   9.120  19.569  0.00  0.00    +0.000 N 
ATOM      4  H   UNL     1       0.984   8.463  20.345  0.00  0.00    +0.000 HD
ENDROOT
BRANCH   1   7
ATOM      5  C   UNL     1       4.252   6.083  17.968  0.00  0.00    +0.000 A 
ATOM      6  C   UNL     1       3.651   7.312  17.827  0.00  0.00    +0.000 A 
ATOM      7  C   UNL     1       2.569   7.551  18.645  0.00  0.00    +0.000 A 
ATOM      8  N   UNL     1       2.110   6.687  19.577  0.00  0.00    +0.000 NA
ATOM      9  C   UNL     1       2.769   5.521  19.675  0.00  0.00    +0.000 A 
ATOM     10  N   UNL     1       3.813   5.188  18.885  0.00  0.00    +0.000 NA
BRANCH   9  11
ATOM     11  C   UNL     1       2.346   4.559  20.756  0.00  0.00    +0.000 C 
ATOM     12  C   UNL     1       1.037   3.811  20.646  0.00  0.00    +0.000 C 
ATOM     13  C   UNL     1       2.329   3.075  20.458  0.00  0.00    +0.000 C 
ENDBRANCH   9  11
BRANCH   5  15
ATOM     14  C   UNL     1       6.384   6.960  17.076  0.00  0.00    +0.000 C 
ATOM     15  C   UNL     1       5.513   5.698  17.185  0.00  0.00    +0.000 C 
BRANCH  15  16
ATOM     16  N   UNL     1       5.241   5.145  15.837  0.00  0.00    +0.000 NA
ATOM     17  C   UNL     1       6.389   5.380  14.920  0.00  0.00    +0.000 C 
ATOM     18  C   UNL     1       6.263   3.924  14.433  0.00  0.00    +0.000 C 
ATOM     19  F   UNL     1       5.531   3.729  13.308  0.00  0.00    +0.000 F 
ATOM     20  C   UNL     1       5.538   3.688  15.777  0.00  0.00    +0.000 C 
ENDBRANCH  15  16
ENDBRANCH   5  15
ENDBRANCH   1   7
BRANCH   3  21
ATOM     21  C   UNL     1       0.172  10.282  19.693  0.00  0.00    +0.000 A 
ATOM     22  C   UNL     1       0.470  11.296  20.602  0.00  0.00    +0.000 A 
ATOM     23  C   UNL     1      -0.360  12.403  20.721  0.00  0.00    +0.000 A 
ATOM     24  C   UNL     1      -1.515  12.492  19.949  0.00  0.00    +0.000 A 
ATOM     25  C   UNL     1      -1.870  11.484  19.028  0.00  0.00    +0.000 A 
ATOM     26  C   UNL     1      -0.966  10.408  18.886  0.00  0.00    +0.000 A 
BRANCH  25  27
ATOM     27  C   UNL     1      -3.269  11.531  18.250  0.00  0.00    +0.000 C 
ATOM     28  C   UNL     1      -3.275  11.397  16.698  0.00  0.00    +0.000 C 
ATOM     29  O   UNL     1      -4.359  10.426  16.766  0.00  0.00    +0.000 OA
ATOM     30  C   UNL     1      -4.004  10.157  18.146  0.00  0.00    +0.000 C 
BRANCH  27  31
ATOM     31  C   UNL     1      -4.188  12.650  18.774  0.00  0.00    +0.000 C 
BRANCH  31  32
ATOM     32  C   UNL     1      -5.342  12.143  19.578  0.00  0.00    +0.000 A 
ATOM     33  N   UNL     1      -5.311  11.819  20.856  0.00  0.00    +0.000 NA
ATOM     34  N   UNL     1      -6.574  11.427  21.234  0.00  0.00    +0.000 NA
ATOM     35  C   UNL     1      -7.349  11.521  20.181  0.00  0.00    +0.000 A 
ATOM     36  N   UNL     1      -6.621  11.957  19.117  0.00  0.00    +0.000 N 
ATOM     37  C   UNL     1      -7.137  12.180  17.794  0.00  0.00    +0.000 C 
ENDBRANCH  31  32
ENDBRANCH  27  31
ENDBRANCH  25  27
ENDBRANCH   3  21
TORSDOF 8
ENDMDL
MODEL 9
REMARK VINA RESULT:      -8.6      2.020      2.955
REMARK  Name = 
REMARK  10 active torsions:
REMARK  status: ('A' for Active; 'I' for Inactive)
REMARK    1  A    between atoms: C_1  and  C_2
REMARK    2  A    between atoms: C_2  and  C_3
REMARK    3  A    between atoms: C_2  and  N_32
REMARK    4  A    between atoms: C_5  and  C_6
REMARK    5  A    between atoms: N_8  and  C_9
REMARK    6  A    between atoms: C_13  and  C_14
REMARK    7  A    between atoms: C_14  and  C_15
REMARK    8  A    between atoms: C_15  and  C_16
REMARK    9  A    between atoms: N_20  and  C_21
REMARK   10  A    between atoms: C_27  and  C_28
REMARK                            x       y       z     vdW  Elec       q    Type
REMARK                         _______ _______ _______ _____ _____    ______ ____
ROOT
ATOM      1  C   UNL     1       2.038   8.638  18.224  0.00  0.00    +0.000 C 
ATOM      2  O   UNL     1       2.110   9.209  17.140  0.00  0.00    +0.000 OA
ATOM      3  N   UNL     1       1.295   9.061  19.319  0.00  0.00    +0.000 N 
ATOM      4  H   UNL     1       1.455   8.537  20.176  0.00  0.00    +0.000 HD
ENDROOT
BRANCH   1   7
ATOM      5  C   UNL     1       4.622   5.990  17.924  0.00  0.00    +0.000 A 
ATOM      6  C   UNL     1       3.970   7.180  17.698  0.00  0.00    +0.000 A 
ATOM      7  C   UNL     1       2.823   7.389  18.432  0.00  0.00    +0.000 A 
ATOM      8  N   UNL     1       2.344   6.532  19.362  0.00  0.00    +0.000 NA
ATOM      9  C   UNL     1       3.053   5.406  19.547  0.00  0.00    +0.000 A 
ATOM     10  N   UNL     1       4.165   5.104  18.842  0.00  0.00    +0.000 NA
BRANCH   9  11
ATOM     11  C   UNL     1       2.605   4.459  20.630  0.00  0.00    +0.000 C 
ATOM     12  C   UNL     1       1.153   4.053  20.741  0.00  0.00    +0.000 C 
ATOM     13  C   UNL     1       2.165   3.061  20.253  0.00  0.00    +0.000 C 
ENDBRANCH   9  11
BRANCH   5  15
ATOM     14  C   UNL     1       6.919   6.807  17.525  0.00  0.00    +0.000 C 
ATOM     15  C   UNL     1       5.951   5.647  17.243  0.00  0.00    +0.000 C 
BRANCH  15  16
ATOM     16  N   UNL     1       5.840   5.415  15.784  0.00  0.00    +0.000 NA
ATOM     17  C   UNL     1       7.105   4.858  15.232  0.00  0.00    +0.000 C 
ATOM     18  C   UNL     1       6.274   3.837  14.433  0.00  0.00    +0.000 C 
ATOM     19  F   UNL     1       5.979   4.173  13.153  0.00  0.00    +0.000 F 
ATOM     20  C   UNL     1       5.181   4.114  15.489  0.00  0.00    +0.000 C 
ENDBRANCH  15  16
ENDBRANCH   5  15
ENDBRANCH   1   7
BRANCH   3  21
ATOM     21  C   UNL     1       0.495  10.217  19.369  0.00  0.00    +0.000 A 
ATOM     22  C   UNL     1      -0.879  10.192  19.132  0.00  0.00    +0.000 A 
ATOM     23  C   UNL     1      -1.620  11.366  19.146  0.00  0.00    +0.000 A 
ATOM     24  C   UNL     1      -0.985  12.585  19.370  0.00  0.00    +0.000 A 
ATOM     25  C   UNL     1       0.406  12.666  19.596  0.00  0.00    +0.000 A 
ATOM     26  C   UNL     1       1.113  11.444  19.643  0.00  0.00    +0.000 A 
BRANCH  25  27
ATOM     27  C   UNL     1       1.143  14.083  19.712  0.00  0.00    +0.000 C 
ATOM     28  C   UNL     1       1.997  14.591  18.513  0.00  0.00    +0.000 C 
ATOM     29  O   UNL     1       1.376  15.907  18.604  0.00  0.00    +0.000 OA
ATOM     30  C   UNL     1       0.263  15.310  19.314  0.00  0.00    +0.000 C 
BRANCH  27  31
ATOM     31  C   UNL     1       1.828  14.270  21.078  0.00  0.00    +0.000 C 
BRANCH  31  32
ATOM     32  C   UNL     1       0.921  14.830  22.126  0.00  0.00    +0.000 A 
ATOM     33  N   UNL     1       0.003  14.158  22.794  0.00  0.00    +0.000 NA
ATOM     34  N   UNL     1      -0.599  15.016  23.685  0.00  0.00    +0.000 NA
ATOM     35  C   UNL     1      -0.035  16.191  23.546  0.00  0.00    +0.000 A 
ATOM     36  N   UNL     1       0.918  16.127  22.575  0.00  0.00    +0.000 N 
ATOM     37  C   UNL     1       1.744  17.223  22.149  0.00  0.00    +0.000 C 
ENDBRANCH  31  32
ENDBRANCH  27  31
ENDBRANCH  25  27
ENDBRANCH   3  21
TORSDOF 8
ENDMDL
