MODEL 1
REMARK VINA RESULT:      -9.6      0.000      0.000
REMARK  Name = 
REMARK  8 active torsions:
REMARK  status: ('A' for Active; 'I' for Inactive)
REMARK    1  A    between atoms: C_1  and  N_2
REMARK    2  A    between atoms: C_6  and  C_7
REMARK    3  A    between atoms: C_7  and  C_8
REMARK    4  A    between atoms: C_8  and  C_9
REMARK    5  A    between atoms: C_13  and  N_14
REMARK    6  A    between atoms: C_19  and  N_20
REMARK    7  A    between atoms: C_22  and  C_23
REMARK    8  A    between atoms: C_29  and  C_30
REMARK                            x       y       z     vdW  Elec       q    Type
REMARK                         _______ _______ _______ _____ _____    ______ ____
ROOT
ATOM      1  N   UNL     1       1.065   8.578  20.574  0.00  0.00    +0.000 N 
ATOM      2  C   UNL     1       1.229   7.201  20.995  0.00  0.00    +0.000 C 
ATOM      3  C   UNL     1       1.998   6.575  19.897  0.00  0.00    +0.000 A 
ATOM      4  C   UNL     1       2.369   7.536  18.965  0.00  0.00    +0.000 A 
ATOM      5  C   UNL     1       3.162   7.210  17.875  0.00  0.00    +0.000 A 
ATOM      6  C   UNL     1       3.592   5.869  17.737  0.00  0.00    +0.000 A 
ATOM      7  C   UNL     1       3.132   4.904  18.667  0.00  0.00    +0.000 A 
ATOM      8  C   UNL     1       2.340   5.237  19.766  0.00  0.00    +0.000 A 
ATOM      9  C   UNL     1       1.752   8.829  19.379  0.00  0.00    +0.000 C 
ATOM     10  O   UNL     1       1.858   9.857  18.728  0.00  0.00    +0.000 OA
ENDROOT
BRANCH   1  15
ATOM     11  C   UNL     1      -1.285  11.428  21.292  0.00  0.00    +0.000 A 
ATOM     12  C   UNL     1      -1.389  11.305  22.683  0.00  0.00    +0.000 A 
ATOM     13  C   UNL     1      -0.733  10.279  23.381  0.00  0.00    +0.000 A 
ATOM     14  C   UNL     1       0.072   9.346  22.712  0.00  0.00    +0.000 A 
ATOM     15  C   UNL     1       0.223   9.429  21.335  0.00  0.00    +0.000 A 
ATOM     16  C   UNL     1      -0.484  10.454  20.667  0.00  0.00    +0.000 A 
BRANCH  11  17
ATOM     17  C   UNL     1      -2.009  12.579  20.411  0.00  0.00    +0.000 C 
ATOM     18  C   UNL     1      -3.549  12.683  20.580  0.00  0.00    +0.000 C 
ATOM     19  O   UNL     1      -3.792  12.410  19.188  0.00  0.00    +0.000 OA
ATOM     20  C   UNL     1      -2.382  12.235  18.935  0.00  0.00    +0.000 C 
BRANCH  17  21
ATOM     21  C   UNL     1      -1.296  13.948  20.561  0.00  0.00    +0.000 C 
BRANCH  21  27
ATOM     22  C   UNL     1       0.991  13.283  18.473  0.00  0.00    +0.000 C 
ATOM     23  N   UNL     1       1.147  13.581  19.871  0.00  0.00    +0.000 N 
ATOM     24  C   UNL     1       2.339  13.601  20.533  0.00  0.00    +0.000 A 
ATOM     25  N   UNL     1       2.130  13.866  21.800  0.00  0.00    +0.000 NA
ATOM     26  N   UNL     1       0.780  14.009  21.977  0.00  0.00    +0.000 NA
ATOM     27  C   UNL     1       0.179  13.863  20.809  0.00  0.00    +0.000 A 
ENDBRANCH  21  27
ENDBRANCH  17  21
ENDBRANCH  11  17
ENDBRANCH   1  15
BRANCH   6  28
ATOM     28  N   UNL     1       4.454   5.440  16.703  0.00  0.00    +0.000 N 
ATOM     29  C   UNL     1       5.101   4.155  16.617  0.00  0.00    +0.000 C 
ATOM     30  C   UNL     1       6.403   4.879  16.276  0.00  0.00    +0.000 C 
ATOM     31  C   UNL     1       5.548   6.136  16.102  0.00  0.00    +0.000 C 
BRANCH  30  32
ATOM     32  C   UNL     1       7.413   4.942  17.389  0.00  0.00    +0.000 C 
ATOM     33  F   UNL     1       7.978   6.164  17.520  0.00  0.00    +0.000 F 
ATOM     34  F   UNL     1       6.811   4.650  18.566  0.00  0.00    +0.000 F 
ATOM     35  F   UNL     1       8.407   4.041  17.214  0.00  0.00    +0.000 F 
ENDBRANCH  30  32
ENDBRANCH   6  28
BRANCH   8  36
ATOM     36  C   UNL     1       1.882   4.173  20.726  0.00  0.00    +0.000 C 
ATOM     37  F   UNL     1       2.307   2.921  20.410  0.00  0.00    +0.000 F 
ATOM     38  F   UNL     1       2.311   4.408  21.996  0.00  0.00    +0.000 F 
ATOM     39  F   UNL     1       0.526   4.093  20.795  0.00  0.00    +0.000 F 
ENDBRANCH   8  36
TORSDOF 7
ENDMDL
MODEL 2
REMARK VINA RESULT:      -9.6      4.031      9.387
REMARK  Name = 
REMARK  8 active torsions:
REMARK  status: ('A' for Active; 'I' for Inactive)
REMARK    1  A    between atoms: C_1  and  N_2
REMARK    2  A    between atoms: C_6  and  C_7
REMARK    3  A    between atoms: C_7  and  C_8
REMARK    4  A    between atoms: C_8  and  C_9
REMARK    5  A    between atoms: C_13  and  N_14
REMARK    6  A    between atoms: C_19  and  N_20
REMARK    7  A    between atoms: C_22  and  C_23
REMARK    8  A    between atoms: C_29  and  C_30
REMARK                            x       y       z     vdW  Elec       q    Type
REMARK                         _______ _______ _______ _____ _____    ______ ____
ROOT
ATOM      1  N   UNL     1       2.275   7.459  19.476  0.00  0.00    +0.000 N 
ATOM      2  C   UNL     1       1.513   7.749  20.674  0.00  0.00    +0.000 C 
ATOM      3  C   UNL     1       0.951   9.096  20.430  0.00  0.00    +0.000 A 
ATOM      4  C   UNL     1       1.251   9.512  19.139  0.00  0.00    +0.000 A 
ATOM      5  C   UNL     1       0.771  10.715  18.644  0.00  0.00    +0.000 A 
ATOM      6  C   UNL     1      -0.040  11.510  19.487  0.00  0.00    +0.000 A 
ATOM      7  C   UNL     1      -0.262  11.087  20.821  0.00  0.00    +0.000 A 
ATOM      8  C   UNL     1       0.216   9.873  21.313  0.00  0.00    +0.000 A 
ATOM      9  C   UNL     1       2.126   8.474  18.522  0.00  0.00    +0.000 C 
ATOM     10  O   UNL     1       2.597   8.580  17.400  0.00  0.00    +0.000 OA
ENDROOT
BRANCH   1  15
ATOM     11  C   UNL     1       5.310   5.336  18.816  0.00  0.00    +0.000 A 
ATOM     12  C   UNL     1       4.807   4.081  19.183  0.00  0.00    +0.000 A 
ATOM     13  C   UNL     1       3.503   3.929  19.680  0.00  0.00    +0.000 A 
ATOM     14  C   UNL     1       2.643   5.030  19.809  0.00  0.00    +0.000 A 
ATOM     15  C   UNL     1       3.085   6.295  19.447  0.00  0.00    +0.000 A 
ATOM     16  C   UNL     1       4.416   6.409  18.986  0.00  0.00    +0.000 A 
BRANCH  11  17
ATOM     17  C   UNL     1       6.800   5.598  18.236  0.00  0.00    +0.000 C 
ATOM     18  C   UNL     1       7.867   6.002  19.289  0.00  0.00    +0.000 C 
ATOM     19  O   UNL     1       8.126   7.264  18.648  0.00  0.00    +0.000 OA
ATOM     20  C   UNL     1       7.112   7.011  17.652  0.00  0.00    +0.000 C 
BRANCH  17  21
ATOM     21  C   UNL     1       7.271   4.438  17.322  0.00  0.00    +0.000 C 
BRANCH  21  27
ATOM     22  C   UNL     1       4.637   3.511  15.827  0.00  0.00    +0.000 C 
ATOM     23  N   UNL     1       5.767   4.197  15.258  0.00  0.00    +0.000 N 
ATOM     24  C   UNL     1       5.886   4.542  13.945  0.00  0.00    +0.000 A 
ATOM     25  N   UNL     1       7.048   5.116  13.748  0.00  0.00    +0.000 NA
ATOM     26  N   UNL     1       7.708   5.136  14.947  0.00  0.00    +0.000 NA
ATOM     27  C   UNL     1       6.930   4.604  15.872  0.00  0.00    +0.000 A 
ENDBRANCH  21  27
ENDBRANCH  17  21
ENDBRANCH  11  17
ENDBRANCH   1  15
BRANCH   6  28
ATOM     28  N   UNL     1      -0.634  12.721  19.065  0.00  0.00    +0.000 N 
ATOM     29  C   UNL     1      -0.229  13.514  17.932  0.00  0.00    +0.000 C 
ATOM     30  C   UNL     1      -0.302  14.752  18.825  0.00  0.00    +0.000 C 
ATOM     31  C   UNL     1      -1.005  13.857  19.848  0.00  0.00    +0.000 C 
BRANCH  30  32
ATOM     32  C   UNL     1       1.026  15.305  19.267  0.00  0.00    +0.000 C 
ATOM     33  F   UNL     1       1.902  14.342  19.634  0.00  0.00    +0.000 F 
ATOM     34  F   UNL     1       1.592  15.995  18.248  0.00  0.00    +0.000 F 
ATOM     35  F   UNL     1       0.892  16.162  20.304  0.00  0.00    +0.000 F 
ENDBRANCH  30  32
ENDBRANCH   6  28
BRANCH   8  36
ATOM     36  C   UNL     1      -0.053   9.469  22.738  0.00  0.00    +0.000 C 
ATOM     37  F   UNL     1      -0.775   8.325  22.863  0.00  0.00    +0.000 F 
ATOM     38  F   UNL     1       1.096   9.271  23.440  0.00  0.00    +0.000 F 
ATOM     39  F   UNL     1      -0.751  10.419  23.417  0.00  0.00    +0.000 F 
ENDBRANCH   8  36
TORSDOF 7
ENDMDL
MODEL 3
REMARK VINA RESULT:      -9.6      0.925      1.380
REMARK  Name = 
REMARK  8 active torsions:
REMARK  status: ('A' for Active; 'I' for Inactive)
REMARK    1  A    between atoms: C_1  and  N_2
REMARK    2  A    between atoms: C_6  and  C_7
REMARK    3  A    between atoms: C_7  and  C_8
REMARK    4  A    between atoms: C_8  and  C_9
REMARK    5  A    between atoms: C_13  and  N_14
REMARK    6  A    between atoms: C_19  and  N_20
REMARK    7  A    between atoms: C_22  and  C_23
REMARK    8  A    between atoms: C_29  and  C_30
REMARK                            x       y       z     vdW  Elec       q    Type
REMARK                         _______ _______ _______ _____ _____    ______ ____
ROOT
ATOM      1  N   UNL     1       1.075   8.590  20.512  0.00  0.00    +0.000 N 
ATOM      2  C   UNL     1       1.242   7.223  20.966  0.00  0.00    +0.000 C 
ATOM      3  C   UNL     1       2.010   6.572  19.883  0.00  0.00    +0.000 A 
ATOM      4  C   UNL     1       2.379   7.510  18.928  0.00  0.00    +0.000 A 
ATOM      5  C   UNL     1       3.171   7.158  17.844  0.00  0.00    +0.000 A 
ATOM      6  C   UNL     1       3.602   5.815  17.739  0.00  0.00    +0.000 A 
ATOM      7  C   UNL     1       3.144   4.872  18.692  0.00  0.00    +0.000 A 
ATOM      8  C   UNL     1       2.354   5.231  19.784  0.00  0.00    +0.000 A 
ATOM      9  C   UNL     1       1.760   8.812  19.310  0.00  0.00    +0.000 C 
ATOM     10  O   UNL     1       1.864   9.824  18.635  0.00  0.00    +0.000 OA
ENDROOT
BRANCH   1  15
ATOM     11  C   UNL     1      -1.144  11.548  21.204  0.00  0.00    +0.000 A 
ATOM     12  C   UNL     1      -1.356  11.371  22.577  0.00  0.00    +0.000 A 
ATOM     13  C   UNL     1      -0.816  10.275  23.268  0.00  0.00    +0.000 A 
ATOM     14  C   UNL     1      -0.021   9.323  22.611  0.00  0.00    +0.000 A 
ATOM     15  C   UNL     1       0.233   9.457  21.254  0.00  0.00    +0.000 A 
ATOM     16  C   UNL     1      -0.360  10.554  20.589  0.00  0.00    +0.000 A 
BRANCH  11  17
ATOM     17  C   UNL     1      -1.732  12.781  20.332  0.00  0.00    +0.000 C 
ATOM     18  C   UNL     1      -1.981  14.097  21.116  0.00  0.00    +0.000 C 
ATOM     19  O   UNL     1      -3.389  14.095  20.813  0.00  0.00    +0.000 OA
ATOM     20  C   UNL     1      -3.275  12.840  20.109  0.00  0.00    +0.000 C 
BRANCH  17  21
ATOM     21  C   UNL     1      -0.915  13.004  19.033  0.00  0.00    +0.000 C 
BRANCH  21  27
ATOM     22  C   UNL     1       2.032  13.163  20.184  0.00  0.00    +0.000 C 
ATOM     23  N   UNL     1       1.280  14.221  19.563  0.00  0.00    +0.000 N 
ATOM     24  C   UNL     1       1.730  15.497  19.392  0.00  0.00    +0.000 A 
ATOM     25  N   UNL     1       0.790  16.219  18.833  0.00  0.00    +0.000 NA
ATOM     26  N   UNL     1      -0.299  15.411  18.647  0.00  0.00    +0.000 NA
ATOM     27  C   UNL     1      -0.002  14.193  19.063  0.00  0.00    +0.000 A 
ENDBRANCH  21  27
ENDBRANCH  17  21
ENDBRANCH  11  17
ENDBRANCH   1  15
BRANCH   6  28
ATOM     28  N   UNL     1       4.463   5.362  16.714  0.00  0.00    +0.000 N 
ATOM     29  C   UNL     1       5.125   4.083  16.667  0.00  0.00    +0.000 C 
ATOM     30  C   UNL     1       6.416   4.811  16.293  0.00  0.00    +0.000 C 
ATOM     31  C   UNL     1       5.544   6.051  16.083  0.00  0.00    +0.000 C 
BRANCH  30  32
ATOM     32  C   UNL     1       7.432   4.924  17.397  0.00  0.00    +0.000 C 
ATOM     33  F   UNL     1       7.970   6.162  17.494  0.00  0.00    +0.000 F 
ATOM     34  F   UNL     1       6.844   4.648  18.586  0.00  0.00    +0.000 F 
ATOM     35  F   UNL     1       8.445   4.042  17.237  0.00  0.00    +0.000 F 
ENDBRANCH  30  32
ENDBRANCH   6  28
BRANCH   8  36
ATOM     36  C   UNL     1       1.898   4.190  20.770  0.00  0.00    +0.000 C 
ATOM     37  F   UNL     1       0.549   4.101  20.899  0.00  0.00    +0.000 F 
ATOM     38  F   UNL     1       2.330   2.943  20.436  0.00  0.00    +0.000 F 
ATOM     39  F   UNL     1       2.371   4.429  22.023  0.00  0.00    +0.000 F 
ENDBRANCH   8  36
TORSDOF 7
ENDMDL
MODEL 4
REMARK VINA RESULT:      -9.6      1.956      2.957
REMARK  Name = 
REMARK  8 active torsions:
REMARK  status: ('A' for Active; 'I' for Inactive)
REMARK    1  A    between atoms: C_1  and  N_2
REMARK    2  A    between atoms: C_6  and  C_7
REMARK    3  A    between atoms: C_7  and  C_8
REMARK    4  A    between atoms: C_8  and  C_9
REMARK    5  A    between atoms: C_13  and  N_14
REMARK    6  A    between atoms: C_19  and  N_20
REMARK    7  A    between atoms: C_22  and  C_23
REMARK    8  A    between atoms: C_29  and  C_30
REMARK                            x       y       z     vdW  Elec       q    Type
REMARK                         _______ _______ _______ _____ _____    ______ ____
ROOT
ATOM      1  N   UNL     1       1.019   8.667  20.506  0.00  0.00    +0.000 N 
ATOM      2  C   UNL     1       1.211   7.302  20.955  0.00  0.00    +0.000 C 
ATOM      3  C   UNL     1       1.995   6.670  19.870  0.00  0.00    +0.000 A 
ATOM      4  C   UNL     1       2.349   7.620  18.921  0.00  0.00    +0.000 A 
ATOM      5  C   UNL     1       3.151   7.289  17.839  0.00  0.00    +0.000 A 
ATOM      6  C   UNL     1       3.609   5.955  17.729  0.00  0.00    +0.000 A 
ATOM      7  C   UNL     1       3.166   4.999  18.676  0.00  0.00    +0.000 A 
ATOM      8  C   UNL     1       2.366   5.338  19.767  0.00  0.00    +0.000 A 
ATOM      9  C   UNL     1       1.703   8.908  19.307  0.00  0.00    +0.000 C 
ATOM     10  O   UNL     1       1.789   9.925  18.637  0.00  0.00    +0.000 OA
ENDROOT
BRANCH   1  15
ATOM     11  C   UNL     1      -1.285  11.561  21.195  0.00  0.00    +0.000 A 
ATOM     12  C   UNL     1      -1.477  11.389  22.572  0.00  0.00    +0.000 A 
ATOM     13  C   UNL     1      -0.897  10.316  23.267  0.00  0.00    +0.000 A 
ATOM     14  C   UNL     1      -0.079   9.384  22.610  0.00  0.00    +0.000 A 
ATOM     15  C   UNL     1       0.157   9.514  21.249  0.00  0.00    +0.000 A 
ATOM     16  C   UNL     1      -0.476  10.587  20.581  0.00  0.00    +0.000 A 
BRANCH  11  17
ATOM     17  C   UNL     1      -1.918  12.767  20.319  0.00  0.00    +0.000 C 
ATOM     18  C   UNL     1      -1.147  13.130  19.021  0.00  0.00    +0.000 C 
ATOM     19  O   UNL     1      -0.901  14.479  19.459  0.00  0.00    +0.000 OA
ATOM     20  C   UNL     1      -1.549  14.229  20.724  0.00  0.00    +0.000 C 
BRANCH  17  21
ATOM     21  C   UNL     1      -3.436  12.562  20.075  0.00  0.00    +0.000 C 
BRANCH  21  27
ATOM     22  C   UNL     1      -6.022  12.966  18.292  0.00  0.00    +0.000 C 
ATOM     23  N   UNL     1      -4.909  12.093  18.029  0.00  0.00    +0.000 N 
ATOM     24  C   UNL     1      -4.808  11.265  16.950  0.00  0.00    +0.000 A 
ATOM     25  N   UNL     1      -3.696  10.578  17.030  0.00  0.00    +0.000 NA
ATOM     26  N   UNL     1      -3.062  10.948  18.185  0.00  0.00    +0.000 NA
ATOM     27  C   UNL     1      -3.777  11.883  18.784  0.00  0.00    +0.000 A 
ENDBRANCH  21  27
ENDBRANCH  17  21
ENDBRANCH  11  17
ENDBRANCH   1  15
BRANCH   6  28
ATOM     28  N   UNL     1       4.482   5.524  16.705  0.00  0.00    +0.000 N 
ATOM     29  C   UNL     1       5.094   4.223  16.604  0.00  0.00    +0.000 C 
ATOM     30  C   UNL     1       6.423   4.916  16.309  0.00  0.00    +0.000 C 
ATOM     31  C   UNL     1       5.609   6.202  16.145  0.00  0.00    +0.000 C 
BRANCH  30  32
ATOM     32  C   UNL     1       7.409   4.926  17.445  0.00  0.00    +0.000 C 
ATOM     33  F   UNL     1       7.979   6.138  17.639  0.00  0.00    +0.000 F 
ATOM     34  F   UNL     1       6.778   4.591  18.597  0.00  0.00    +0.000 F 
ATOM     35  F   UNL     1       8.401   4.026  17.256  0.00  0.00    +0.000 F 
ENDBRANCH  30  32
ENDBRANCH   6  28
BRANCH   8  36
ATOM     36  C   UNL     1       1.928   4.283  20.747  0.00  0.00    +0.000 C 
ATOM     37  F   UNL     1       0.579   4.160  20.864  0.00  0.00    +0.000 F 
ATOM     38  F   UNL     1       2.393   3.048  20.413  0.00  0.00    +0.000 F 
ATOM     39  F   UNL     1       2.383   4.530  22.004  0.00  0.00    +0.000 F 
ENDBRANCH   8  36
TORSDOF 7
ENDMDL
MODEL 5
REMARK VINA RESULT:      -9.5      1.837      2.840
REMARK  Name = 
REMARK  8 active torsions:
REMARK  status: ('A' for Active; 'I' for Inactive)
REMARK    1  A    between atoms: C_1  and  N_2
REMARK    2  A    between atoms: C_6  and  C_7
REMARK    3  A    between atoms: C_7  and  C_8
REMARK    4  A    between atoms: C_8  and  C_9
REMARK    5  A    between atoms: C_13  and  N_14
REMARK    6  A    between atoms: C_19  and  N_20
REMARK    7  A    between atoms: C_22  and  C_23
REMARK    8  A    between atoms: C_29  and  C_30
REMARK                            x       y       z     vdW  Elec       q    Type
REMARK                         _______ _______ _______ _____ _____    ______ ____
ROOT
ATOM      1  N   UNL     1       1.018   8.651  20.506  0.00  0.00    +0.000 N 
ATOM      2  C   UNL     1       1.190   7.282  20.952  0.00  0.00    +0.000 C 
ATOM      3  C   UNL     1       1.977   6.645  19.873  0.00  0.00    +0.000 A 
ATOM      4  C   UNL     1       2.350   7.594  18.930  0.00  0.00    +0.000 A 
ATOM      5  C   UNL     1       3.158   7.258  17.854  0.00  0.00    +0.000 A 
ATOM      6  C   UNL     1       3.601   5.919  17.744  0.00  0.00    +0.000 A 
ATOM      7  C   UNL     1       3.139   4.964  18.684  0.00  0.00    +0.000 A 
ATOM      8  C   UNL     1       2.332   5.309  19.768  0.00  0.00    +0.000 A 
ATOM      9  C   UNL     1       1.716   8.888  19.315  0.00  0.00    +0.000 C 
ATOM     10  O   UNL     1       1.820   9.906  18.649  0.00  0.00    +0.000 OA
ENDROOT
BRANCH   1  15
ATOM     11  C   UNL     1      -1.246  11.578  21.188  0.00  0.00    +0.000 A 
ATOM     12  C   UNL     1      -1.464  11.396  22.560  0.00  0.00    +0.000 A 
ATOM     13  C   UNL     1      -0.913  10.306  23.253  0.00  0.00    +0.000 A 
ATOM     14  C   UNL     1      -0.102   9.367  22.600  0.00  0.00    +0.000 A 
ATOM     15  C   UNL     1       0.159   9.506  21.244  0.00  0.00    +0.000 A 
ATOM     16  C   UNL     1      -0.445  10.596  20.577  0.00  0.00    +0.000 A 
BRANCH  11  17
ATOM     17  C   UNL     1      -1.844  12.804  20.315  0.00  0.00    +0.000 C 
ATOM     18  C   UNL     1      -0.875  13.418  19.269  0.00  0.00    +0.000 C 
ATOM     19  O   UNL     1      -0.923  14.720  19.883  0.00  0.00    +0.000 OA
ATOM     20  C   UNL     1      -1.783  14.235  20.936  0.00  0.00    +0.000 C 
BRANCH  17  21
ATOM     21  C   UNL     1      -3.230  12.456  19.712  0.00  0.00    +0.000 C 
BRANCH  21  27
ATOM     22  C   UNL     1      -5.585  10.977  18.195  0.00  0.00    +0.000 C 
ATOM     23  N   UNL     1      -4.230  11.153  17.742  0.00  0.00    +0.000 N 
ATOM     24  C   UNL     1      -3.736  10.674  16.565  0.00  0.00    +0.000 A 
ATOM     25  N   UNL     1      -2.463  10.970  16.474  0.00  0.00    +0.000 NA
ATOM     26  N   UNL     1      -2.110  11.640  17.614  0.00  0.00    +0.000 NA
ATOM     27  C   UNL     1      -3.180  11.777  18.376  0.00  0.00    +0.000 A 
ENDBRANCH  21  27
ENDBRANCH  17  21
ENDBRANCH  11  17
ENDBRANCH   1  15
BRANCH   6  28
ATOM     28  N   UNL     1       4.479   5.480  16.726  0.00  0.00    +0.000 N 
ATOM     29  C   UNL     1       5.124   4.194  16.660  0.00  0.00    +0.000 C 
ATOM     30  C   UNL     1       6.433   4.913  16.334  0.00  0.00    +0.000 C 
ATOM     31  C   UNL     1       5.583   6.171  16.138  0.00  0.00    +0.000 C 
BRANCH  30  32
ATOM     32  C   UNL     1       7.426   4.982  17.462  0.00  0.00    +0.000 C 
ATOM     33  F   UNL     1       6.869   4.741  18.671  0.00  0.00    +0.000 F 
ATOM     34  F   UNL     1       8.394   4.053  17.274  0.00  0.00    +0.000 F 
ATOM     35  F   UNL     1       8.035   6.189  17.519  0.00  0.00    +0.000 F 
ENDBRANCH  30  32
ENDBRANCH   6  28
BRANCH   8  36
ATOM     36  C   UNL     1       1.873   4.256  20.741  0.00  0.00    +0.000 C 
ATOM     37  F   UNL     1       2.277   2.997  20.426  0.00  0.00    +0.000 F 
ATOM     38  F   UNL     1       2.322   4.493  22.003  0.00  0.00    +0.000 F 
ATOM     39  F   UNL     1       0.517   4.195  20.828  0.00  0.00    +0.000 F 
ENDBRANCH   8  36
TORSDOF 7
ENDMDL
MODEL 6
REMARK VINA RESULT:      -9.5      1.902      2.749
REMARK  Name = 
REMARK  8 active torsions:
REMARK  status: ('A' for Active; 'I' for Inactive)
REMARK    1  A    between atoms: C_1  and  N_2
REMARK    2  A    between atoms: C_6  and  C_7
REMARK    3  A    between atoms: C_7  and  C_8
REMARK    4  A    between atoms: C_8  and  C_9
REMARK    5  A    between atoms: C_13  and  N_14
REMARK    6  A    between atoms: C_19  and  N_20
REMARK    7  A    between atoms: C_22  and  C_23
REMARK    8  A    between atoms: C_29  and  C_30
REMARK                            x       y       z     vdW  Elec       q    Type
REMARK                         _______ _______ _______ _____ _____    ______ ____
ROOT
ATOM      1  N   UNL     1       0.973   8.627  20.520  0.00  0.00    +0.000 N 
ATOM      2  C   UNL     1       1.139   7.255  20.956  0.00  0.00    +0.000 C 
ATOM      3  C   UNL     1       1.932   6.625  19.877  0.00  0.00    +0.000 A 
ATOM      4  C   UNL     1       2.312   7.580  18.944  0.00  0.00    +0.000 A 
ATOM      5  C   UNL     1       3.127   7.250  17.871  0.00  0.00    +0.000 A 
ATOM      6  C   UNL     1       3.568   5.911  17.753  0.00  0.00    +0.000 A 
ATOM      7  C   UNL     1       3.099   4.951  18.683  0.00  0.00    +0.000 A 
ATOM      8  C   UNL     1       2.286   5.288  19.764  0.00  0.00    +0.000 A 
ATOM      9  C   UNL     1       1.679   8.872  19.335  0.00  0.00    +0.000 C 
ATOM     10  O   UNL     1       1.789   9.895  18.677  0.00  0.00    +0.000 OA
ENDROOT
BRANCH   1  15
ATOM     11  C   UNL     1      -1.296  11.549  21.208  0.00  0.00    +0.000 A 
ATOM     12  C   UNL     1      -1.518  11.360  22.578  0.00  0.00    +0.000 A 
ATOM     13  C   UNL     1      -0.968  10.268  23.268  0.00  0.00    +0.000 A 
ATOM     14  C   UNL     1      -0.154   9.332  22.613  0.00  0.00    +0.000 A 
ATOM     15  C   UNL     1       0.111   9.478  21.259  0.00  0.00    +0.000 A 
ATOM     16  C   UNL     1      -0.492  10.570  20.595  0.00  0.00    +0.000 A 
BRANCH  11  17
ATOM     17  C   UNL     1      -1.892  12.778  20.338  0.00  0.00    +0.000 C 
ATOM     18  C   UNL     1      -1.367  14.188  20.722  0.00  0.00    +0.000 C 
ATOM     19  O   UNL     1      -2.683  14.668  21.052  0.00  0.00    +0.000 OA
ATOM     20  C   UNL     1      -3.266  13.377  20.776  0.00  0.00    +0.000 C 
BRANCH  17  21
ATOM     21  C   UNL     1      -1.801  12.500  18.816  0.00  0.00    +0.000 C 
BRANCH  21  27
ATOM     22  C   UNL     1      -1.508   9.765  17.246  0.00  0.00    +0.000 C 
ATOM     23  N   UNL     1      -2.728  10.440  17.601  0.00  0.00    +0.000 N 
ATOM     24  C   UNL     1      -3.979  10.000  17.286  0.00  0.00    +0.000 A 
ATOM     25  N   UNL     1      -4.866  10.862  17.719  0.00  0.00    +0.000 NA
ATOM     26  N   UNL     1      -4.188  11.891  18.315  0.00  0.00    +0.000 NA
ATOM     27  C   UNL     1      -2.894  11.631  18.271  0.00  0.00    +0.000 A 
ENDBRANCH  21  27
ENDBRANCH  17  21
ENDBRANCH  11  17
ENDBRANCH   1  15
BRANCH   6  28
ATOM     28  N   UNL     1       4.452   5.479  16.738  0.00  0.00    +0.000 N 
ATOM     29  C   UNL     1       5.093   4.191  16.663  0.00  0.00    +0.000 C 
ATOM     30  C   UNL     1       6.407   4.908  16.354  0.00  0.00    +0.000 C 
ATOM     31  C   UNL     1       5.563   6.171  16.164  0.00  0.00    +0.000 C 
BRANCH  30  32
ATOM     32  C   UNL     1       7.391   4.963  17.490  0.00  0.00    +0.000 C 
ATOM     33  F   UNL     1       8.371   4.037  17.384  0.00  0.00    +0.000 F 
ATOM     34  F   UNL     1       7.989   6.178  17.514  0.00  0.00    +0.000 F 
ATOM     35  F   UNL     1       6.785   4.792  18.687  0.00  0.00    +0.000 F 
ENDBRANCH  30  32
ENDBRANCH   6  28
BRANCH   8  36
ATOM     36  C   UNL     1       1.818   4.229  20.726  0.00  0.00    +0.000 C 
ATOM     37  F   UNL     1       2.247   2.976  20.421  0.00  0.00    +0.000 F 
ATOM     38  F   UNL     1       2.234   4.472  21.998  0.00  0.00    +0.000 F 
ATOM     39  F   UNL     1       0.462   4.149  20.781  0.00  0.00    +0.000 F 
ENDBRANCH   8  36
TORSDOF 7
ENDMDL
MODEL 7
REMARK VINA RESULT:      -9.5      1.707      2.112
REMARK  Name = 
REMARK  8 active torsions:
REMARK  status: ('A' for Active; 'I' for Inactive)
REMARK    1  A    between atoms: C_1  and  N_2
REMARK    2  A    between atoms: C_6  and  C_7
REMARK    3  A    between atoms: C_7  and  C_8
REMARK    4  A    between atoms: C_8  and  C_9
REMARK    5  A    between atoms: C_13  and  N_14
REMARK    6  A    between atoms: C_19  and  N_20
REMARK    7  A    between atoms: C_22  and  C_23
REMARK    8  A    between atoms: C_29  and  C_30
REMARK                            x       y       z     vdW  Elec       q    Type
REMARK                         _______ _______ _______ _____ _____    ______ ____
ROOT
ATOM      1  N   UNL     1       1.680   7.949  19.981  0.00  0.00    +0.000 N 
ATOM      2  C   UNL     1       1.646   6.664  20.651  0.00  0.00    +0.000 C 
ATOM      3  C   UNL     1       2.526   5.804  19.830  0.00  0.00    +0.000 A 
ATOM      4  C   UNL     1       3.133   6.555  18.832  0.00  0.00    +0.000 A 
ATOM      5  C   UNL     1       4.063   5.989  17.972  0.00  0.00    +0.000 A 
ATOM      6  C   UNL     1       4.386   4.622  18.142  0.00  0.00    +0.000 A 
ATOM      7  C   UNL     1       3.691   3.871  19.124  0.00  0.00    +0.000 A 
ATOM      8  C   UNL     1       2.762   4.446  19.990  0.00  0.00    +0.000 A 
ATOM      9  C   UNL     1       2.576   7.936  18.904  0.00  0.00    +0.000 C 
ATOM     10  O   UNL     1       2.881   8.821  18.119  0.00  0.00    +0.000 OA
ENDROOT
BRANCH   1  15
ATOM     11  C   UNL     1      -0.860  10.714  19.739  0.00  0.00    +0.000 A 
ATOM     12  C   UNL     1      -0.897  11.122  21.079  0.00  0.00    +0.000 A 
ATOM     13  C   UNL     1      -0.132  10.476  22.064  0.00  0.00    +0.000 A 
ATOM     14  C   UNL     1       0.718   9.409  21.739  0.00  0.00    +0.000 A 
ATOM     15  C   UNL     1       0.804   8.973  20.425  0.00  0.00    +0.000 A 
ATOM     16  C   UNL     1      -0.010   9.626  19.471  0.00  0.00    +0.000 A 
BRANCH  11  17
ATOM     17  C   UNL     1      -1.710  11.401  18.543  0.00  0.00    +0.000 C 
ATOM     18  C   UNL     1      -3.118  11.924  18.936  0.00  0.00    +0.000 C 
ATOM     19  O   UNL     1      -3.781  11.056  17.998  0.00  0.00    +0.000 OA
ATOM     20  C   UNL     1      -2.526  10.462  17.602  0.00  0.00    +0.000 C 
BRANCH  17  21
ATOM     21  C   UNL     1      -0.872  12.459  17.779  0.00  0.00    +0.000 C 
BRANCH  21  27
ATOM     22  C   UNL     1       2.242  12.450  18.363  0.00  0.00    +0.000 C 
ATOM     23  N   UNL     1       1.261  13.369  18.876  0.00  0.00    +0.000 N 
ATOM     24  C   UNL     1       1.530  14.392  19.736  0.00  0.00    +0.000 A 
ATOM     25  N   UNL     1       0.416  15.011  20.039  0.00  0.00    +0.000 NA
ATOM     26  N   UNL     1      -0.604  14.377  19.381  0.00  0.00    +0.000 NA
ATOM     27  C   UNL     1      -0.097  13.397  18.655  0.00  0.00    +0.000 A 
ENDBRANCH  21  27
ENDBRANCH  17  21
ENDBRANCH  11  17
ENDBRANCH   1  15
BRANCH   6  28
ATOM     28  N   UNL     1       5.365   3.961  17.367  0.00  0.00    +0.000 N 
ATOM     29  C   UNL     1       6.592   4.537  16.881  0.00  0.00    +0.000 C 
ATOM     30  C   UNL     1       6.288   3.929  15.512  0.00  0.00    +0.000 C 
ATOM     31  C   UNL     1       5.187   3.132  16.216  0.00  0.00    +0.000 C 
BRANCH  30  32
ATOM     32  C   UNL     1       5.806   4.900  14.470  0.00  0.00    +0.000 C 
ATOM     33  F   UNL     1       5.231   6.003  15.002  0.00  0.00    +0.000 F 
ATOM     34  F   UNL     1       6.853   5.317  13.718  0.00  0.00    +0.000 F 
ATOM     35  F   UNL     1       4.912   4.331  13.629  0.00  0.00    +0.000 F 
ENDBRANCH  30  32
ENDBRANCH   6  28
BRANCH   8  36
ATOM     36  C   UNL     1       2.057   3.603  21.018  0.00  0.00    +0.000 C 
ATOM     37  F   UNL     1       2.362   2.281  20.955  0.00  0.00    +0.000 F 
ATOM     38  F   UNL     1       2.343   3.998  22.289  0.00  0.00    +0.000 F 
ATOM     39  F   UNL     1       0.704   3.674  20.898  0.00  0.00    +0.000 F 
ENDBRANCH   8  36
TORSDOF 7
ENDMDL
MODEL 8
REMARK VINA RESULT:      -9.4      1.895      2.778
REMARK  Name = 
REMARK  8 active torsions:
REMARK  status: ('A' for Active; 'I' for Inactive)
REMARK    1  A    between atoms: C_1  and  N_2
REMARK    2  A    between atoms: C_6  and  C_7
REMARK    3  A    between atoms: C_7  and  C_8
REMARK    4  A    between atoms: C_8  and  C_9
REMARK    5  A    between atoms: C_13  and  N_14
REMARK    6  A    between atoms: C_19  and  N_20
REMARK    7  A    between atoms: C_22  and  C_23
REMARK    8  A    between atoms: C_29  and  C_30
REMARK                            x       y       z     vdW  Elec       q    Type
REMARK                         _______ _______ _______ _____ _____    ______ ____
ROOT
ATOM      1  N   UNL     1       1.123   8.436  20.581  0.00  0.00    +0.000 N 
ATOM      2  C   UNL     1       1.265   7.057  21.006  0.00  0.00    +0.000 C 
ATOM      3  C   UNL     1       2.003   6.410  19.899  0.00  0.00    +0.000 A 
ATOM      4  C   UNL     1       2.379   7.359  18.957  0.00  0.00    +0.000 A 
ATOM      5  C   UNL     1       3.147   7.011  17.856  0.00  0.00    +0.000 A 
ATOM      6  C   UNL     1       3.547   5.660  17.718  0.00  0.00    +0.000 A 
ATOM      7  C   UNL     1       3.081   4.709  18.660  0.00  0.00    +0.000 A 
ATOM      8  C   UNL     1       2.315   5.065  19.770  0.00  0.00    +0.000 A 
ATOM      9  C   UNL     1       1.796   8.666  19.374  0.00  0.00    +0.000 C 
ATOM     10  O   UNL     1       1.912   9.688  18.717  0.00  0.00    +0.000 OA
ENDROOT
BRANCH   1  15
ATOM     11  C   UNL     1      -1.190  11.311  21.314  0.00  0.00    +0.000 A 
ATOM     12  C   UNL     1      -1.246  11.221  22.711  0.00  0.00    +0.000 A 
ATOM     13  C   UNL     1      -0.570  10.208  23.410  0.00  0.00    +0.000 A 
ATOM     14  C   UNL     1       0.208   9.257  22.734  0.00  0.00    +0.000 A 
ATOM     15  C   UNL     1       0.311   9.307  21.351  0.00  0.00    +0.000 A 
ATOM     16  C   UNL     1      -0.415  10.320  20.685  0.00  0.00    +0.000 A 
BRANCH  11  17
ATOM     17  C   UNL     1      -1.940  12.445  20.433  0.00  0.00    +0.000 C 
ATOM     18  C   UNL     1      -2.885  11.913  19.322  0.00  0.00    +0.000 C 
ATOM     19  O   UNL     1      -2.134  12.557  18.275  0.00  0.00    +0.000 OA
ATOM     20  C   UNL     1      -1.164  13.053  19.223  0.00  0.00    +0.000 C 
BRANCH  17  21
ATOM     21  C   UNL     1      -2.614  13.515  21.330  0.00  0.00    +0.000 C 
BRANCH  21  27
ATOM     22  C   UNL     1      -5.263  14.740  20.100  0.00  0.00    +0.000 C 
ATOM     23  N   UNL     1      -5.161  13.757  21.145  0.00  0.00    +0.000 N 
ATOM     24  C   UNL     1      -6.222  13.204  21.798  0.00  0.00    +0.000 A 
ATOM     25  N   UNL     1      -5.786  12.377  22.717  0.00  0.00    +0.000 NA
ATOM     26  N   UNL     1      -4.418  12.397  22.677  0.00  0.00    +0.000 NA
ATOM     27  C   UNL     1      -4.032  13.211  21.711  0.00  0.00    +0.000 A 
ENDBRANCH  21  27
ENDBRANCH  17  21
ENDBRANCH  11  17
ENDBRANCH   1  15
BRANCH   6  28
ATOM     28  N   UNL     1       4.383   5.208  16.673  0.00  0.00    +0.000 N 
ATOM     29  C   UNL     1       5.087   3.952  16.633  0.00  0.00    +0.000 C 
ATOM     30  C   UNL     1       6.336   4.712  16.190  0.00  0.00    +0.000 C 
ATOM     31  C   UNL     1       5.414   5.916  15.982  0.00  0.00    +0.000 C 
BRANCH  30  32
ATOM     32  C   UNL     1       7.390   4.890  17.249  0.00  0.00    +0.000 C 
ATOM     33  F   UNL     1       7.849   6.160  17.328  0.00  0.00    +0.000 F 
ATOM     34  F   UNL     1       6.873   4.574  18.461  0.00  0.00    +0.000 F 
ATOM     35  F   UNL     1       8.450   4.076  17.042  0.00  0.00    +0.000 F 
ENDBRANCH  30  32
ENDBRANCH   6  28
BRANCH   8  36
ATOM     36  C   UNL     1       1.850   4.014  20.742  0.00  0.00    +0.000 C 
ATOM     37  F   UNL     1       2.300   4.196  22.012  0.00  0.00    +0.000 F 
ATOM     38  F   UNL     1       0.493   3.958  20.826  0.00  0.00    +0.000 F 
ATOM     39  F   UNL     1       2.258   2.767  20.384  0.00  0.00    +0.000 F 
ENDBRANCH   8  36
TORSDOF 7
ENDMDL
MODEL 9
REMARK VINA RESULT:      -9.4      0.700      1.271
REMARK  Name = 
REMARK  8 active torsions:
REMARK  status: ('A' for Active; 'I' for Inactive)
REMARK    1  A    between atoms: C_1  and  N_2
REMARK    2  A    between atoms: C_6  and  C_7
REMARK    3  A    between atoms: C_7  and  C_8
REMARK    4  A    between atoms: C_8  and  C_9
REMARK    5  A    between atoms: C_13  and  N_14
REMARK    6  A    between atoms: C_19  and  N_20
REMARK    7  A    between atoms: C_22  and  C_23
REMARK    8  A    between atoms: C_29  and  C_30
REMARK                            x       y       z     vdW  Elec       q    Type
REMARK                         _______ _______ _______ _____ _____    ______ ____
ROOT
ATOM      1  N   UNL     1       1.060   8.584  20.536  0.00  0.00    +0.000 N 
ATOM      2  C   UNL     1       1.218   7.213  20.979  0.00  0.00    +0.000 C 
ATOM      3  C   UNL     1       1.995   6.569  19.897  0.00  0.00    +0.000 A 
ATOM      4  C   UNL     1       2.376   7.515  18.955  0.00  0.00    +0.000 A 
ATOM      5  C   UNL     1       3.179   7.172  17.877  0.00  0.00    +0.000 A 
ATOM      6  C   UNL     1       3.607   5.828  17.763  0.00  0.00    +0.000 A 
ATOM      7  C   UNL     1       3.137   4.878  18.703  0.00  0.00    +0.000 A 
ATOM      8  C   UNL     1       2.336   5.229  19.790  0.00  0.00    +0.000 A 
ATOM      9  C   UNL     1       1.758   8.815  19.343  0.00  0.00    +0.000 C 
ATOM     10  O   UNL     1       1.871   9.833  18.678  0.00  0.00    +0.000 OA
ENDROOT
BRANCH   1  15
ATOM     11  C   UNL     1      -1.324  11.422  21.182  0.00  0.00    +0.000 A 
ATOM     12  C   UNL     1      -1.414  11.344  22.578  0.00  0.00    +0.000 A 
ATOM     13  C   UNL     1      -0.738  10.350  23.303  0.00  0.00    +0.000 A 
ATOM     14  C   UNL     1       0.075   9.408  22.657  0.00  0.00    +0.000 A 
ATOM     15  C   UNL     1       0.212   9.447  21.277  0.00  0.00    +0.000 A 
ATOM     16  C   UNL     1      -0.515  10.440  20.582  0.00  0.00    +0.000 A 
BRANCH  11  17
ATOM     17  C   UNL     1      -2.072  12.533  20.271  0.00  0.00    +0.000 C 
ATOM     18  C   UNL     1      -3.369  13.134  20.877  0.00  0.00    +0.000 C 
ATOM     19  O   UNL     1      -4.182  12.670  19.782  0.00  0.00    +0.000 OA
ATOM     20  C   UNL     1      -3.048  12.025  19.164  0.00  0.00    +0.000 C 
BRANCH  17  21
ATOM     21  C   UNL     1      -1.087  13.620  19.769  0.00  0.00    +0.000 C 
BRANCH  21  27
ATOM     22  C   UNL     1      -1.643  16.126  21.624  0.00  0.00    +0.000 C 
ATOM     23  N   UNL     1      -0.477  15.283  21.624  0.00  0.00    +0.000 N 
ATOM     24  C   UNL     1       0.607  15.455  22.433  0.00  0.00    +0.000 A 
ATOM     25  N   UNL     1       1.508  14.545  22.155  0.00  0.00    +0.000 NA
ATOM     26  N   UNL     1       1.016  13.771  21.138  0.00  0.00    +0.000 NA
ATOM     27  C   UNL     1      -0.196  14.196  20.828  0.00  0.00    +0.000 A 
ENDBRANCH  21  27
ENDBRANCH  17  21
ENDBRANCH  11  17
ENDBRANCH   1  15
BRANCH   6  28
ATOM     28  N   UNL     1       4.478   5.382  16.743  0.00  0.00    +0.000 N 
ATOM     29  C   UNL     1       5.146   4.107  16.697  0.00  0.00    +0.000 C 
ATOM     30  C   UNL     1       6.436   4.842  16.335  0.00  0.00    +0.000 C 
ATOM     31  C   UNL     1       5.560   6.078  16.122  0.00  0.00    +0.000 C 
BRANCH  30  32
ATOM     32  C   UNL     1       7.444   4.957  17.445  0.00  0.00    +0.000 C 
ATOM     33  F   UNL     1       8.434   4.039  17.357  0.00  0.00    +0.000 F 
ATOM     34  F   UNL     1       8.027   6.180  17.405  0.00  0.00    +0.000 F 
ATOM     35  F   UNL     1       6.866   4.830  18.661  0.00  0.00    +0.000 F 
ENDBRANCH  30  32
ENDBRANCH   6  28
BRANCH   8  36
ATOM     36  C   UNL     1       1.868   4.180  20.762  0.00  0.00    +0.000 C 
ATOM     37  F   UNL     1       2.259   2.917  20.445  0.00  0.00    +0.000 F 
ATOM     38  F   UNL     1       2.321   4.411  22.024  0.00  0.00    +0.000 F 
ATOM     39  F   UNL     1       0.512   4.132  20.851  0.00  0.00    +0.000 F 
ENDBRANCH   8  36
TORSDOF 7
ENDMDL
