MODEL 1
REMARK VINA RESULT:      -9.9      0.000      0.000
REMARK  Name = 
REMARK  9 active torsions:
REMARK  status: ('A' for Active; 'I' for Inactive)
REMARK    1  A    between atoms: C_1  and  N_2
REMARK    2  A    between atoms: C_6  and  C_7
REMARK    3  A    between atoms: C_7  and  C_10
REMARK    4  A    between atoms: C_10  and  C_11
REMARK    5  A    between atoms: C_10  and  C_13
REMARK    6  A    between atoms: C_17  and  N_18
REMARK    7  A    between atoms: C_23  and  C_24
REMARK    8  A    between atoms: C_24  and  N_25
REMARK    9  A    between atoms: C_32  and  C_33
REMARK                            x       y       z     vdW  Elec       q    Type
REMARK                         _______ _______ _______ _____ _____    ______ ____
ROOT
ATOM      1  N   UNL     1       2.087   7.896  19.130  0.00  0.00    +0.000 N 
ATOM      2  C   UNL     1       1.492   8.153  20.423  0.00  0.00    +0.000 C 
ATOM      3  C   UNL     1       0.851   9.474  20.272  0.00  0.00    +0.000 A 
ATOM      4  C   UNL     1       1.144  10.035  19.032  0.00  0.00    +0.000 A 
ATOM      5  C   UNL     1       0.761  11.350  18.746  0.00  0.00    +0.000 A 
ATOM      6  C   UNL     1       0.003  12.063  19.714  0.00  0.00    +0.000 A 
ATOM      7  C   UNL     1      -0.375  11.398  20.905  0.00  0.00    +0.000 A 
ATOM      8  C   UNL     1       0.100  10.132  21.235  0.00  0.00    +0.000 A 
ATOM      9  C   UNL     1       1.908   8.991  18.260  0.00  0.00    +0.000 C 
ATOM     10  O   UNL     1       2.283   9.140  17.110  0.00  0.00    +0.000 OA
ENDROOT
BRANCH   1  15
ATOM     11  C   UNL     1       4.390   5.352  17.582  0.00  0.00    +0.000 A 
ATOM     12  C   UNL     1       4.108   4.231  18.366  0.00  0.00    +0.000 A 
ATOM     13  C   UNL     1       3.165   4.312  19.406  0.00  0.00    +0.000 A 
ATOM     14  C   UNL     1       2.454   5.498  19.665  0.00  0.00    +0.000 A 
ATOM     15  C   UNL     1       2.741   6.644  18.934  0.00  0.00    +0.000 A 
ATOM     16  C   UNL     1       3.741   6.550  17.934  0.00  0.00    +0.000 A 
BRANCH  11  17
ATOM     17  C   UNL     1       5.159   5.308  16.241  0.00  0.00    +0.000 C 
ATOM     18  C   UNL     1       4.411   4.283  15.368  0.00  0.00    +0.000 C 
ATOM     19  F   UNL     1       5.025   6.515  15.570  0.00  0.00    +0.000 F 
BRANCH  17  20
ATOM     20  C   UNL     1       6.691   5.030  16.315  0.00  0.00    +0.000 C 
ATOM     21  F   UNL     1       7.338   5.714  15.326  0.00  0.00    +0.000 F 
ATOM     22  F   UNL     1       6.923   3.709  16.043  0.00  0.00    +0.000 F 
BRANCH  20  28
ATOM     23  C   UNL     1       7.442   7.945  17.451  0.00  0.00    +0.000 C 
ATOM     24  N   UNL     1       7.639   6.667  18.082  0.00  0.00    +0.000 N 
ATOM     25  C   UNL     1       8.227   6.499  19.302  0.00  0.00    +0.000 A 
ATOM     26  N   UNL     1       8.209   5.231  19.628  0.00  0.00    +0.000 NA
ATOM     27  N   UNL     1       7.613   4.549  18.600  0.00  0.00    +0.000 NA
ATOM     28  C   UNL     1       7.291   5.410  17.646  0.00  0.00    +0.000 A 
ENDBRANCH  20  28
ENDBRANCH  17  20
ENDBRANCH  11  17
ENDBRANCH   1  15
BRANCH   8  29
ATOM     29  C   UNL     1      -0.183   9.548  22.592  0.00  0.00    +0.000 C 
ATOM     30  F   UNL     1      -0.866   8.370  22.549  0.00  0.00    +0.000 F 
ATOM     31  F   UNL     1       0.957   9.277  23.284  0.00  0.00    +0.000 F 
ATOM     32  F   UNL     1      -0.920  10.376  23.376  0.00  0.00    +0.000 F 
ENDBRANCH   8  29
BRANCH   6  33
ATOM     33  C   UNL     1      -0.451  13.521  19.524  0.00  0.00    +0.000 C 
BRANCH  33  34
ATOM     34  N   UNL     1       0.550  14.505  20.004  0.00  0.00    +0.000 NA
ATOM     35  C   UNL     1       1.657  13.905  20.766  0.00  0.00    +0.000 C 
ATOM     36  C   UNL     1       2.951  14.099  19.989  0.00  0.00    +0.000 C 
ATOM     37  C   UNL     1       2.544  14.751  18.689  0.00  0.00    +0.000 C 
ATOM     38  F   UNL     1       2.460  13.796  17.723  0.00  0.00    +0.000 F 
ATOM     39  C   UNL     1       1.161  15.321  18.947  0.00  0.00    +0.000 C 
ENDBRANCH  33  34
ENDBRANCH   6  33
TORSDOF 7
ENDMDL
MODEL 2
REMARK VINA RESULT:      -9.8      0.859      1.247
REMARK  Name = 
REMARK  9 active torsions:
REMARK  status: ('A' for Active; 'I' for Inactive)
REMARK    1  A    between atoms: C_1  and  N_2
REMARK    2  A    between atoms: C_6  and  C_7
REMARK    3  A    between atoms: C_7  and  C_10
REMARK    4  A    between atoms: C_10  and  C_11
REMARK    5  A    between atoms: C_10  and  C_13
REMARK    6  A    between atoms: C_17  and  N_18
REMARK    7  A    between atoms: C_23  and  C_24
REMARK    8  A    between atoms: C_24  and  N_25
REMARK    9  A    between atoms: C_32  and  C_33
REMARK                            x       y       z     vdW  Elec       q    Type
REMARK                         _______ _______ _______ _____ _____    ______ ____
ROOT
ATOM      1  N   UNL     1       2.128   7.789  19.132  0.00  0.00    +0.000 N 
ATOM      2  C   UNL     1       1.537   8.064  20.422  0.00  0.00    +0.000 C 
ATOM      3  C   UNL     1       0.879   9.374  20.250  0.00  0.00    +0.000 A 
ATOM      4  C   UNL     1       1.158   9.915  18.998  0.00  0.00    +0.000 A 
ATOM      5  C   UNL     1       0.758  11.219  18.689  0.00  0.00    +0.000 A 
ATOM      6  C   UNL     1      -0.004  11.941  19.648  0.00  0.00    +0.000 A 
ATOM      7  C   UNL     1      -0.368  11.294  20.853  0.00  0.00    +0.000 A 
ATOM      8  C   UNL     1       0.125  10.041  21.205  0.00  0.00    +0.000 A 
ATOM      9  C   UNL     1       1.931   8.866  18.242  0.00  0.00    +0.000 C 
ATOM     10  O   UNL     1       2.298   8.998  17.087  0.00  0.00    +0.000 OA
ENDROOT
BRANCH   1  15
ATOM     11  C   UNL     1       4.437   5.238  17.605  0.00  0.00    +0.000 A 
ATOM     12  C   UNL     1       4.188   4.134  18.424  0.00  0.00    +0.000 A 
ATOM     13  C   UNL     1       3.265   4.230  19.482  0.00  0.00    +0.000 A 
ATOM     14  C   UNL     1       2.542   5.413  19.723  0.00  0.00    +0.000 A 
ATOM     15  C   UNL     1       2.797   6.542  18.956  0.00  0.00    +0.000 A 
ATOM     16  C   UNL     1       3.778   6.436  17.938  0.00  0.00    +0.000 A 
BRANCH  11  17
ATOM     17  C   UNL     1       5.179   5.168  16.249  0.00  0.00    +0.000 C 
ATOM     18  C   UNL     1       4.486   4.046  15.455  0.00  0.00    +0.000 C 
ATOM     19  F   UNL     1       4.947   6.322  15.514  0.00  0.00    +0.000 F 
BRANCH  17  20
ATOM     20  C   UNL     1       6.728   5.001  16.301  0.00  0.00    +0.000 C 
ATOM     21  F   UNL     1       7.311   5.752  15.321  0.00  0.00    +0.000 F 
ATOM     22  F   UNL     1       7.052   3.707  15.997  0.00  0.00    +0.000 F 
BRANCH  20  28
ATOM     23  C   UNL     1       7.390   7.933  17.448  0.00  0.00    +0.000 C 
ATOM     24  N   UNL     1       7.625   6.660  18.074  0.00  0.00    +0.000 N 
ATOM     25  C   UNL     1       8.216   6.505  19.295  0.00  0.00    +0.000 A 
ATOM     26  N   UNL     1       8.236   5.236  19.617  0.00  0.00    +0.000 NA
ATOM     27  N   UNL     1       7.662   4.540  18.586  0.00  0.00    +0.000 NA
ATOM     28  C   UNL     1       7.315   5.394  17.634  0.00  0.00    +0.000 A 
ENDBRANCH  20  28
ENDBRANCH  17  20
ENDBRANCH  11  17
ENDBRANCH   1  15
BRANCH   8  29
ATOM     29  C   UNL     1      -0.143   9.479  22.573  0.00  0.00    +0.000 C 
ATOM     30  F   UNL     1       0.985   9.247  23.301  0.00  0.00    +0.000 F 
ATOM     31  F   UNL     1      -0.897  10.318  23.336  0.00  0.00    +0.000 F 
ATOM     32  F   UNL     1      -0.809   8.296  22.534  0.00  0.00    +0.000 F 
ENDBRANCH   8  29
BRANCH   6  33
ATOM     33  C   UNL     1      -0.477  13.389  19.432  0.00  0.00    +0.000 C 
BRANCH  33  34
ATOM     34  N   UNL     1       0.475  14.394  19.967  0.00  0.00    +0.000 NA
ATOM     35  C   UNL     1       1.555  14.747  19.032  0.00  0.00    +0.000 C 
ATOM     36  C   UNL     1       1.405  16.210  18.636  0.00  0.00    +0.000 C 
ATOM     37  C   UNL     1       0.131  16.675  19.301  0.00  0.00    +0.000 C 
ATOM     38  F   UNL     1      -0.881  16.637  18.392  0.00  0.00    +0.000 F 
ATOM     39  C   UNL     1      -0.143  15.656  20.392  0.00  0.00    +0.000 C 
ENDBRANCH  33  34
ENDBRANCH   6  33
TORSDOF 7
ENDMDL
MODEL 3
REMARK VINA RESULT:      -9.8      1.831      2.685
REMARK  Name = 
REMARK  9 active torsions:
REMARK  status: ('A' for Active; 'I' for Inactive)
REMARK    1  A    between atoms: C_1  and  N_2
REMARK    2  A    between atoms: C_6  and  C_7
REMARK    3  A    between atoms: C_7  and  C_10
REMARK    4  A    between atoms: C_10  and  C_11
REMARK    5  A    between atoms: C_10  and  C_13
REMARK    6  A    between atoms: C_17  and  N_18
REMARK    7  A    between atoms: C_23  and  C_24
REMARK    8  A    between atoms: C_24  and  N_25
REMARK    9  A    between atoms: C_32  and  C_33
REMARK                            x       y       z     vdW  Elec       q    Type
REMARK                         _______ _______ _______ _____ _____    ______ ____
ROOT
ATOM      1  N   UNL     1       2.325   7.470  19.211  0.00  0.00    +0.000 N 
ATOM      2  C   UNL     1       1.652   7.838  20.437  0.00  0.00    +0.000 C 
ATOM      3  C   UNL     1       0.980   9.112  20.114  0.00  0.00    +0.000 A 
ATOM      4  C   UNL     1       1.323   9.552  18.839  0.00  0.00    +0.000 A 
ATOM      5  C   UNL     1       0.916  10.814  18.396  0.00  0.00    +0.000 A 
ATOM      6  C   UNL     1       0.085  11.596  19.243  0.00  0.00    +0.000 A 
ATOM      7  C   UNL     1      -0.338  11.045  20.476  0.00  0.00    +0.000 A 
ATOM      8  C   UNL     1       0.158   9.839  20.963  0.00  0.00    +0.000 A 
ATOM      9  C   UNL     1       2.161   8.462  18.222  0.00  0.00    +0.000 C 
ATOM     10  O   UNL     1       2.593   8.504  17.083  0.00  0.00    +0.000 OA
ENDROOT
BRANCH   1  15
ATOM     11  C   UNL     1       5.004   4.982  18.315  0.00  0.00    +0.000 A 
ATOM     12  C   UNL     1       4.536   3.842  18.973  0.00  0.00    +0.000 A 
ATOM     13  C   UNL     1       3.342   3.893  19.716  0.00  0.00    +0.000 A 
ATOM     14  C   UNL     1       2.569   5.066  19.788  0.00  0.00    +0.000 A 
ATOM     15  C   UNL     1       3.027   6.229  19.182  0.00  0.00    +0.000 A 
ATOM     16  C   UNL     1       4.265   6.166  18.494  0.00  0.00    +0.000 A 
BRANCH  11  17
ATOM     17  C   UNL     1       6.113   4.972  17.236  0.00  0.00    +0.000 C 
ATOM     18  C   UNL     1       6.525   6.443  17.052  0.00  0.00    +0.000 C 
ATOM     19  F   UNL     1       7.249   4.340  17.721  0.00  0.00    +0.000 F 
BRANCH  17  20
ATOM     20  C   UNL     1       5.777   4.267  15.887  0.00  0.00    +0.000 C 
ATOM     21  F   UNL     1       4.476   4.506  15.547  0.00  0.00    +0.000 F 
ATOM     22  F   UNL     1       5.856   2.911  16.055  0.00  0.00    +0.000 F 
BRANCH  20  28
ATOM     23  C   UNL     1       5.660   3.474  12.771  0.00  0.00    +0.000 C 
ATOM     24  N   UNL     1       6.614   4.318  13.438  0.00  0.00    +0.000 N 
ATOM     25  C   UNL     1       7.677   4.912  12.818  0.00  0.00    +0.000 A 
ATOM     26  N   UNL     1       8.324   5.660  13.675  0.00  0.00    +0.000 NA
ATOM     27  N   UNL     1       7.689   5.548  14.884  0.00  0.00    +0.000 NA
ATOM     28  C   UNL     1       6.668   4.713  14.755  0.00  0.00    +0.000 A 
ENDBRANCH  20  28
ENDBRANCH  17  20
ENDBRANCH  11  17
ENDBRANCH   1  15
BRANCH   8  29
ATOM     29  C   UNL     1      -0.181   9.389  22.357  0.00  0.00    +0.000 C 
ATOM     30  F   UNL     1      -0.975  10.263  23.037  0.00  0.00    +0.000 F 
ATOM     31  F   UNL     1      -0.857   8.207  22.367  0.00  0.00    +0.000 F 
ATOM     32  F   UNL     1       0.919   9.208  23.132  0.00  0.00    +0.000 F 
ENDBRANCH   8  29
BRANCH   6  33
ATOM     33  C   UNL     1      -0.404  13.008  18.876  0.00  0.00    +0.000 C 
BRANCH  33  34
ATOM     34  N   UNL     1      -0.042  14.027  19.893  0.00  0.00    +0.000 NA
ATOM     35  C   UNL     1       1.318  14.568  19.736  0.00  0.00    +0.000 C 
ATOM     36  C   UNL     1       1.221  16.046  19.386  0.00  0.00    +0.000 C 
ATOM     37  C   UNL     1      -0.255  16.328  19.244  0.00  0.00    +0.000 C 
ATOM     38  F   UNL     1      -0.586  16.303  17.924  0.00  0.00    +0.000 F 
ATOM     39  C   UNL     1      -0.949  15.180  19.953  0.00  0.00    +0.000 C 
ENDBRANCH  33  34
ENDBRANCH   6  33
TORSDOF 7
ENDMDL
MODEL 4
REMARK VINA RESULT:      -9.7      1.391      1.962
REMARK  Name = 
REMARK  9 active torsions:
REMARK  status: ('A' for Active; 'I' for Inactive)
REMARK    1  A    between atoms: C_1  and  N_2
REMARK    2  A    between atoms: C_6  and  C_7
REMARK    3  A    between atoms: C_7  and  C_10
REMARK    4  A    between atoms: C_10  and  C_11
REMARK    5  A    between atoms: C_10  and  C_13
REMARK    6  A    between atoms: C_17  and  N_18
REMARK    7  A    between atoms: C_23  and  C_24
REMARK    8  A    between atoms: C_24  and  N_25
REMARK    9  A    between atoms: C_32  and  C_33
REMARK                            x       y       z     vdW  Elec       q    Type
REMARK                         _______ _______ _______ _____ _____    ______ ____
ROOT
ATOM      1  N   UNL     1       2.023   7.880  19.392  0.00  0.00    +0.000 N 
ATOM      2  C   UNL     1       1.407   8.182  20.664  0.00  0.00    +0.000 C 
ATOM      3  C   UNL     1       0.674   9.441  20.424  0.00  0.00    +0.000 A 
ATOM      4  C   UNL     1       0.931   9.936  19.149  0.00  0.00    +0.000 A 
ATOM      5  C   UNL     1       0.456  11.197  18.774  0.00  0.00    +0.000 A 
ATOM      6  C   UNL     1      -0.354  11.919  19.692  0.00  0.00    +0.000 A 
ATOM      7  C   UNL     1      -0.688  11.311  20.926  0.00  0.00    +0.000 A 
ATOM      8  C   UNL     1      -0.125  10.108  21.341  0.00  0.00    +0.000 A 
ATOM      9  C   UNL     1       1.770   8.899  18.449  0.00  0.00    +0.000 C 
ATOM     10  O   UNL     1       2.138   8.995  17.291  0.00  0.00    +0.000 OA
ENDROOT
BRANCH   1  15
ATOM     11  C   UNL     1       4.461   5.383  17.981  0.00  0.00    +0.000 A 
ATOM     12  C   UNL     1       4.296   4.321  18.873  0.00  0.00    +0.000 A 
ATOM     13  C   UNL     1       3.387   4.427  19.941  0.00  0.00    +0.000 A 
ATOM     14  C   UNL     1       2.595   5.576  20.122  0.00  0.00    +0.000 A 
ATOM     15  C   UNL     1       2.766   6.668  19.281  0.00  0.00    +0.000 A 
ATOM     16  C   UNL     1       3.734   6.557  18.251  0.00  0.00    +0.000 A 
BRANCH  11  17
ATOM     17  C   UNL     1       5.183   5.272  16.617  0.00  0.00    +0.000 C 
ATOM     18  C   UNL     1       4.561   4.051  15.917  0.00  0.00    +0.000 C 
ATOM     19  F   UNL     1       4.856   6.352  15.811  0.00  0.00    +0.000 F 
BRANCH  17  20
ATOM     20  C   UNL     1       6.741   5.220  16.647  0.00  0.00    +0.000 C 
ATOM     21  F   UNL     1       7.227   5.082  15.378  0.00  0.00    +0.000 F 
ATOM     22  F   UNL     1       7.142   4.089  17.305  0.00  0.00    +0.000 F 
BRANCH  20  28
ATOM     23  C   UNL     1       7.956   5.595  19.602  0.00  0.00    +0.000 C 
ATOM     24  N   UNL     1       7.828   6.581  18.562  0.00  0.00    +0.000 N 
ATOM     25  C   UNL     1       8.197   7.888  18.696  0.00  0.00    +0.000 A 
ATOM     26  N   UNL     1       8.012   8.516  17.563  0.00  0.00    +0.000 NA
ATOM     27  N   UNL     1       7.498   7.614  16.669  0.00  0.00    +0.000 NA
ATOM     28  C   UNL     1       7.356   6.445  17.276  0.00  0.00    +0.000 A 
ENDBRANCH  20  28
ENDBRANCH  17  20
ENDBRANCH  11  17
ENDBRANCH   1  15
BRANCH   8  29
ATOM     29  C   UNL     1      -0.371   9.599  22.735  0.00  0.00    +0.000 C 
ATOM     30  F   UNL     1       0.760   9.495  23.487  0.00  0.00    +0.000 F 
ATOM     31  F   UNL     1      -1.200  10.414  23.443  0.00  0.00    +0.000 F 
ATOM     32  F   UNL     1      -0.941   8.366  22.750  0.00  0.00    +0.000 F 
ENDBRANCH   8  29
BRANCH   6  33
ATOM     33  C   UNL     1      -0.910  13.324  19.403  0.00  0.00    +0.000 C 
BRANCH  33  34
ATOM     34  N   UNL     1      -0.003  14.408  19.853  0.00  0.00    +0.000 NA
ATOM     35  C   UNL     1       0.340  15.375  18.798  0.00  0.00    +0.000 C 
ATOM     36  C   UNL     1      -0.239  16.733  19.168  0.00  0.00    +0.000 C 
ATOM     37  C   UNL     1      -1.023  16.501  20.437  0.00  0.00    +0.000 C 
ATOM     38  F   UNL     1      -2.340  16.361  20.124  0.00  0.00    +0.000 F 
ATOM     39  C   UNL     1      -0.501  15.189  20.993  0.00  0.00    +0.000 C 
ENDBRANCH  33  34
ENDBRANCH   6  33
TORSDOF 7
ENDMDL
MODEL 5
REMARK VINA RESULT:      -9.7      0.913      1.438
REMARK  Name = 
REMARK  9 active torsions:
REMARK  status: ('A' for Active; 'I' for Inactive)
REMARK    1  A    between atoms: C_1  and  N_2
REMARK    2  A    between atoms: C_6  and  C_7
REMARK    3  A    between atoms: C_7  and  C_10
REMARK    4  A    between atoms: C_10  and  C_11
REMARK    5  A    between atoms: C_10  and  C_13
REMARK    6  A    between atoms: C_17  and  N_18
REMARK    7  A    between atoms: C_23  and  C_24
REMARK    8  A    between atoms: C_24  and  N_25
REMARK    9  A    between atoms: C_32  and  C_33
REMARK                            x       y       z     vdW  Elec       q    Type
REMARK                         _______ _______ _______ _____ _____    ______ ____
ROOT
ATOM      1  N   UNL     1       2.019   7.824  19.457  0.00  0.00    +0.000 N 
ATOM      2  C   UNL     1       1.378   8.142  20.714  0.00  0.00    +0.000 C 
ATOM      3  C   UNL     1       0.726   9.444  20.470  0.00  0.00    +0.000 A 
ATOM      4  C   UNL     1       1.052   9.941  19.212  0.00  0.00    +0.000 A 
ATOM      5  C   UNL     1       0.662  11.232  18.842  0.00  0.00    +0.000 A 
ATOM      6  C   UNL     1      -0.136  11.986  19.744  0.00  0.00    +0.000 A 
ATOM      7  C   UNL     1      -0.545  11.381  20.957  0.00  0.00    +0.000 A 
ATOM      8  C   UNL     1      -0.065  10.142  21.371  0.00  0.00    +0.000 A 
ATOM      9  C   UNL     1       1.855   8.868  18.523  0.00  0.00    +0.000 C 
ATOM     10  O   UNL     1       2.265   8.960  17.379  0.00  0.00    +0.000 OA
ENDROOT
BRANCH   1  15
ATOM     11  C   UNL     1       4.361   5.214  18.089  0.00  0.00    +0.000 A 
ATOM     12  C   UNL     1       4.104   4.149  18.956  0.00  0.00    +0.000 A 
ATOM     13  C   UNL     1       3.164   4.291  19.993  0.00  0.00    +0.000 A 
ATOM     14  C   UNL     1       2.433   5.480  20.167  0.00  0.00    +0.000 A 
ATOM     15  C   UNL     1       2.695   6.573  19.351  0.00  0.00    +0.000 A 
ATOM     16  C   UNL     1       3.692   6.423  18.354  0.00  0.00    +0.000 A 
BRANCH  11  17
ATOM     17  C   UNL     1       5.124   5.083  16.750  0.00  0.00    +0.000 C 
ATOM     18  C   UNL     1       4.508   3.865  16.038  0.00  0.00    +0.000 C 
ATOM     19  F   UNL     1       4.837   6.161  15.926  0.00  0.00    +0.000 F 
BRANCH  17  20
ATOM     20  C   UNL     1       6.680   5.010  16.829  0.00  0.00    +0.000 C 
ATOM     21  F   UNL     1       7.196   4.720  15.599  0.00  0.00    +0.000 F 
ATOM     22  F   UNL     1       7.042   3.957  17.624  0.00  0.00    +0.000 F 
BRANCH  20  28
ATOM     23  C   UNL     1       7.996   5.643  19.696  0.00  0.00    +0.000 C 
ATOM     24  N   UNL     1       7.817   6.537  18.583  0.00  0.00    +0.000 N 
ATOM     25  C   UNL     1       8.173   7.855  18.595  0.00  0.00    +0.000 A 
ATOM     26  N   UNL     1       7.938   8.385  17.421  0.00  0.00    +0.000 NA
ATOM     27  N   UNL     1       7.404   7.405  16.625  0.00  0.00    +0.000 NA
ATOM     28  C   UNL     1       7.301   6.290  17.332  0.00  0.00    +0.000 A 
ENDBRANCH  20  28
ENDBRANCH  17  20
ENDBRANCH  11  17
ENDBRANCH   1  15
BRANCH   8  29
ATOM     29  C   UNL     1      -0.385   9.628  22.748  0.00  0.00    +0.000 C 
ATOM     30  F   UNL     1      -1.209  10.447  23.460  0.00  0.00    +0.000 F 
ATOM     31  F   UNL     1      -1.017   8.423  22.714  0.00  0.00    +0.000 F 
ATOM     32  F   UNL     1       0.723   9.458  23.515  0.00  0.00    +0.000 F 
ENDBRANCH   8  29
BRANCH   6  33
ATOM     33  C   UNL     1      -0.603  13.424  19.459  0.00  0.00    +0.000 C 
BRANCH  33  34
ATOM     34  N   UNL     1      -0.071  14.407  20.435  0.00  0.00    +0.000 NA
ATOM     35  C   UNL     1       1.350  14.210  20.765  0.00  0.00    +0.000 C 
ATOM     36  C   UNL     1       2.143  15.409  20.266  0.00  0.00    +0.000 C 
ATOM     37  C   UNL     1       1.143  16.275  19.538  0.00  0.00    +0.000 C 
ATOM     38  F   UNL     1       1.240  16.035  18.202  0.00  0.00    +0.000 F 
ATOM     39  C   UNL     1      -0.216  15.812  20.029  0.00  0.00    +0.000 C 
ENDBRANCH  33  34
ENDBRANCH   6  33
TORSDOF 7
ENDMDL
MODEL 6
REMARK VINA RESULT:      -9.6      1.551      2.324
REMARK  Name = 
REMARK  9 active torsions:
REMARK  status: ('A' for Active; 'I' for Inactive)
REMARK    1  A    between atoms: C_1  and  N_2
REMARK    2  A    between atoms: C_6  and  C_7
REMARK    3  A    between atoms: C_7  and  C_10
REMARK    4  A    between atoms: C_10  and  C_11
REMARK    5  A    between atoms: C_10  and  C_13
REMARK    6  A    between atoms: C_17  and  N_18
REMARK    7  A    between atoms: C_23  and  C_24
REMARK    8  A    between atoms: C_24  and  N_25
REMARK    9  A    between atoms: C_32  and  C_33
REMARK                            x       y       z     vdW  Elec       q    Type
REMARK                         _______ _______ _______ _____ _____    ______ ____
ROOT
ATOM      1  N   UNL     1       2.036   7.650  19.544  0.00  0.00    +0.000 N 
ATOM      2  C   UNL     1       1.418   8.042  20.791  0.00  0.00    +0.000 C 
ATOM      3  C   UNL     1       0.789   9.344  20.492  0.00  0.00    +0.000 A 
ATOM      4  C   UNL     1       1.109   9.773  19.208  0.00  0.00    +0.000 A 
ATOM      5  C   UNL     1       0.741  11.052  18.780  0.00  0.00    +0.000 A 
ATOM      6  C   UNL     1      -0.030  11.865  19.655  0.00  0.00    +0.000 A 
ATOM      7  C   UNL     1      -0.436  11.328  20.900  0.00  0.00    +0.000 A 
ATOM      8  C   UNL     1       0.025  10.101  21.368  0.00  0.00    +0.000 A 
ATOM      9  C   UNL     1       1.881   8.651  18.562  0.00  0.00    +0.000 C 
ATOM     10  O   UNL     1       2.279   8.679  17.411  0.00  0.00    +0.000 OA
ENDROOT
BRANCH   1  15
ATOM     11  C   UNL     1       4.624   5.076  18.623  0.00  0.00    +0.000 A 
ATOM     12  C   UNL     1       4.095   3.939  19.237  0.00  0.00    +0.000 A 
ATOM     13  C   UNL     1       2.891   4.019  19.959  0.00  0.00    +0.000 A 
ATOM     14  C   UNL     1       2.167   5.222  20.052  0.00  0.00    +0.000 A 
ATOM     15  C   UNL     1       2.686   6.382  19.491  0.00  0.00    +0.000 A 
ATOM     16  C   UNL     1       3.933   6.286  18.824  0.00  0.00    +0.000 A 
BRANCH  11  17
ATOM     17  C   UNL     1       5.753   5.050  17.565  0.00  0.00    +0.000 C 
ATOM     18  C   UNL     1       6.164   6.520  17.361  0.00  0.00    +0.000 C 
ATOM     19  F   UNL     1       6.882   4.431  18.081  0.00  0.00    +0.000 F 
BRANCH  17  20
ATOM     20  C   UNL     1       5.443   4.320  16.222  0.00  0.00    +0.000 C 
ATOM     21  F   UNL     1       4.161   4.585  15.833  0.00  0.00    +0.000 F 
ATOM     22  F   UNL     1       5.481   2.968  16.426  0.00  0.00    +0.000 F 
BRANCH  20  28
ATOM     23  C   UNL     1       5.348   3.539  13.103  0.00  0.00    +0.000 C 
ATOM     24  N   UNL     1       6.336   4.325  13.792  0.00  0.00    +0.000 N 
ATOM     25  C   UNL     1       7.444   4.855  13.197  0.00  0.00    +0.000 A 
ATOM     26  N   UNL     1       8.115   5.563  14.069  0.00  0.00    +0.000 NA
ATOM     27  N   UNL     1       7.449   5.488  15.264  0.00  0.00    +0.000 NA
ATOM     28  C   UNL     1       6.384   4.714  15.111  0.00  0.00    +0.000 A 
ENDBRANCH  20  28
ENDBRANCH  17  20
ENDBRANCH  11  17
ENDBRANCH   1  15
BRANCH   8  29
ATOM     29  C   UNL     1      -0.287   9.661  22.772  0.00  0.00    +0.000 C 
ATOM     30  F   UNL     1      -0.979   8.490  22.838  0.00  0.00    +0.000 F 
ATOM     31  F   UNL     1       0.838   9.455  23.510  0.00  0.00    +0.000 F 
ATOM     32  F   UNL     1      -1.031  10.570  23.453  0.00  0.00    +0.000 F 
ENDBRANCH   8  29
BRANCH   6  33
ATOM     33  C   UNL     1      -0.472  13.297  19.306  0.00  0.00    +0.000 C 
BRANCH  33  34
ATOM     34  N   UNL     1       0.470  14.329  19.806  0.00  0.00    +0.000 NA
ATOM     35  C   UNL     1       1.518  13.799  20.693  0.00  0.00    +0.000 C 
ATOM     36  C   UNL     1       2.870  13.973  20.016  0.00  0.00    +0.000 C 
ATOM     37  C   UNL     1       2.563  14.537  18.649  0.00  0.00    +0.000 C 
ATOM     38  F   UNL     1       2.576  13.525  17.740  0.00  0.00    +0.000 F 
ATOM     39  C   UNL     1       1.155  15.093  18.755  0.00  0.00    +0.000 C 
ENDBRANCH  33  34
ENDBRANCH   6  33
TORSDOF 7
ENDMDL
MODEL 7
REMARK VINA RESULT:      -9.6      1.434      2.411
REMARK  Name = 
REMARK  9 active torsions:
REMARK  status: ('A' for Active; 'I' for Inactive)
REMARK    1  A    between atoms: C_1  and  N_2
REMARK    2  A    between atoms: C_6  and  C_7
REMARK    3  A    between atoms: C_7  and  C_10
REMARK    4  A    between atoms: C_10  and  C_11
REMARK    5  A    between atoms: C_10  and  C_13
REMARK    6  A    between atoms: C_17  and  N_18
REMARK    7  A    between atoms: C_23  and  C_24
REMARK    8  A    between atoms: C_24  and  N_25
REMARK    9  A    between atoms: C_32  and  C_33
REMARK                            x       y       z     vdW  Elec       q    Type
REMARK                         _______ _______ _______ _____ _____    ______ ____
ROOT
ATOM      1  N   UNL     1       2.248   7.513  19.459  0.00  0.00    +0.000 N 
ATOM      2  C   UNL     1       1.558   7.882  20.675  0.00  0.00    +0.000 C 
ATOM      3  C   UNL     1       0.876   9.147  20.337  0.00  0.00    +0.000 A 
ATOM      4  C   UNL     1       1.230   9.583  19.064  0.00  0.00    +0.000 A 
ATOM      5  C   UNL     1       0.815  10.839  18.609  0.00  0.00    +0.000 A 
ATOM      6  C   UNL     1      -0.034  11.617  19.442  0.00  0.00    +0.000 A 
ATOM      7  C   UNL     1      -0.465  11.068  20.673  0.00  0.00    +0.000 A 
ATOM      8  C   UNL     1       0.037   9.870  21.172  0.00  0.00    +0.000 A 
ATOM      9  C   UNL     1       2.085   8.498  18.462  0.00  0.00    +0.000 C 
ATOM     10  O   UNL     1       2.530   8.538  17.329  0.00  0.00    +0.000 OA
ENDROOT
BRANCH   1  15
ATOM     11  C   UNL     1       5.151   5.152  19.044  0.00  0.00    +0.000 A 
ATOM     12  C   UNL     1       4.537   3.929  19.324  0.00  0.00    +0.000 A 
ATOM     13  C   UNL     1       3.171   3.881  19.655  0.00  0.00    +0.000 A 
ATOM     14  C   UNL     1       2.377   5.042  19.676  0.00  0.00    +0.000 A 
ATOM     15  C   UNL     1       2.964   6.280  19.445  0.00  0.00    +0.000 A 
ATOM     16  C   UNL     1       4.356   6.306  19.177  0.00  0.00    +0.000 A 
BRANCH  11  17
ATOM     17  C   UNL     1       6.540   5.298  18.378  0.00  0.00    +0.000 C 
ATOM     18  C   UNL     1       7.493   5.743  19.502  0.00  0.00    +0.000 C 
ATOM     19  F   UNL     1       7.013   4.057  17.977  0.00  0.00    +0.000 F 
BRANCH  17  20
ATOM     20  C   UNL     1       6.625   6.214  17.119  0.00  0.00    +0.000 C 
ATOM     21  F   UNL     1       7.769   6.959  17.161  0.00  0.00    +0.000 F 
ATOM     22  F   UNL     1       5.605   7.125  17.155  0.00  0.00    +0.000 F 
BRANCH  20  28
ATOM     23  C   UNL     1       4.308   4.320  15.939  0.00  0.00    +0.000 C 
ATOM     24  N   UNL     1       5.600   4.600  15.374  0.00  0.00    +0.000 N 
ATOM     25  C   UNL     1       6.063   4.053  14.211  0.00  0.00    +0.000 A 
ATOM     26  N   UNL     1       7.243   4.545  13.932  0.00  0.00    +0.000 NA
ATOM     27  N   UNL     1       7.573   5.420  14.934  0.00  0.00    +0.000 NA
ATOM     28  C   UNL     1       6.595   5.436  15.827  0.00  0.00    +0.000 A 
ENDBRANCH  20  28
ENDBRANCH  17  20
ENDBRANCH  11  17
ENDBRANCH   1  15
BRANCH   8  29
ATOM     29  C   UNL     1      -0.313   9.424  22.565  0.00  0.00    +0.000 C 
ATOM     30  F   UNL     1      -1.159  10.272  23.215  0.00  0.00    +0.000 F 
ATOM     31  F   UNL     1      -0.937   8.214  22.578  0.00  0.00    +0.000 F 
ATOM     32  F   UNL     1       0.777   9.301  23.366  0.00  0.00    +0.000 F 
ENDBRANCH   8  29
BRANCH   6  33
ATOM     33  C   UNL     1      -0.533  13.022  19.061  0.00  0.00    +0.000 C 
BRANCH  33  34
ATOM     34  N   UNL     1       0.278  14.106  19.669  0.00  0.00    +0.000 NA
ATOM     35  C   UNL     1       1.226  13.638  20.692  0.00  0.00    +0.000 C 
ATOM     36  C   UNL     1       2.645  13.883  20.197  0.00  0.00    +0.000 C 
ATOM     37  C   UNL     1       2.492  14.422  18.795  0.00  0.00    +0.000 C 
ATOM     38  F   UNL     1       2.679  13.407  17.908  0.00  0.00    +0.000 F 
ATOM     39  C   UNL     1       1.055  14.900  18.708  0.00  0.00    +0.000 C 
ENDBRANCH  33  34
ENDBRANCH   6  33
TORSDOF 7
ENDMDL
MODEL 8
REMARK VINA RESULT:      -9.6      1.603      2.582
REMARK  Name = 
REMARK  9 active torsions:
REMARK  status: ('A' for Active; 'I' for Inactive)
REMARK    1  A    between atoms: C_1  and  N_2
REMARK    2  A    between atoms: C_6  and  C_7
REMARK    3  A    between atoms: C_7  and  C_10
REMARK    4  A    between atoms: C_10  and  C_11
REMARK    5  A    between atoms: C_10  and  C_13
REMARK    6  A    between atoms: C_17  and  N_18
REMARK    7  A    between atoms: C_23  and  C_24
REMARK    8  A    between atoms: C_24  and  N_25
REMARK    9  A    between atoms: C_32  and  C_33
REMARK                            x       y       z     vdW  Elec       q    Type
REMARK                         _______ _______ _______ _____ _____    ______ ____
ROOT
ATOM      1  N   UNL     1       2.129   7.624  19.515  0.00  0.00    +0.000 N 
ATOM      2  C   UNL     1       1.473   8.016  20.742  0.00  0.00    +0.000 C 
ATOM      3  C   UNL     1       0.817   9.296  20.411  0.00  0.00    +0.000 A 
ATOM      4  C   UNL     1       1.155   9.716  19.128  0.00  0.00    +0.000 A 
ATOM      5  C   UNL     1       0.763  10.980  18.675  0.00  0.00    +0.000 A 
ATOM      6  C   UNL     1      -0.049  11.783  19.521  0.00  0.00    +0.000 A 
ATOM      7  C   UNL     1      -0.469  11.252  20.763  0.00  0.00    +0.000 A 
ATOM      8  C   UNL     1       0.013  10.044  21.259  0.00  0.00    +0.000 A 
ATOM      9  C   UNL     1       1.971   8.607  18.516  0.00  0.00    +0.000 C 
ATOM     10  O   UNL     1       2.394   8.630  17.374  0.00  0.00    +0.000 OA
ENDROOT
BRANCH   1  15
ATOM     11  C   UNL     1       4.975   5.194  19.106  0.00  0.00    +0.000 A 
ATOM     12  C   UNL     1       4.327   3.984  19.361  0.00  0.00    +0.000 A 
ATOM     13  C   UNL     1       2.955   3.966  19.673  0.00  0.00    +0.000 A 
ATOM     14  C   UNL     1       2.191   5.147  19.699  0.00  0.00    +0.000 A 
ATOM     15  C   UNL     1       2.813   6.372  19.494  0.00  0.00    +0.000 A 
ATOM     16  C   UNL     1       4.209   6.366  19.245  0.00  0.00    +0.000 A 
BRANCH  11  17
ATOM     17  C   UNL     1       6.377   5.313  18.462  0.00  0.00    +0.000 C 
ATOM     18  C   UNL     1       7.337   5.648  19.618  0.00  0.00    +0.000 C 
ATOM     19  F   UNL     1       6.798   4.077  17.995  0.00  0.00    +0.000 F 
BRANCH  17  20
ATOM     20  C   UNL     1       6.518   6.294  17.258  0.00  0.00    +0.000 C 
ATOM     21  F   UNL     1       7.613   7.091  17.432  0.00  0.00    +0.000 F 
ATOM     22  F   UNL     1       5.452   7.152  17.248  0.00  0.00    +0.000 F 
BRANCH  20  28
ATOM     23  C   UNL     1       4.426   4.321  15.816  0.00  0.00    +0.000 C 
ATOM     24  N   UNL     1       5.736   4.709  15.367  0.00  0.00    +0.000 N 
ATOM     25  C   UNL     1       6.319   4.252  14.220  0.00  0.00    +0.000 A 
ATOM     26  N   UNL     1       7.482   4.830  14.057  0.00  0.00    +0.000 NA
ATOM     27  N   UNL     1       7.678   5.672  15.120  0.00  0.00    +0.000 NA
ATOM     28  C   UNL     1       6.636   5.582  15.934  0.00  0.00    +0.000 A 
ENDBRANCH  20  28
ENDBRANCH  17  20
ENDBRANCH  11  17
ENDBRANCH   1  15
BRANCH   8  29
ATOM     29  C   UNL     1      -0.320   9.614  22.661  0.00  0.00    +0.000 C 
ATOM     30  F   UNL     1      -1.113  10.497  23.331  0.00  0.00    +0.000 F 
ATOM     31  F   UNL     1      -0.994   8.432  22.691  0.00  0.00    +0.000 F 
ATOM     32  F   UNL     1       0.783   9.446  23.434  0.00  0.00    +0.000 F 
ENDBRANCH   8  29
BRANCH   6  33
ATOM     33  C   UNL     1      -0.519  13.199  19.142  0.00  0.00    +0.000 C 
BRANCH  33  34
ATOM     34  N   UNL     1       0.233  14.265  19.849  0.00  0.00    +0.000 NA
ATOM     35  C   UNL     1       1.514  14.612  19.212  0.00  0.00    +0.000 C 
ATOM     36  C   UNL     1       1.439  16.045  18.705  0.00  0.00    +0.000 C 
ATOM     37  C   UNL     1       0.024  16.494  18.981  0.00  0.00    +0.000 C 
ATOM     38  F   UNL     1      -0.709  16.371  17.841  0.00  0.00    +0.000 F 
ATOM     39  C   UNL     1      -0.505  15.523  20.020  0.00  0.00    +0.000 C 
ENDBRANCH  33  34
ENDBRANCH   6  33
TORSDOF 7
ENDMDL
MODEL 9
REMARK VINA RESULT:      -9.6      0.988      1.264
REMARK  Name = 
REMARK  9 active torsions:
REMARK  status: ('A' for Active; 'I' for Inactive)
REMARK    1  A    between atoms: C_1  and  N_2
REMARK    2  A    between atoms: C_6  and  C_7
REMARK    3  A    between atoms: C_7  and  C_10
REMARK    4  A    between atoms: C_10  and  C_11
REMARK    5  A    between atoms: C_10  and  C_13
REMARK    6  A    between atoms: C_17  and  N_18
REMARK    7  A    between atoms: C_23  and  C_24
REMARK    8  A    between atoms: C_24  and  N_25
REMARK    9  A    between atoms: C_32  and  C_33
REMARK                            x       y       z     vdW  Elec       q    Type
REMARK                         _______ _______ _______ _____ _____    ______ ____
ROOT
ATOM      1  N   UNL     1       2.124   7.781  19.080  0.00  0.00    +0.000 N 
ATOM      2  C   UNL     1       1.490   8.007  20.359  0.00  0.00    +0.000 C 
ATOM      3  C   UNL     1       0.869   9.340  20.228  0.00  0.00    +0.000 A 
ATOM      4  C   UNL     1       1.209   9.935  19.016  0.00  0.00    +0.000 A 
ATOM      5  C   UNL     1       0.850  11.262  18.758  0.00  0.00    +0.000 A 
ATOM      6  C   UNL     1       0.070  11.955  19.722  0.00  0.00    +0.000 A 
ATOM      7  C   UNL     1      -0.355  11.259  20.879  0.00  0.00    +0.000 A 
ATOM      8  C   UNL     1       0.095   9.978  21.186  0.00  0.00    +0.000 A 
ATOM      9  C   UNL     1       1.986   8.905  18.237  0.00  0.00    +0.000 C 
ATOM     10  O   UNL     1       2.400   9.083  17.105  0.00  0.00    +0.000 OA
ENDROOT
BRANCH   1  15
ATOM     11  C   UNL     1       4.418   5.246  17.505  0.00  0.00    +0.000 A 
ATOM     12  C   UNL     1       4.122   4.114  18.267  0.00  0.00    +0.000 A 
ATOM     13  C   UNL     1       3.173   4.185  19.302  0.00  0.00    +0.000 A 
ATOM     14  C   UNL     1       2.469   5.372  19.576  0.00  0.00    +0.000 A 
ATOM     15  C   UNL     1       2.769   6.528  18.867  0.00  0.00    +0.000 A 
ATOM     16  C   UNL     1       3.776   6.444  17.872  0.00  0.00    +0.000 A 
BRANCH  11  17
ATOM     17  C   UNL     1       5.196   5.218  16.168  0.00  0.00    +0.000 C 
ATOM     18  C   UNL     1       4.494   4.157  15.302  0.00  0.00    +0.000 C 
ATOM     19  F   UNL     1       5.019   6.412  15.484  0.00  0.00    +0.000 F 
BRANCH  17  20
ATOM     20  C   UNL     1       6.738   5.002  16.254  0.00  0.00    +0.000 C 
ATOM     21  F   UNL     1       7.366   5.740  15.292  0.00  0.00    +0.000 F 
ATOM     22  F   UNL     1       7.028   3.700  15.950  0.00  0.00    +0.000 F 
BRANCH  20  28
ATOM     23  C   UNL     1       7.405   7.910  17.457  0.00  0.00    +0.000 C 
ATOM     24  N   UNL     1       7.619   6.626  18.067  0.00  0.00    +0.000 N 
ATOM     25  C   UNL     1       8.190   6.447  19.294  0.00  0.00    +0.000 A 
ATOM     26  N   UNL     1       8.194   5.173  19.596  0.00  0.00    +0.000 NA
ATOM     27  N   UNL     1       7.631   4.498  18.546  0.00  0.00    +0.000 NA
ATOM     28  C   UNL     1       7.306   5.369  17.602  0.00  0.00    +0.000 A 
ENDBRANCH  20  28
ENDBRANCH  17  20
ENDBRANCH  11  17
ENDBRANCH   1  15
BRANCH   8  29
ATOM     29  C   UNL     1      -0.239   9.357  22.514  0.00  0.00    +0.000 C 
ATOM     30  F   UNL     1      -0.789   8.115  22.415  0.00  0.00    +0.000 F 
ATOM     31  F   UNL     1       0.861   9.202  23.301  0.00  0.00    +0.000 F 
ATOM     32  F   UNL     1      -1.122  10.098  23.232  0.00  0.00    +0.000 F 
ENDBRANCH   8  29
BRANCH   6  33
ATOM     33  C   UNL     1      -0.362  13.423  19.561  0.00  0.00    +0.000 C 
BRANCH  33  34
ATOM     34  N   UNL     1       0.786  14.364  19.552  0.00  0.00    +0.000 NA
ATOM     35  C   UNL     1       0.393  15.781  19.481  0.00  0.00    +0.000 C 
ATOM     36  C   UNL     1       0.807  16.472  20.772  0.00  0.00    +0.000 C 
ATOM     37  C   UNL     1       1.369  15.378  21.649  0.00  0.00    +0.000 C 
ATOM     38  F   UNL     1       0.409  14.975  22.525  0.00  0.00    +0.000 F 
ATOM     39  C   UNL     1       1.690  14.236  20.702  0.00  0.00    +0.000 C 
ENDBRANCH  33  34
ENDBRANCH   6  33
TORSDOF 7
ENDMDL
