MODEL 1
REMARK VINA RESULT:     -10.6      0.000      0.000
REMARK  Name = 
REMARK  9 active torsions:
REMARK  status: ('A' for Active; 'I' for Inactive)
REMARK    1  A    between atoms: C_1  and  C_2
REMARK    2  A    between atoms: N_4  and  C_5
REMARK    3  A    between atoms: C_5  and  C_6
REMARK    4  A    between atoms: C_10  and  C_11
REMARK    5  A    between atoms: N_17  and  C_18
REMARK    6  A    between atoms: C_22  and  C_23
REMARK    7  A    between atoms: C_24  and  C_25
REMARK    8  A    between atoms: N_29  and  C_30
REMARK    9  A    between atoms: N_33  and  C_34
REMARK                            x       y       z     vdW  Elec       q    Type
REMARK                         _______ _______ _______ _____ _____    ______ ____
ROOT
ATOM      1  C   UNL     1       3.624   4.832  17.588  0.00  0.00    +0.000 A 
ATOM      2  C   UNL     1       3.211   6.164  17.608  0.00  0.00    +0.000 A 
ATOM      3  C   UNL     1       2.512   6.603  18.715  0.00  0.00    +0.000 A 
ATOM      4  C   UNL     1       2.162   5.777  19.779  0.00  0.00    +0.000 A 
ATOM      5  C   UNL     1       2.476   4.424  19.748  0.00  0.00    +0.000 A 
ATOM      6  C   UNL     1       3.238   3.971  18.648  0.00  0.00    +0.000 A 
ATOM      7  C   UNL     1       1.496   6.601  20.836  0.00  0.00    +0.000 C 
ATOM      8  N   UNL     1       1.450   7.934  20.248  0.00  0.00    +0.000 N 
ATOM      9  C   UNL     1       2.054   7.960  18.993  0.00  0.00    +0.000 C 
ATOM     10  O   UNL     1       2.243   8.870  18.206  0.00  0.00    +0.000 OA
ENDROOT
BRANCH   8  11
ATOM     11  C   UNL     1       0.897   9.052  20.925  0.00  0.00    +0.000 A 
ATOM     12  C   UNL     1       0.460   8.958  22.247  0.00  0.00    +0.000 A 
ATOM     13  C   UNL     1      -0.113  10.050  22.896  0.00  0.00    +0.000 A 
ATOM     14  C   UNL     1      -0.277  11.257  22.221  0.00  0.00    +0.000 A 
ATOM     15  C   UNL     1       0.178  11.407  20.907  0.00  0.00    +0.000 A 
ATOM     16  C   UNL     1       0.775  10.293  20.285  0.00  0.00    +0.000 A 
BRANCH  15  17
ATOM     17  C   UNL     1       0.067  12.685  20.176  0.00  0.00    +0.000 A 
ATOM     18  C   UNL     1      -0.794  13.080  19.151  0.00  0.00    +0.000 A 
ATOM     19  C   UNL     1      -0.322  14.328  18.714  0.00  0.00    +0.000 A 
ATOM     20  N   UNL     1       0.749  14.729  19.390  0.00  0.00    +0.000 NA
ATOM     21  N   UNL     1       0.960  13.741  20.285  0.00  0.00    +0.000 N 
ATOM     22  C   UNL     1       2.088  13.876  21.177  0.00  0.00    +0.000 C 
BRANCH  18  23
ATOM     23  C   UNL     1      -1.974  12.338  18.631  0.00  0.00    +0.000 A 
ATOM     24  N   UNL     1      -2.024  11.744  17.453  0.00  0.00    +0.000 NA
ATOM     25  N   UNL     1      -3.255  11.147  17.313  0.00  0.00    +0.000 NA
ATOM     26  C   UNL     1      -3.948  11.419  18.393  0.00  0.00    +0.000 A 
ATOM     27  N   UNL     1      -3.195  12.177  19.237  0.00  0.00    +0.000 N 
ATOM     28  C   UNL     1      -3.693  12.863  20.400  0.00  0.00    +0.000 C 
ENDBRANCH  18  23
ENDBRANCH  15  17
ENDBRANCH   8  11
BRANCH   5  29
ATOM     29  C   UNL     1       2.039   3.451  20.809  0.00  0.00    +0.000 C 
ATOM     30  F   UNL     1       2.511   3.740  22.055  0.00  0.00    +0.000 F 
ATOM     31  F   UNL     1       0.682   3.406  20.936  0.00  0.00    +0.000 F 
ATOM     32  F   UNL     1       2.429   2.174  20.549  0.00  0.00    +0.000 F 
ENDBRANCH   5  29
BRANCH   1  33
ATOM     33  C   UNL     1       4.523   4.351  16.469  0.00  0.00    +0.000 C 
BRANCH  33  37
ATOM     34  C   UNL     1       7.499   7.450  17.562  0.00  0.00    +0.000 C 
ATOM     35  C   UNL     1       6.822   6.355  16.752  0.00  0.00    +0.000 C 
ATOM     36  C   UNL     1       6.582   5.097  17.614  0.00  0.00    +0.000 C 
ATOM     37  N   UNL     1       5.898   4.016  16.869  0.00  0.00    +0.000 NA
ATOM     38  C   UNL     1       6.721   3.737  15.664  0.00  0.00    +0.000 C 
ATOM     39  C   UNL     1       7.053   4.992  14.830  0.00  0.00    +0.000 C 
ATOM     40  O   UNL     1       7.650   6.028  15.625  0.00  0.00    +0.000 OA
ENDBRANCH  33  37
ENDBRANCH   1  33
TORSDOF 6
ENDMDL
MODEL 2
REMARK VINA RESULT:     -10.5      0.486      1.125
REMARK  Name = 
REMARK  9 active torsions:
REMARK  status: ('A' for Active; 'I' for Inactive)
REMARK    1  A    between atoms: C_1  and  C_2
REMARK    2  A    between atoms: N_4  and  C_5
REMARK    3  A    between atoms: C_5  and  C_6
REMARK    4  A    between atoms: C_10  and  C_11
REMARK    5  A    between atoms: N_17  and  C_18
REMARK    6  A    between atoms: C_22  and  C_23
REMARK    7  A    between atoms: C_24  and  C_25
REMARK    8  A    between atoms: N_29  and  C_30
REMARK    9  A    between atoms: N_33  and  C_34
REMARK                            x       y       z     vdW  Elec       q    Type
REMARK                         _______ _______ _______ _____ _____    ______ ____
ROOT
ATOM      1  C   UNL     1       3.601   4.880  17.588  0.00  0.00    +0.000 A 
ATOM      2  C   UNL     1       3.180   6.209  17.630  0.00  0.00    +0.000 A 
ATOM      3  C   UNL     1       2.488   6.628  18.749  0.00  0.00    +0.000 A 
ATOM      4  C   UNL     1       2.153   5.785  19.805  0.00  0.00    +0.000 A 
ATOM      5  C   UNL     1       2.475   4.435  19.752  0.00  0.00    +0.000 A 
ATOM      6  C   UNL     1       3.230   4.002  18.640  0.00  0.00    +0.000 A 
ATOM      7  C   UNL     1       1.491   6.590  20.879  0.00  0.00    +0.000 C 
ATOM      8  N   UNL     1       1.431   7.931  20.310  0.00  0.00    +0.000 N 
ATOM      9  C   UNL     1       2.025   7.978  19.051  0.00  0.00    +0.000 C 
ATOM     10  O   UNL     1       2.200   8.900  18.275  0.00  0.00    +0.000 OA
ENDROOT
BRANCH   8  11
ATOM     11  C   UNL     1       0.878   9.036  21.007  0.00  0.00    +0.000 A 
ATOM     12  C   UNL     1       0.424   8.913  22.321  0.00  0.00    +0.000 A 
ATOM     13  C   UNL     1      -0.149   9.992  22.989  0.00  0.00    +0.000 A 
ATOM     14  C   UNL     1      -0.299  11.216  22.342  0.00  0.00    +0.000 A 
ATOM     15  C   UNL     1       0.174  11.395  21.038  0.00  0.00    +0.000 A 
ATOM     16  C   UNL     1       0.771  10.293  20.396  0.00  0.00    +0.000 A 
BRANCH  15  17
ATOM     17  C   UNL     1       0.079  12.691  20.337  0.00  0.00    +0.000 A 
ATOM     18  C   UNL     1      -0.948  13.243  19.570  0.00  0.00    +0.000 A 
ATOM     19  C   UNL     1      -0.416  14.408  18.997  0.00  0.00    +0.000 A 
ATOM     20  N   UNL     1       0.846  14.617  19.356  0.00  0.00    +0.000 NA
ATOM     21  N   UNL     1       1.126  13.587  20.182  0.00  0.00    +0.000 N 
ATOM     22  C   UNL     1       2.458  13.518  20.739  0.00  0.00    +0.000 C 
BRANCH  18  23
ATOM     23  C   UNL     1      -2.328  12.712  19.398  0.00  0.00    +0.000 A 
ATOM     24  N   UNL     1      -3.348  13.016  20.179  0.00  0.00    +0.000 NA
ATOM     25  N   UNL     1      -4.466  12.359  19.720  0.00  0.00    +0.000 NA
ATOM     26  C   UNL     1      -4.099  11.638  18.687  0.00  0.00    +0.000 A 
ATOM     27  N   UNL     1      -2.768  11.812  18.460  0.00  0.00    +0.000 N 
ATOM     28  C   UNL     1      -1.969  11.009  17.574  0.00  0.00    +0.000 C 
ENDBRANCH  18  23
ENDBRANCH  15  17
ENDBRANCH   8  11
BRANCH   5  29
ATOM     29  C   UNL     1       2.053   3.444  20.804  0.00  0.00    +0.000 C 
ATOM     30  F   UNL     1       2.514   2.180  20.591  0.00  0.00    +0.000 F 
ATOM     31  F   UNL     1       2.502   3.791  22.045  0.00  0.00    +0.000 F 
ATOM     32  F   UNL     1       0.702   3.336  20.916  0.00  0.00    +0.000 F 
ENDBRANCH   5  29
BRANCH   1  33
ATOM     33  C   UNL     1       4.494   4.420  16.455  0.00  0.00    +0.000 C 
BRANCH  33  37
ATOM     34  C   UNL     1       7.545   7.407  17.646  0.00  0.00    +0.000 C 
ATOM     35  C   UNL     1       6.842   6.355  16.802  0.00  0.00    +0.000 C 
ATOM     36  C   UNL     1       6.569   5.078  17.625  0.00  0.00    +0.000 C 
ATOM     37  N   UNL     1       5.859   4.038  16.847  0.00  0.00    +0.000 NA
ATOM     38  C   UNL     1       6.678   3.775  15.635  0.00  0.00    +0.000 C 
ATOM     39  C   UNL     1       7.043   5.046  14.840  0.00  0.00    +0.000 C 
ATOM     40  O   UNL     1       7.664   6.042  15.667  0.00  0.00    +0.000 OA
ENDBRANCH  33  37
ENDBRANCH   1  33
TORSDOF 6
ENDMDL
MODEL 3
REMARK VINA RESULT:     -10.3      1.220      3.105
REMARK  Name = 
REMARK  9 active torsions:
REMARK  status: ('A' for Active; 'I' for Inactive)
REMARK    1  A    between atoms: C_1  and  C_2
REMARK    2  A    between atoms: N_4  and  C_5
REMARK    3  A    between atoms: C_5  and  C_6
REMARK    4  A    between atoms: C_10  and  C_11
REMARK    5  A    between atoms: N_17  and  C_18
REMARK    6  A    between atoms: C_22  and  C_23
REMARK    7  A    between atoms: C_24  and  C_25
REMARK    8  A    between atoms: N_29  and  C_30
REMARK    9  A    between atoms: N_33  and  C_34
REMARK                            x       y       z     vdW  Elec       q    Type
REMARK                         _______ _______ _______ _____ _____    ______ ____
ROOT
ATOM      1  C   UNL     1       3.520   5.369  17.827  0.00  0.00    +0.000 A 
ATOM      2  C   UNL     1       3.024   6.671  17.904  0.00  0.00    +0.000 A 
ATOM      3  C   UNL     1       2.299   7.015  19.028  0.00  0.00    +0.000 A 
ATOM      4  C   UNL     1       2.002   6.122  20.054  0.00  0.00    +0.000 A 
ATOM      5  C   UNL     1       2.401   4.794  19.963  0.00  0.00    +0.000 A 
ATOM      6  C   UNL     1       3.189   4.440  18.847  0.00  0.00    +0.000 A 
ATOM      7  C   UNL     1       1.284   6.854  21.144  0.00  0.00    +0.000 C 
ATOM      8  N   UNL     1       1.154   8.207  20.616  0.00  0.00    +0.000 N 
ATOM      9  C   UNL     1       1.756   8.327  19.365  0.00  0.00    +0.000 C 
ATOM     10  O   UNL     1       1.887   9.281  18.620  0.00  0.00    +0.000 OA
ENDROOT
BRANCH   8  11
ATOM     11  C   UNL     1       0.532   9.256  21.340  0.00  0.00    +0.000 A 
ATOM     12  C   UNL     1       0.122   9.084  22.662  0.00  0.00    +0.000 A 
ATOM     13  C   UNL     1      -0.519  10.106  23.358  0.00  0.00    +0.000 A 
ATOM     14  C   UNL     1      -0.780  11.322  22.730  0.00  0.00    +0.000 A 
ATOM     15  C   UNL     1      -0.355  11.552  21.417  0.00  0.00    +0.000 A 
ATOM     16  C   UNL     1       0.312  10.508  20.747  0.00  0.00    +0.000 A 
BRANCH  15  17
ATOM     17  C   UNL     1      -0.568  12.845  20.736  0.00  0.00    +0.000 A 
ATOM     18  C   UNL     1       0.241  13.979  20.652  0.00  0.00    +0.000 A 
ATOM     19  C   UNL     1      -0.546  14.968  20.042  0.00  0.00    +0.000 A 
ATOM     20  N   UNL     1      -1.764  14.530  19.742  0.00  0.00    +0.000 NA
ATOM     21  N   UNL     1      -1.758  13.242  20.144  0.00  0.00    +0.000 N 
ATOM     22  C   UNL     1      -2.972  12.479  19.966  0.00  0.00    +0.000 C 
BRANCH  18  23
ATOM     23  C   UNL     1       1.652  14.113  21.106  0.00  0.00    +0.000 A 
ATOM     24  N   UNL     1       2.017  14.592  22.281  0.00  0.00    +0.000 NA
ATOM     25  N   UNL     1       3.389  14.555  22.365  0.00  0.00    +0.000 NA
ATOM     26  C   UNL     1       3.839  14.088  21.225  0.00  0.00    +0.000 A 
ATOM     27  N   UNL     1       2.790  13.815  20.400  0.00  0.00    +0.000 N 
ATOM     28  C   UNL     1       2.899  13.518  18.996  0.00  0.00    +0.000 C 
ENDBRANCH  18  23
ENDBRANCH  15  17
ENDBRANCH   8  11
BRANCH   5  29
ATOM     29  C   UNL     1       2.025   3.749  20.979  0.00  0.00    +0.000 C 
ATOM     30  F   UNL     1       0.683   3.555  21.105  0.00  0.00    +0.000 F 
ATOM     31  F   UNL     1       2.543   2.525  20.671  0.00  0.00    +0.000 F 
ATOM     32  F   UNL     1       2.480   4.040  22.228  0.00  0.00    +0.000 F 
ENDBRANCH   5  29
BRANCH   1  33
ATOM     33  C   UNL     1       4.448   4.996  16.690  0.00  0.00    +0.000 C 
BRANCH  33  37
ATOM     34  C   UNL     1       7.814   7.657  17.803  0.00  0.00    +0.000 C 
ATOM     35  C   UNL     1       6.998   6.666  16.988  0.00  0.00    +0.000 C 
ATOM     36  C   UNL     1       6.584   5.453  17.847  0.00  0.00    +0.000 C 
ATOM     37  N   UNL     1       5.762   4.476  17.098  0.00  0.00    +0.000 NA
ATOM     38  C   UNL     1       6.546   4.087  15.897  0.00  0.00    +0.000 C 
ATOM     39  C   UNL     1       7.052   5.285  15.066  0.00  0.00    +0.000 C 
ATOM     40  O   UNL     1       7.780   6.229  15.866  0.00  0.00    +0.000 OA
ENDBRANCH  33  37
ENDBRANCH   1  33
TORSDOF 6
ENDMDL
MODEL 4
REMARK VINA RESULT:     -10.3      0.858      1.051
REMARK  Name = 
REMARK  9 active torsions:
REMARK  status: ('A' for Active; 'I' for Inactive)
REMARK    1  A    between atoms: C_1  and  C_2
REMARK    2  A    between atoms: N_4  and  C_5
REMARK    3  A    between atoms: C_5  and  C_6
REMARK    4  A    between atoms: C_10  and  C_11
REMARK    5  A    between atoms: N_17  and  C_18
REMARK    6  A    between atoms: C_22  and  C_23
REMARK    7  A    between atoms: C_24  and  C_25
REMARK    8  A    between atoms: N_29  and  C_30
REMARK    9  A    between atoms: N_33  and  C_34
REMARK                            x       y       z     vdW  Elec       q    Type
REMARK                         _______ _______ _______ _____ _____    ______ ____
ROOT
ATOM      1  C   UNL     1       3.540   5.103  17.754  0.00  0.00    +0.000 A 
ATOM      2  C   UNL     1       3.073   6.416  17.823  0.00  0.00    +0.000 A 
ATOM      3  C   UNL     1       2.364   6.787  18.948  0.00  0.00    +0.000 A 
ATOM      4  C   UNL     1       2.055   5.911  19.984  0.00  0.00    +0.000 A 
ATOM      5  C   UNL     1       2.423   4.573  19.903  0.00  0.00    +0.000 A 
ATOM      6  C   UNL     1       3.195   4.191  18.785  0.00  0.00    +0.000 A 
ATOM      7  C   UNL     1       1.362   6.669  21.073  0.00  0.00    +0.000 C 
ATOM      8  N   UNL     1       1.259   8.019  20.533  0.00  0.00    +0.000 N 
ATOM      9  C   UNL     1       1.854   8.114  19.277  0.00  0.00    +0.000 C 
ATOM     10  O   UNL     1       2.001   9.058  18.522  0.00  0.00    +0.000 OA
ENDROOT
BRANCH   8  11
ATOM     11  C   UNL     1       0.666   9.089  21.252  0.00  0.00    +0.000 A 
ATOM     12  C   UNL     1       0.180   8.913  22.548  0.00  0.00    +0.000 A 
ATOM     13  C   UNL     1      -0.432   9.958  23.236  0.00  0.00    +0.000 A 
ATOM     14  C   UNL     1      -0.587  11.201  22.626  0.00  0.00    +0.000 A 
ATOM     15  C   UNL     1      -0.083  11.433  21.343  0.00  0.00    +0.000 A 
ATOM     16  C   UNL     1       0.552  10.364  20.680  0.00  0.00    +0.000 A 
BRANCH  15  17
ATOM     17  C   UNL     1      -0.183  12.751  20.684  0.00  0.00    +0.000 A 
ATOM     18  C   UNL     1      -1.280  13.418  20.136  0.00  0.00    +0.000 A 
ATOM     19  C   UNL     1      -0.757  14.542  19.480  0.00  0.00    +0.000 A 
ATOM     20  N   UNL     1       0.566  14.620  19.587  0.00  0.00    +0.000 NA
ATOM     21  N   UNL     1       0.897  13.547  20.335  0.00  0.00    +0.000 N 
ATOM     22  C   UNL     1       2.298  13.337  20.621  0.00  0.00    +0.000 C 
BRANCH  18  23
ATOM     23  C   UNL     1      -2.712  13.025  20.233  0.00  0.00    +0.000 A 
ATOM     24  N   UNL     1      -3.376  12.381  19.291  0.00  0.00    +0.000 NA
ATOM     25  N   UNL     1      -4.665  12.173  19.724  0.00  0.00    +0.000 NA
ATOM     26  C   UNL     1      -4.774  12.726  20.908  0.00  0.00    +0.000 A 
ATOM     27  N   UNL     1      -3.584  13.288  21.260  0.00  0.00    +0.000 N 
ATOM     28  C   UNL     1      -3.388  14.182  22.369  0.00  0.00    +0.000 C 
ENDBRANCH  18  23
ENDBRANCH  15  17
ENDBRANCH   8  11
BRANCH   5  29
ATOM     29  C   UNL     1       2.031   3.546  20.932  0.00  0.00    +0.000 C 
ATOM     30  F   UNL     1       2.415   3.859  22.201  0.00  0.00    +0.000 F 
ATOM     31  F   UNL     1       0.680   3.371  20.993  0.00  0.00    +0.000 F 
ATOM     32  F   UNL     1       2.553   2.317  20.675  0.00  0.00    +0.000 F 
ENDBRANCH   5  29
BRANCH   1  33
ATOM     33  C   UNL     1       4.451   4.699  16.614  0.00  0.00    +0.000 C 
BRANCH  33  37
ATOM     34  C   UNL     1       7.677   7.557  17.651  0.00  0.00    +0.000 C 
ATOM     35  C   UNL     1       6.908   6.510  16.859  0.00  0.00    +0.000 C 
ATOM     36  C   UNL     1       6.571   5.288  17.739  0.00  0.00    +0.000 C 
ATOM     37  N   UNL     1       5.796   4.257  17.013  0.00  0.00    +0.000 NA
ATOM     38  C   UNL     1       6.587   3.896  15.808  0.00  0.00    +0.000 C 
ATOM     39  C   UNL     1       7.015   5.108  14.955  0.00  0.00    +0.000 C 
ATOM     40  O   UNL     1       7.700   6.102  15.733  0.00  0.00    +0.000 OA
ENDBRANCH  33  37
ENDBRANCH   1  33
TORSDOF 6
ENDMDL
MODEL 5
REMARK VINA RESULT:     -10.2      1.183      3.257
REMARK  Name = 
REMARK  9 active torsions:
REMARK  status: ('A' for Active; 'I' for Inactive)
REMARK    1  A    between atoms: C_1  and  C_2
REMARK    2  A    between atoms: N_4  and  C_5
REMARK    3  A    between atoms: C_5  and  C_6
REMARK    4  A    between atoms: C_10  and  C_11
REMARK    5  A    between atoms: N_17  and  C_18
REMARK    6  A    between atoms: C_22  and  C_23
REMARK    7  A    between atoms: C_24  and  C_25
REMARK    8  A    between atoms: N_29  and  C_30
REMARK    9  A    between atoms: N_33  and  C_34
REMARK                            x       y       z     vdW  Elec       q    Type
REMARK                         _______ _______ _______ _____ _____    ______ ____
ROOT
ATOM      1  C   UNL     1       3.589   4.908  17.592  0.00  0.00    +0.000 A 
ATOM      2  C   UNL     1       3.167   6.237  17.544  0.00  0.00    +0.000 A 
ATOM      3  C   UNL     1       2.509   6.742  18.649  0.00  0.00    +0.000 A 
ATOM      4  C   UNL     1       2.208   5.982  19.776  0.00  0.00    +0.000 A 
ATOM      5  C   UNL     1       2.530   4.631  19.817  0.00  0.00    +0.000 A 
ATOM      6  C   UNL     1       3.251   4.114  18.718  0.00  0.00    +0.000 A 
ATOM      7  C   UNL     1       1.578   6.867  20.805  0.00  0.00    +0.000 C 
ATOM      8  N   UNL     1       1.499   8.161  20.137  0.00  0.00    +0.000 N 
ATOM      9  C   UNL     1       2.054   8.111  18.860  0.00  0.00    +0.000 C 
ATOM     10  O   UNL     1       2.204   8.971  18.011  0.00  0.00    +0.000 OA
ENDROOT
BRANCH   8  11
ATOM     11  C   UNL     1       0.966   9.316  20.765  0.00  0.00    +0.000 A 
ATOM     12  C   UNL     1       0.455   9.269  22.062  0.00  0.00    +0.000 A 
ATOM     13  C   UNL     1      -0.098  10.398  22.661  0.00  0.00    +0.000 A 
ATOM     14  C   UNL     1      -0.169  11.599  21.958  0.00  0.00    +0.000 A 
ATOM     15  C   UNL     1       0.363  11.702  20.669  0.00  0.00    +0.000 A 
ATOM     16  C   UNL     1       0.937  10.550  20.098  0.00  0.00    +0.000 A 
BRANCH  15  17
ATOM     17  C   UNL     1       0.352  12.970  19.911  0.00  0.00    +0.000 A 
ATOM     18  C   UNL     1       1.143  14.113  20.032  0.00  0.00    +0.000 A 
ATOM     19  C   UNL     1       0.565  15.071  19.185  0.00  0.00    +0.000 A 
ATOM     20  N   UNL     1      -0.508  14.605  18.554  0.00  0.00    +0.000 NA
ATOM     21  N   UNL     1      -0.613  13.330  18.983  0.00  0.00    +0.000 N 
ATOM     22  C   UNL     1      -1.715  12.543  18.480  0.00  0.00    +0.000 C 
BRANCH  18  23
ATOM     23  C   UNL     1       2.356  14.283  20.877  0.00  0.00    +0.000 A 
ATOM     24  N   UNL     1       2.348  14.330  22.196  0.00  0.00    +0.000 NA
ATOM     25  N   UNL     1       3.641  14.479  22.640  0.00  0.00    +0.000 NA
ATOM     26  C   UNL     1       4.411  14.557  21.582  0.00  0.00    +0.000 A 
ATOM     27  N   UNL     1       3.651  14.458  20.456  0.00  0.00    +0.000 N 
ATOM     28  C   UNL     1       4.109  14.738  19.122  0.00  0.00    +0.000 C 
ENDBRANCH  18  23
ENDBRANCH  15  17
ENDBRANCH   8  11
BRANCH   5  29
ATOM     29  C   UNL     1       2.142   3.725  20.953  0.00  0.00    +0.000 C 
ATOM     30  F   UNL     1       2.727   2.495  20.907  0.00  0.00    +0.000 F 
ATOM     31  F   UNL     1       2.486   4.246  22.166  0.00  0.00    +0.000 F 
ATOM     32  F   UNL     1       0.802   3.499  21.015  0.00  0.00    +0.000 F 
ENDBRANCH   5  29
BRANCH   1  33
ATOM     33  C   UNL     1       4.446   4.362  16.469  0.00  0.00    +0.000 C 
BRANCH  33  37
ATOM     34  C   UNL     1       7.491   7.352  17.673  0.00  0.00    +0.000 C 
ATOM     35  C   UNL     1       6.789   6.304  16.823  0.00  0.00    +0.000 C 
ATOM     36  C   UNL     1       6.523   5.020  17.637  0.00  0.00    +0.000 C 
ATOM     37  N   UNL     1       5.815   3.983  16.854  0.00  0.00    +0.000 NA
ATOM     38  C   UNL     1       6.630   3.732  15.637  0.00  0.00    +0.000 C 
ATOM     39  C   UNL     1       6.987   5.010  14.850  0.00  0.00    +0.000 C 
ATOM     40  O   UNL     1       7.608   6.002  15.683  0.00  0.00    +0.000 OA
ENDBRANCH  33  37
ENDBRANCH   1  33
TORSDOF 6
ENDMDL
MODEL 6
REMARK VINA RESULT:     -10.0      1.172      3.049
REMARK  Name = 
REMARK  9 active torsions:
REMARK  status: ('A' for Active; 'I' for Inactive)
REMARK    1  A    between atoms: C_1  and  C_2
REMARK    2  A    between atoms: N_4  and  C_5
REMARK    3  A    between atoms: C_5  and  C_6
REMARK    4  A    between atoms: C_10  and  C_11
REMARK    5  A    between atoms: N_17  and  C_18
REMARK    6  A    between atoms: C_22  and  C_23
REMARK    7  A    between atoms: C_24  and  C_25
REMARK    8  A    between atoms: N_29  and  C_30
REMARK    9  A    between atoms: N_33  and  C_34
REMARK                            x       y       z     vdW  Elec       q    Type
REMARK                         _______ _______ _______ _____ _____    ______ ____
ROOT
ATOM      1  C   UNL     1       3.622   4.888  17.599  0.00  0.00    +0.000 A 
ATOM      2  C   UNL     1       3.224   6.225  17.576  0.00  0.00    +0.000 A 
ATOM      3  C   UNL     1       2.536   6.709  18.672  0.00  0.00    +0.000 A 
ATOM      4  C   UNL     1       2.183   5.922  19.765  0.00  0.00    +0.000 A 
ATOM      5  C   UNL     1       2.481   4.565  19.776  0.00  0.00    +0.000 A 
ATOM      6  C   UNL     1       3.231   4.068  18.688  0.00  0.00    +0.000 A 
ATOM      7  C   UNL     1       1.531   6.787  20.797  0.00  0.00    +0.000 C 
ATOM      8  N   UNL     1       1.497   8.101  20.166  0.00  0.00    +0.000 N 
ATOM      9  C   UNL     1       2.096   8.079  18.908  0.00  0.00    +0.000 C 
ATOM     10  O   UNL     1       2.290   8.960  18.091  0.00  0.00    +0.000 OA
ENDROOT
BRANCH   8  11
ATOM     11  C   UNL     1       0.961   9.247  20.809  0.00  0.00    +0.000 A 
ATOM     12  C   UNL     1       0.464   9.184  22.111  0.00  0.00    +0.000 A 
ATOM     13  C   UNL     1      -0.092  10.304  22.725  0.00  0.00    +0.000 A 
ATOM     14  C   UNL     1      -0.180  11.509  22.033  0.00  0.00    +0.000 A 
ATOM     15  C   UNL     1       0.337  11.628  20.739  0.00  0.00    +0.000 A 
ATOM     16  C   UNL     1       0.916  10.485  20.152  0.00  0.00    +0.000 A 
BRANCH  15  17
ATOM     17  C   UNL     1       0.308  12.902  19.993  0.00  0.00    +0.000 A 
ATOM     18  C   UNL     1       1.014  14.091  20.186  0.00  0.00    +0.000 A 
ATOM     19  C   UNL     1       0.447  15.021  19.302  0.00  0.00    +0.000 A 
ATOM     20  N   UNL     1      -0.539  14.497  18.581  0.00  0.00    +0.000 NA
ATOM     21  N   UNL     1      -0.598  13.213  18.990  0.00  0.00    +0.000 N 
ATOM     22  C   UNL     1      -1.604  12.365  18.393  0.00  0.00    +0.000 C 
BRANCH  18  23
ATOM     23  C   UNL     1       2.141  14.325  21.129  0.00  0.00    +0.000 A 
ATOM     24  N   UNL     1       3.167  13.509  21.285  0.00  0.00    +0.000 NA
ATOM     25  N   UNL     1       4.018  14.047  22.222  0.00  0.00    +0.000 NA
ATOM     26  C   UNL     1       3.478  15.163  22.647  0.00  0.00    +0.000 A 
ATOM     27  N   UNL     1       2.294  15.370  22.006  0.00  0.00    +0.000 N 
ATOM     28  C   UNL     1       1.313  16.353  22.378  0.00  0.00    +0.000 C 
ENDBRANCH  18  23
ENDBRANCH  15  17
ENDBRANCH   8  11
BRANCH   5  29
ATOM     29  C   UNL     1       2.038   3.632  20.871  0.00  0.00    +0.000 C 
ATOM     30  F   UNL     1       2.447   4.004  22.116  0.00  0.00    +0.000 F 
ATOM     31  F   UNL     1       0.679   3.539  20.946  0.00  0.00    +0.000 F 
ATOM     32  F   UNL     1       2.486   2.360  20.695  0.00  0.00    +0.000 F 
ENDBRANCH   5  29
BRANCH   1  33
ATOM     33  C   UNL     1       4.510   4.361  16.491  0.00  0.00    +0.000 C 
BRANCH  33  37
ATOM     34  C   UNL     1       7.505   7.441  17.586  0.00  0.00    +0.000 C 
ATOM     35  C   UNL     1       6.822   6.349  16.776  0.00  0.00    +0.000 C 
ATOM     36  C   UNL     1       6.571   5.095  17.641  0.00  0.00    +0.000 C 
ATOM     37  N   UNL     1       5.882   4.017  16.898  0.00  0.00    +0.000 NA
ATOM     38  C   UNL     1       6.707   3.729  15.696  0.00  0.00    +0.000 C 
ATOM     39  C   UNL     1       7.050   4.979  14.859  0.00  0.00    +0.000 C 
ATOM     40  O   UNL     1       7.652   6.013  15.653  0.00  0.00    +0.000 OA
ENDBRANCH  33  37
ENDBRANCH   1  33
TORSDOF 6
ENDMDL
MODEL 7
REMARK VINA RESULT:      -9.9      0.864      1.764
REMARK  Name = 
REMARK  9 active torsions:
REMARK  status: ('A' for Active; 'I' for Inactive)
REMARK    1  A    between atoms: C_1  and  C_2
REMARK    2  A    between atoms: N_4  and  C_5
REMARK    3  A    between atoms: C_5  and  C_6
REMARK    4  A    between atoms: C_10  and  C_11
REMARK    5  A    between atoms: N_17  and  C_18
REMARK    6  A    between atoms: C_22  and  C_23
REMARK    7  A    between atoms: C_24  and  C_25
REMARK    8  A    between atoms: N_29  and  C_30
REMARK    9  A    between atoms: N_33  and  C_34
REMARK                            x       y       z     vdW  Elec       q    Type
REMARK                         _______ _______ _______ _____ _____    ______ ____
ROOT
ATOM      1  C   UNL     1       3.545   5.047  17.874  0.00  0.00    +0.000 A 
ATOM      2  C   UNL     1       3.072   6.359  17.902  0.00  0.00    +0.000 A 
ATOM      3  C   UNL     1       2.361   6.762  19.015  0.00  0.00    +0.000 A 
ATOM      4  C   UNL     1       2.056   5.916  20.079  0.00  0.00    +0.000 A 
ATOM      5  C   UNL     1       2.432   4.579  20.040  0.00  0.00    +0.000 A 
ATOM      6  C   UNL     1       3.206   4.166  18.933  0.00  0.00    +0.000 A 
ATOM      7  C   UNL     1       1.360   6.704  21.143  0.00  0.00    +0.000 C 
ATOM      8  N   UNL     1       1.249   8.036  20.561  0.00  0.00    +0.000 N 
ATOM      9  C   UNL     1       1.843   8.095  19.303  0.00  0.00    +0.000 C 
ATOM     10  O   UNL     1       1.984   9.015  18.518  0.00  0.00    +0.000 OA
ENDROOT
BRANCH   8  11
ATOM     11  C   UNL     1       0.650   9.125  21.246  0.00  0.00    +0.000 A 
ATOM     12  C   UNL     1       0.146   8.981  22.539  0.00  0.00    +0.000 A 
ATOM     13  C   UNL     1      -0.472  10.044  23.195  0.00  0.00    +0.000 A 
ATOM     14  C   UNL     1      -0.614  11.273  22.554  0.00  0.00    +0.000 A 
ATOM     15  C   UNL     1      -0.093  11.473  21.272  0.00  0.00    +0.000 A 
ATOM     16  C   UNL     1       0.548  10.387  20.643  0.00  0.00    +0.000 A 
BRANCH  15  17
ATOM     17  C   UNL     1      -0.179  12.774  20.580  0.00  0.00    +0.000 A 
ATOM     18  C   UNL     1      -1.178  13.314  19.768  0.00  0.00    +0.000 A 
ATOM     19  C   UNL     1      -0.643  14.496  19.235  0.00  0.00    +0.000 A 
ATOM     20  N   UNL     1       0.595  14.727  19.660  0.00  0.00    +0.000 NA
ATOM     21  N   UNL     1       0.855  13.694  20.488  0.00  0.00    +0.000 N 
ATOM     22  C   UNL     1       2.158  13.646  21.111  0.00  0.00    +0.000 C 
BRANCH  18  23
ATOM     23  C   UNL     1      -2.536  12.756  19.522  0.00  0.00    +0.000 A 
ATOM     24  N   UNL     1      -3.583  12.967  20.298  0.00  0.00    +0.000 NA
ATOM     25  N   UNL     1      -4.668  12.315  19.761  0.00  0.00    +0.000 NA
ATOM     26  C   UNL     1      -4.255  11.688  18.686  0.00  0.00    +0.000 A 
ATOM     27  N   UNL     1      -2.925  11.919  18.507  0.00  0.00    +0.000 N 
ATOM     28  C   UNL     1      -2.081  11.212  17.581  0.00  0.00    +0.000 C 
ENDBRANCH  18  23
ENDBRANCH  15  17
ENDBRANCH   8  11
BRANCH   5  29
ATOM     29  C   UNL     1       2.047   3.583  21.100  0.00  0.00    +0.000 C 
ATOM     30  F   UNL     1       0.711   3.321  21.156  0.00  0.00    +0.000 F 
ATOM     31  F   UNL     1       2.647   2.373  20.909  0.00  0.00    +0.000 F 
ATOM     32  F   UNL     1       2.403   3.979  22.351  0.00  0.00    +0.000 F 
ENDBRANCH   5  29
BRANCH   1  33
ATOM     33  C   UNL     1       4.459   4.613  16.747  0.00  0.00    +0.000 C 
BRANCH  33  37
ATOM     34  C   UNL     1       6.834   3.983  13.057  0.00  0.00    +0.000 C 
ATOM     35  C   UNL     1       6.535   4.239  14.527  0.00  0.00    +0.000 C 
ATOM     36  C   UNL     1       5.567   5.430  14.695  0.00  0.00    +0.000 C 
ATOM     37  N   UNL     1       5.227   5.694  16.110  0.00  0.00    +0.000 NA
ATOM     38  C   UNL     1       6.511   5.892  16.831  0.00  0.00    +0.000 C 
ATOM     39  C   UNL     1       7.534   4.758  16.609  0.00  0.00    +0.000 C 
ATOM     40  O   UNL     1       7.766   4.505  15.215  0.00  0.00    +0.000 OA
ENDBRANCH  33  37
ENDBRANCH   1  33
TORSDOF 6
ENDMDL
MODEL 8
REMARK VINA RESULT:      -9.9      0.785      1.522
REMARK  Name = 
REMARK  9 active torsions:
REMARK  status: ('A' for Active; 'I' for Inactive)
REMARK    1  A    between atoms: C_1  and  C_2
REMARK    2  A    between atoms: N_4  and  C_5
REMARK    3  A    between atoms: C_5  and  C_6
REMARK    4  A    between atoms: C_10  and  C_11
REMARK    5  A    between atoms: N_17  and  C_18
REMARK    6  A    between atoms: C_22  and  C_23
REMARK    7  A    between atoms: C_24  and  C_25
REMARK    8  A    between atoms: N_29  and  C_30
REMARK    9  A    between atoms: N_33  and  C_34
REMARK                            x       y       z     vdW  Elec       q    Type
REMARK                         _______ _______ _______ _____ _____    ______ ____
ROOT
ATOM      1  C   UNL     1       3.624   4.953  17.907  0.00  0.00    +0.000 A 
ATOM      2  C   UNL     1       3.178   6.275  17.924  0.00  0.00    +0.000 A 
ATOM      3  C   UNL     1       2.427   6.685  19.008  0.00  0.00    +0.000 A 
ATOM      4  C   UNL     1       2.058   5.839  20.051  0.00  0.00    +0.000 A 
ATOM      5  C   UNL     1       2.406   4.495  20.018  0.00  0.00    +0.000 A 
ATOM      6  C   UNL     1       3.219   4.072  18.944  0.00  0.00    +0.000 A 
ATOM      7  C   UNL     1       1.332   6.635  21.089  0.00  0.00    +0.000 C 
ATOM      8  N   UNL     1       1.276   7.974  20.513  0.00  0.00    +0.000 N 
ATOM      9  C   UNL     1       1.927   8.027  19.283  0.00  0.00    +0.000 C 
ATOM     10  O   UNL     1       2.123   8.950  18.512  0.00  0.00    +0.000 OA
ENDROOT
BRANCH   8  11
ATOM     11  C   UNL     1       0.671   9.070  21.179  0.00  0.00    +0.000 A 
ATOM     12  C   UNL     1       0.233   8.967  22.500  0.00  0.00    +0.000 A 
ATOM     13  C   UNL     1      -0.391  10.036  23.138  0.00  0.00    +0.000 A 
ATOM     14  C   UNL     1      -0.607  11.230  22.454  0.00  0.00    +0.000 A 
ATOM     15  C   UNL     1      -0.153  11.391  21.141  0.00  0.00    +0.000 A 
ATOM     16  C   UNL     1       0.496  10.300  20.529  0.00  0.00    +0.000 A 
BRANCH  15  17
ATOM     17  C   UNL     1      -0.318  12.657  20.400  0.00  0.00    +0.000 A 
ATOM     18  C   UNL     1      -1.080  12.964  19.272  0.00  0.00    +0.000 A 
ATOM     19  C   UNL     1      -0.706  14.263  18.897  0.00  0.00    +0.000 A 
ATOM     20  N   UNL     1       0.215  14.777  19.706  0.00  0.00    +0.000 NA
ATOM     21  N   UNL     1       0.423  13.808  20.621  0.00  0.00    +0.000 N 
ATOM     22  C   UNL     1       1.404  14.061  21.652  0.00  0.00    +0.000 C 
BRANCH  18  23
ATOM     23  C   UNL     1      -2.090  12.096  18.605  0.00  0.00    +0.000 A 
ATOM     24  N   UNL     1      -1.852  11.358  17.537  0.00  0.00    +0.000 NA
ATOM     25  N   UNL     1      -3.001  10.680  17.205  0.00  0.00    +0.000 NA
ATOM     26  C   UNL     1      -3.930  11.044  18.056  0.00  0.00    +0.000 A 
ATOM     27  N   UNL     1      -3.412  11.943  18.938  0.00  0.00    +0.000 N 
ATOM     28  C   UNL     1      -4.182  12.738  19.856  0.00  0.00    +0.000 C 
ENDBRANCH  18  23
ENDBRANCH  15  17
ENDBRANCH   8  11
BRANCH   5  29
ATOM     29  C   UNL     1       1.952   3.500  21.052  0.00  0.00    +0.000 C 
ATOM     30  F   UNL     1       0.607   3.284  21.061  0.00  0.00    +0.000 F 
ATOM     31  F   UNL     1       2.517   2.272  20.866  0.00  0.00    +0.000 F 
ATOM     32  F   UNL     1       2.280   3.869  22.319  0.00  0.00    +0.000 F 
ENDBRANCH   5  29
BRANCH   1  33
ATOM     33  C   UNL     1       4.577   4.506  16.818  0.00  0.00    +0.000 C 
BRANCH  33  37
ATOM     34  C   UNL     1       6.562   3.798  12.918  0.00  0.00    +0.000 C 
ATOM     35  C   UNL     1       6.411   4.125  14.396  0.00  0.00    +0.000 C 
ATOM     36  C   UNL     1       5.388   5.261  14.610  0.00  0.00    +0.000 C 
ATOM     37  N   UNL     1       5.191   5.591  16.038  0.00  0.00    +0.000 NA
ATOM     38  C   UNL     1       6.531   5.915  16.593  0.00  0.00    +0.000 C 
ATOM     39  C   UNL     1       7.599   4.836  16.316  0.00  0.00    +0.000 C 
ATOM     40  O   UNL     1       7.691   4.512  14.920  0.00  0.00    +0.000 OA
ENDBRANCH  33  37
ENDBRANCH   1  33
TORSDOF 6
ENDMDL
MODEL 9
REMARK VINA RESULT:      -9.7      1.272      3.312
REMARK  Name = 
REMARK  9 active torsions:
REMARK  status: ('A' for Active; 'I' for Inactive)
REMARK    1  A    between atoms: C_1  and  C_2
REMARK    2  A    between atoms: N_4  and  C_5
REMARK    3  A    between atoms: C_5  and  C_6
REMARK    4  A    between atoms: C_10  and  C_11
REMARK    5  A    between atoms: N_17  and  C_18
REMARK    6  A    between atoms: C_22  and  C_23
REMARK    7  A    between atoms: C_24  and  C_25
REMARK    8  A    between atoms: N_29  and  C_30
REMARK    9  A    between atoms: N_33  and  C_34
REMARK                            x       y       z     vdW  Elec       q    Type
REMARK                         _______ _______ _______ _____ _____    ______ ____
ROOT
ATOM      1  C   UNL     1       3.629   4.988  17.889  0.00  0.00    +0.000 A 
ATOM      2  C   UNL     1       3.204   6.316  17.929  0.00  0.00    +0.000 A 
ATOM      3  C   UNL     1       2.448   6.715  19.014  0.00  0.00    +0.000 A 
ATOM      4  C   UNL     1       2.054   5.854  20.034  0.00  0.00    +0.000 A 
ATOM      5  C   UNL     1       2.380   4.505  19.976  0.00  0.00    +0.000 A 
ATOM      6  C   UNL     1       3.199   4.092  18.902  0.00  0.00    +0.000 A 
ATOM      7  C   UNL     1       1.329   6.639  21.081  0.00  0.00    +0.000 C 
ATOM      8  N   UNL     1       1.300   7.990  20.533  0.00  0.00    +0.000 N 
ATOM      9  C   UNL     1       1.966   8.059  19.311  0.00  0.00    +0.000 C 
ATOM     10  O   UNL     1       2.184   8.995  18.563  0.00  0.00    +0.000 OA
ENDROOT
BRANCH   8  11
ATOM     11  C   UNL     1       0.706   9.082  21.216  0.00  0.00    +0.000 A 
ATOM     12  C   UNL     1       0.321   8.981  22.553  0.00  0.00    +0.000 A 
ATOM     13  C   UNL     1      -0.294  10.045  23.209  0.00  0.00    +0.000 A 
ATOM     14  C   UNL     1      -0.554  11.231  22.527  0.00  0.00    +0.000 A 
ATOM     15  C   UNL     1      -0.153  11.390  21.196  0.00  0.00    +0.000 A 
ATOM     16  C   UNL     1       0.487  10.305  20.566  0.00  0.00    +0.000 A 
BRANCH  15  17
ATOM     17  C   UNL     1      -0.366  12.649  20.455  0.00  0.00    +0.000 A 
ATOM     18  C   UNL     1       0.402  13.813  20.390  0.00  0.00    +0.000 A 
ATOM     19  C   UNL     1      -0.375  14.747  19.690  0.00  0.00    +0.000 A 
ATOM     20  N   UNL     1      -1.550  14.249  19.317  0.00  0.00    +0.000 NA
ATOM     21  N   UNL     1      -1.523  12.977  19.764  0.00  0.00    +0.000 N 
ATOM     22  C   UNL     1      -2.689  12.158  19.525  0.00  0.00    +0.000 C 
BRANCH  18  23
ATOM     23  C   UNL     1       1.769  14.020  20.941  0.00  0.00    +0.000 A 
ATOM     24  N   UNL     1       2.027  14.383  22.184  0.00  0.00    +0.000 NA
ATOM     25  N   UNL     1       3.390  14.464  22.346  0.00  0.00    +0.000 NA
ATOM     26  C   UNL     1       3.939  14.185  21.188  0.00  0.00    +0.000 A 
ATOM     27  N   UNL     1       2.965  13.919  20.275  0.00  0.00    +0.000 N 
ATOM     28  C   UNL     1       3.170  13.810  18.855  0.00  0.00    +0.000 C 
ENDBRANCH  18  23
ENDBRANCH  15  17
ENDBRANCH   8  11
BRANCH   5  29
ATOM     29  C   UNL     1       1.900   3.496  20.984  0.00  0.00    +0.000 C 
ATOM     30  F   UNL     1       2.275   3.769  22.265  0.00  0.00    +0.000 F 
ATOM     31  F   UNL     1       0.539   3.409  21.014  0.00  0.00    +0.000 F 
ATOM     32  F   UNL     1       2.345   2.237  20.725  0.00  0.00    +0.000 F 
ENDBRANCH   5  29
BRANCH   1  33
ATOM     33  C   UNL     1       4.586   4.548  16.801  0.00  0.00    +0.000 C 
BRANCH  33  37
ATOM     34  C   UNL     1       6.548   3.834  12.890  0.00  0.00    +0.000 C 
ATOM     35  C   UNL     1       6.405   4.178  14.365  0.00  0.00    +0.000 C 
ATOM     36  C   UNL     1       5.358   5.292  14.574  0.00  0.00    +0.000 C 
ATOM     37  N   UNL     1       5.168   5.637  16.000  0.00  0.00    +0.000 NA
ATOM     38  C   UNL     1       6.506   5.999  16.537  0.00  0.00    +0.000 C 
ATOM     39  C   UNL     1       7.595   4.941  16.263  0.00  0.00    +0.000 C 
ATOM     40  O   UNL     1       7.680   4.600  14.871  0.00  0.00    +0.000 OA
ENDBRANCH  33  37
ENDBRANCH   1  33
TORSDOF 6
ENDMDL
