MODEL 1
REMARK VINA RESULT:      -9.9      0.000      0.000
REMARK  Name = 
REMARK  10 active torsions:
REMARK  status: ('A' for Active; 'I' for Inactive)
REMARK    1  A    between atoms: C_1  and  C_2
REMARK    2  A    between atoms: C_6  and  C_7
REMARK    3  A    between atoms: C_7  and  C_8
REMARK    4  A    between atoms: C_8  and  C_9
REMARK    5  A    between atoms: C_8  and  C_10
REMARK    6  A    between atoms: C_14  and  N_15
REMARK    7  A    between atoms: C_20  and  C_21
REMARK    8  A    between atoms: C_25  and  O_26
REMARK    9  A    between atoms: C_28  and  C_29
REMARK   10  A    between atoms: C_31  and  C_32
REMARK                            x       y       z     vdW  Elec       q    Type
REMARK                         _______ _______ _______ _____ _____    ______ ____
ROOT
ATOM      1  N   UNL     1       2.213   7.362  19.550  0.00  0.00    +0.000 N 
ATOM      2  C   UNL     1       1.505   7.778  20.739  0.00  0.00    +0.000 C 
ATOM      3  C   UNL     1       0.943   9.097  20.396  0.00  0.00    +0.000 A 
ATOM      4  C   UNL     1       1.302   9.447  19.102  0.00  0.00    +0.000 A 
ATOM      5  C   UNL     1       0.905  10.662  18.553  0.00  0.00    +0.000 A 
ATOM      6  C   UNL     1       0.147  11.536  19.356  0.00  0.00    +0.000 A 
ATOM      7  C   UNL     1      -0.231  11.124  20.662  0.00  0.00    +0.000 A 
ATOM      8  C   UNL     1       0.168   9.905  21.211  0.00  0.00    +0.000 A 
ATOM      9  C   UNL     1       2.134   8.336  18.548  0.00  0.00    +0.000 C 
ATOM     10  O   UNL     1       2.617   8.366  17.432  0.00  0.00    +0.000 OA
ENDROOT
BRANCH   6  11
ATOM     11  C   UNL     1      -0.319  12.921  19.011  0.00  0.00    +0.000 C 
ATOM     12  O   UNL     1      -1.459  12.993  18.524  0.00  0.00    +0.000 OA
ATOM     13  N   UNL     1       0.386  14.075  19.295  0.00  0.00    +0.000 N 
ATOM     14  C   UNL     1      -0.292  15.357  19.152  0.00  0.00    +0.000 C 
ATOM     15  C   UNL     1       0.762  16.288  18.577  0.00  0.00    +0.000 C 
ATOM     16  C   UNL     1       2.067  15.765  19.164  0.00  0.00    +0.000 C 
ATOM     17  C   UNL     1       1.819  14.280  19.490  0.00  0.00    +0.000 C 
ATOM     18  C   UNL     1       2.293  13.985  20.911  0.00  0.00    +0.000 C 
BRANCH  15  19
ATOM     19  O   UNL     1       0.556  17.647  18.934  0.00  0.00    +0.000 OA
ATOM     20  H   UNL     1       0.333  17.687  19.880  0.00  0.00    +0.000 HD
ENDBRANCH  15  19
ENDBRANCH   6  11
BRANCH   1  25
ATOM     21  C   UNL     1       5.049   4.959  19.119  0.00  0.00    +0.000 A 
ATOM     22  C   UNL     1       4.448   3.750  19.447  0.00  0.00    +0.000 A 
ATOM     23  C   UNL     1       3.101   3.724  19.848  0.00  0.00    +0.000 A 
ATOM     24  C   UNL     1       2.324   4.900  19.902  0.00  0.00    +0.000 A 
ATOM     25  C   UNL     1       2.904   6.120  19.583  0.00  0.00    +0.000 A 
ATOM     26  C   UNL     1       4.269   6.117  19.230  0.00  0.00    +0.000 A 
BRANCH  21  27
ATOM     27  C   UNL     1       6.441   5.138  18.528  0.00  0.00    +0.000 C 
ATOM     28  C   UNL     1       7.386   5.557  19.673  0.00  0.00    +0.000 C 
BRANCH  27  29
ATOM     29  C   UNL     1       6.622   6.088  17.339  0.00  0.00    +0.000 C 
BRANCH  29  35
ATOM     30  C   UNL     1       4.447   3.955  15.922  0.00  0.00    +0.000 C 
ATOM     31  C   UNL     1       5.710   4.523  15.391  0.00  0.00    +0.000 A 
ATOM     32  C   UNL     1       6.279   4.234  14.167  0.00  0.00    +0.000 A 
ATOM     33  N   UNL     1       7.425   4.959  14.091  0.00  0.00    +0.000 N 
ATOM     34  N   UNL     1       7.664   5.695  15.180  0.00  0.00    +0.000 NA
ATOM     35  C   UNL     1       6.624   5.447  15.982  0.00  0.00    +0.000 A 
ATOM     36  H   UNL     1       8.100   4.989  13.333  0.00  0.00    +0.000 HD
ENDBRANCH  29  35
ENDBRANCH  27  29
ENDBRANCH  21  27
ENDBRANCH   1  25
BRANCH   8  37
ATOM     37  C   UNL     1      -0.219   9.519  22.614  0.00  0.00    +0.000 C 
ATOM     38  F   UNL     1      -0.966  10.465  23.254  0.00  0.00    +0.000 F 
ATOM     39  F   UNL     1      -0.963   8.382  22.656  0.00  0.00    +0.000 F 
ATOM     40  F   UNL     1       0.860   9.306  23.413  0.00  0.00    +0.000 F 
ENDBRANCH   8  37
TORSDOF 7
ENDMDL
MODEL 2
REMARK VINA RESULT:      -9.9      1.071      1.472
REMARK  Name = 
REMARK  10 active torsions:
REMARK  status: ('A' for Active; 'I' for Inactive)
REMARK    1  A    between atoms: C_1  and  C_2
REMARK    2  A    between atoms: C_6  and  C_7
REMARK    3  A    between atoms: C_7  and  C_8
REMARK    4  A    between atoms: C_8  and  C_9
REMARK    5  A    between atoms: C_8  and  C_10
REMARK    6  A    between atoms: C_14  and  N_15
REMARK    7  A    between atoms: C_20  and  C_21
REMARK    8  A    between atoms: C_25  and  O_26
REMARK    9  A    between atoms: C_28  and  C_29
REMARK   10  A    between atoms: C_31  and  C_32
REMARK                            x       y       z     vdW  Elec       q    Type
REMARK                         _______ _______ _______ _____ _____    ______ ____
ROOT
ATOM      1  N   UNL     1       1.958   7.858  19.185  0.00  0.00    +0.000 N 
ATOM      2  C   UNL     1       1.380   8.100  20.486  0.00  0.00    +0.000 C 
ATOM      3  C   UNL     1       0.807   9.455  20.395  0.00  0.00    +0.000 A 
ATOM      4  C   UNL     1       1.040   9.987  19.134  0.00  0.00    +0.000 A 
ATOM      5  C   UNL     1       0.610  11.268  18.807  0.00  0.00    +0.000 A 
ATOM      6  C   UNL     1      -0.050  12.019  19.799  0.00  0.00    +0.000 A 
ATOM      7  C   UNL     1      -0.300  11.426  21.065  0.00  0.00    +0.000 A 
ATOM      8  C   UNL     1       0.132  10.139  21.392  0.00  0.00    +0.000 A 
ATOM      9  C   UNL     1       1.793   8.965  18.345  0.00  0.00    +0.000 C 
ATOM     10  O   UNL     1       2.162   9.154  17.202  0.00  0.00    +0.000 OA
ENDROOT
BRANCH   6  11
ATOM     11  C   UNL     1      -0.526  13.440  19.704  0.00  0.00    +0.000 C 
ATOM     12  O   UNL     1      -1.746  13.605  19.863  0.00  0.00    +0.000 OA
ATOM     13  N   UNL     1       0.307  14.534  19.560  0.00  0.00    +0.000 N 
ATOM     14  C   UNL     1      -0.256  15.865  19.750  0.00  0.00    +0.000 C 
ATOM     15  C   UNL     1       0.422  16.724  18.696  0.00  0.00    +0.000 C 
ATOM     16  C   UNL     1       1.803  16.096  18.550  0.00  0.00    +0.000 C 
ATOM     17  C   UNL     1       1.650  14.629  18.994  0.00  0.00    +0.000 C 
ATOM     18  C   UNL     1       2.758  14.279  19.983  0.00  0.00    +0.000 C 
BRANCH  15  19
ATOM     19  O   UNL     1       0.525  18.088  19.074  0.00  0.00    +0.000 OA
ATOM     20  H   UNL     1       1.100  18.543  18.434  0.00  0.00    +0.000 HD
ENDBRANCH  15  19
ENDBRANCH   6  11
BRANCH   1  25
ATOM     21  C   UNL     1       4.405   5.455  17.687  0.00  0.00    +0.000 A 
ATOM     22  C   UNL     1       4.028   4.259  18.284  0.00  0.00    +0.000 A 
ATOM     23  C   UNL     1       2.977   4.242  19.217  0.00  0.00    +0.000 A 
ATOM     24  C   UNL     1       2.267   5.414  19.549  0.00  0.00    +0.000 A 
ATOM     25  C   UNL     1       2.628   6.623  18.970  0.00  0.00    +0.000 A 
ATOM     26  C   UNL     1       3.717   6.612  18.073  0.00  0.00    +0.000 A 
BRANCH  21  27
ATOM     27  C   UNL     1       5.413   5.616  16.558  0.00  0.00    +0.000 C 
ATOM     28  C   UNL     1       4.974   6.824  15.706  0.00  0.00    +0.000 C 
BRANCH  27  29
ATOM     29  C   UNL     1       5.694   4.418  15.643  0.00  0.00    +0.000 C 
BRANCH  29  35
ATOM     30  C   UNL     1       5.481   3.320  12.476  0.00  0.00    +0.000 C 
ATOM     31  C   UNL     1       6.485   4.206  13.113  0.00  0.00    +0.000 A 
ATOM     32  C   UNL     1       7.601   4.740  12.501  0.00  0.00    +0.000 A 
ATOM     33  N   UNL     1       8.245   5.476  13.443  0.00  0.00    +0.000 N 
ATOM     34  N   UNL     1       7.645   5.458  14.637  0.00  0.00    +0.000 NA
ATOM     35  C   UNL     1       6.565   4.692  14.453  0.00  0.00    +0.000 A 
ATOM     36  H   UNL     1       9.106   6.007  13.346  0.00  0.00    +0.000 HD
ENDBRANCH  29  35
ENDBRANCH  27  29
ENDBRANCH  21  27
ENDBRANCH   1  25
BRANCH   8  37
ATOM     37  C   UNL     1      -0.117   9.557  22.757  0.00  0.00    +0.000 C 
ATOM     38  F   UNL     1      -0.808  10.391  23.587  0.00  0.00    +0.000 F 
ATOM     39  F   UNL     1      -0.845   8.409  22.709  0.00  0.00    +0.000 F 
ATOM     40  F   UNL     1       1.033   9.259  23.415  0.00  0.00    +0.000 F 
ENDBRANCH   8  37
TORSDOF 7
ENDMDL
MODEL 3
REMARK VINA RESULT:      -9.8      0.997      2.069
REMARK  Name = 
REMARK  10 active torsions:
REMARK  status: ('A' for Active; 'I' for Inactive)
REMARK    1  A    between atoms: C_1  and  C_2
REMARK    2  A    between atoms: C_6  and  C_7
REMARK    3  A    between atoms: C_7  and  C_8
REMARK    4  A    between atoms: C_8  and  C_9
REMARK    5  A    between atoms: C_8  and  C_10
REMARK    6  A    between atoms: C_14  and  N_15
REMARK    7  A    between atoms: C_20  and  C_21
REMARK    8  A    between atoms: C_25  and  O_26
REMARK    9  A    between atoms: C_28  and  C_29
REMARK   10  A    between atoms: C_31  and  C_32
REMARK                            x       y       z     vdW  Elec       q    Type
REMARK                         _______ _______ _______ _____ _____    ______ ____
ROOT
ATOM      1  N   UNL     1       2.081   7.546  19.422  0.00  0.00    +0.000 N 
ATOM      2  C   UNL     1       1.430   7.948  20.647  0.00  0.00    +0.000 C 
ATOM      3  C   UNL     1       0.957   9.319  20.387  0.00  0.00    +0.000 A 
ATOM      4  C   UNL     1       1.314   9.712  19.104  0.00  0.00    +0.000 A 
ATOM      5  C   UNL     1       0.994  10.979  18.628  0.00  0.00    +0.000 A 
ATOM      6  C   UNL     1       0.317  11.860  19.493  0.00  0.00    +0.000 A 
ATOM      7  C   UNL     1      -0.062  11.408  20.786  0.00  0.00    +0.000 A 
ATOM      8  C   UNL     1       0.259  10.136  21.261  0.00  0.00    +0.000 A 
ATOM      9  C   UNL     1       2.052   8.575  18.473  0.00  0.00    +0.000 C 
ATOM     10  O   UNL     1       2.513   8.631  17.349  0.00  0.00    +0.000 OA
ENDROOT
BRANCH   6  11
ATOM     11  C   UNL     1      -0.055  13.291  19.232  0.00  0.00    +0.000 C 
ATOM     12  O   UNL     1      -1.258  13.495  19.004  0.00  0.00    +0.000 OA
ATOM     13  N   UNL     1       0.820  14.356  19.333  0.00  0.00    +0.000 N 
ATOM     14  C   UNL     1       0.275  15.707  19.317  0.00  0.00    +0.000 C 
ATOM     15  C   UNL     1       1.275  16.517  18.508  0.00  0.00    +0.000 C 
ATOM     16  C   UNL     1       2.610  15.845  18.806  0.00  0.00    +0.000 C 
ATOM     17  C   UNL     1       2.275  14.396  19.207  0.00  0.00    +0.000 C 
ATOM     18  C   UNL     1       3.012  14.042  20.495  0.00  0.00    +0.000 C 
BRANCH  15  19
ATOM     19  O   UNL     1       1.306  17.888  18.875  0.00  0.00    +0.000 OA
ATOM     20  H   UNL     1       1.221  18.425  18.069  0.00  0.00    +0.000 HD
ENDBRANCH  15  19
ENDBRANCH   6  11
BRANCH   1  25
ATOM     21  C   UNL     1       4.227   4.767  18.128  0.00  0.00    +0.000 A 
ATOM     22  C   UNL     1       3.907   3.733  19.000  0.00  0.00    +0.000 A 
ATOM     23  C   UNL     1       2.999   3.958  20.049  0.00  0.00    +0.000 A 
ATOM     24  C   UNL     1       2.374   5.209  20.229  0.00  0.00    +0.000 A 
ATOM     25  C   UNL     1       2.681   6.259  19.374  0.00  0.00    +0.000 A 
ATOM     26  C   UNL     1       3.631   6.013  18.360  0.00  0.00    +0.000 A 
BRANCH  21  27
ATOM     27  C   UNL     1       5.068   4.646  16.864  0.00  0.00    +0.000 C 
ATOM     28  C   UNL     1       4.603   3.383  16.111  0.00  0.00    +0.000 C 
BRANCH  27  29
ATOM     29  C   UNL     1       6.595   4.635  16.993  0.00  0.00    +0.000 C 
BRANCH  29  35
ATOM     30  C   UNL     1       8.044   5.515  19.892  0.00  0.00    +0.000 C 
ATOM     31  C   UNL     1       7.822   6.306  18.658  0.00  0.00    +0.000 A 
ATOM     32  C   UNL     1       8.150   7.635  18.476  0.00  0.00    +0.000 A 
ATOM     33  N   UNL     1       7.766   7.959  17.214  0.00  0.00    +0.000 N 
ATOM     34  N   UNL     1       7.195   6.947  16.553  0.00  0.00    +0.000 NA
ATOM     35  C   UNL     1       7.227   5.928  17.417  0.00  0.00    +0.000 A 
ATOM     36  H   UNL     1       7.849   8.855  16.742  0.00  0.00    +0.000 HD
ENDBRANCH  29  35
ENDBRANCH  27  29
ENDBRANCH  21  27
ENDBRANCH   1  25
BRANCH   8  37
ATOM     37  C   UNL     1      -0.125   9.704  22.651  0.00  0.00    +0.000 C 
ATOM     38  F   UNL     1      -0.938   8.609  22.677  0.00  0.00    +0.000 F 
ATOM     39  F   UNL     1       0.953   9.372  23.411  0.00  0.00    +0.000 F 
ATOM     40  F   UNL     1      -0.794  10.671  23.332  0.00  0.00    +0.000 F 
ENDBRANCH   8  37
TORSDOF 7
ENDMDL
MODEL 4
REMARK VINA RESULT:      -9.8      1.316      2.319
REMARK  Name = 
REMARK  10 active torsions:
REMARK  status: ('A' for Active; 'I' for Inactive)
REMARK    1  A    between atoms: C_1  and  C_2
REMARK    2  A    between atoms: C_6  and  C_7
REMARK    3  A    between atoms: C_7  and  C_8
REMARK    4  A    between atoms: C_8  and  C_9
REMARK    5  A    between atoms: C_8  and  C_10
REMARK    6  A    between atoms: C_14  and  N_15
REMARK    7  A    between atoms: C_20  and  C_21
REMARK    8  A    between atoms: C_25  and  O_26
REMARK    9  A    between atoms: C_28  and  C_29
REMARK   10  A    between atoms: C_31  and  C_32
REMARK                            x       y       z     vdW  Elec       q    Type
REMARK                         _______ _______ _______ _____ _____    ______ ____
ROOT
ATOM      1  N   UNL     1       2.112   7.772  19.050  0.00  0.00    +0.000 N 
ATOM      2  C   UNL     1       1.521   8.017  20.345  0.00  0.00    +0.000 C 
ATOM      3  C   UNL     1       0.972   9.382  20.254  0.00  0.00    +0.000 A 
ATOM      4  C   UNL     1       1.231   9.917  18.999  0.00  0.00    +0.000 A 
ATOM      5  C   UNL     1       0.826  11.207  18.674  0.00  0.00    +0.000 A 
ATOM      6  C   UNL     1       0.166  11.963  19.661  0.00  0.00    +0.000 A 
ATOM      7  C   UNL     1      -0.111  11.367  20.921  0.00  0.00    +0.000 A 
ATOM      8  C   UNL     1       0.296  10.072  21.245  0.00  0.00    +0.000 A 
ATOM      9  C   UNL     1       1.977   8.887  18.214  0.00  0.00    +0.000 C 
ATOM     10  O   UNL     1       2.364   9.076  17.077  0.00  0.00    +0.000 OA
ENDROOT
BRANCH   6  11
ATOM     11  C   UNL     1      -0.284  13.393  19.569  0.00  0.00    +0.000 C 
ATOM     12  O   UNL     1      -1.505  13.576  19.701  0.00  0.00    +0.000 OA
ATOM     13  N   UNL     1       0.569  14.474  19.454  0.00  0.00    +0.000 N 
ATOM     14  C   UNL     1       0.023  15.812  19.644  0.00  0.00    +0.000 C 
ATOM     15  C   UNL     1       0.740  16.669  18.613  0.00  0.00    +0.000 C 
ATOM     16  C   UNL     1       2.113  16.020  18.493  0.00  0.00    +0.000 C 
ATOM     17  C   UNL     1       1.926  14.552  18.921  0.00  0.00    +0.000 C 
ATOM     18  C   UNL     1       3.005  14.175  19.932  0.00  0.00    +0.000 C 
BRANCH  15  19
ATOM     19  O   UNL     1       0.856  18.029  19.006  0.00  0.00    +0.000 OA
ATOM     20  H   UNL     1       1.778  18.310  18.876  0.00  0.00    +0.000 HD
ENDBRANCH  15  19
ENDBRANCH   6  11
BRANCH   1  25
ATOM     21  C   UNL     1       4.417   5.294  17.453  0.00  0.00    +0.000 A 
ATOM     22  C   UNL     1       4.103   4.130  18.144  0.00  0.00    +0.000 A 
ATOM     23  C   UNL     1       3.145   4.162  19.172  0.00  0.00    +0.000 A 
ATOM     24  C   UNL     1       2.464   5.350  19.509  0.00  0.00    +0.000 A 
ATOM     25  C   UNL     1       2.764   6.527  18.836  0.00  0.00    +0.000 A 
ATOM     26  C   UNL     1       3.763   6.470  17.842  0.00  0.00    +0.000 A 
BRANCH  21  27
ATOM     27  C   UNL     1       5.313   5.395  16.226  0.00  0.00    +0.000 C 
ATOM     28  C   UNL     1       4.767   4.417  15.166  0.00  0.00    +0.000 C 
BRANCH  27  29
ATOM     29  C   UNL     1       6.821   5.181  16.394  0.00  0.00    +0.000 C 
BRANCH  29  35
ATOM     30  C   UNL     1       7.677   8.215  17.555  0.00  0.00    +0.000 C 
ATOM     31  C   UNL     1       7.783   6.883  18.198  0.00  0.00    +0.000 A 
ATOM     32  C   UNL     1       8.319   6.623  19.443  0.00  0.00    +0.000 A 
ATOM     33  N   UNL     1       8.227   5.281  19.632  0.00  0.00    +0.000 N 
ATOM     34  N   UNL     1       7.683   4.632  18.598  0.00  0.00    +0.000 NA
ATOM     35  C   UNL     1       7.399   5.595  17.715  0.00  0.00    +0.000 A 
ATOM     36  H   UNL     1       8.528   4.737  20.435  0.00  0.00    +0.000 HD
ENDBRANCH  29  35
ENDBRANCH  27  29
ENDBRANCH  21  27
ENDBRANCH   1  25
BRANCH   8  37
ATOM     37  C   UNL     1       0.019   9.486  22.604  0.00  0.00    +0.000 C 
ATOM     38  F   UNL     1       1.147   9.154  23.295  0.00  0.00    +0.000 F 
ATOM     39  F   UNL     1      -0.661  10.343  23.412  0.00  0.00    +0.000 F 
ATOM     40  F   UNL     1      -0.719   8.347  22.541  0.00  0.00    +0.000 F 
ENDBRANCH   8  37
TORSDOF 7
ENDMDL
MODEL 5
REMARK VINA RESULT:      -9.5      1.435      2.106
REMARK  Name = 
REMARK  10 active torsions:
REMARK  status: ('A' for Active; 'I' for Inactive)
REMARK    1  A    between atoms: C_1  and  C_2
REMARK    2  A    between atoms: C_6  and  C_7
REMARK    3  A    between atoms: C_7  and  C_8
REMARK    4  A    between atoms: C_8  and  C_9
REMARK    5  A    between atoms: C_8  and  C_10
REMARK    6  A    between atoms: C_14  and  N_15
REMARK    7  A    between atoms: C_20  and  C_21
REMARK    8  A    between atoms: C_25  and  O_26
REMARK    9  A    between atoms: C_28  and  C_29
REMARK   10  A    between atoms: C_31  and  C_32
REMARK                            x       y       z     vdW  Elec       q    Type
REMARK                         _______ _______ _______ _____ _____    ______ ____
ROOT
ATOM      1  N   UNL     1       1.849   7.371  19.819  0.00  0.00    +0.000 N 
ATOM      2  C   UNL     1       1.194   7.955  20.966  0.00  0.00    +0.000 C 
ATOM      3  C   UNL     1       0.917   9.348  20.570  0.00  0.00    +0.000 A 
ATOM      4  C   UNL     1       1.387   9.580  19.285  0.00  0.00    +0.000 A 
ATOM      5  C   UNL     1       1.258  10.831  18.691  0.00  0.00    +0.000 A 
ATOM      6  C   UNL     1       0.658  11.862  19.440  0.00  0.00    +0.000 A 
ATOM      7  C   UNL     1       0.158  11.573  20.739  0.00  0.00    +0.000 A 
ATOM      8  C   UNL     1       0.287  10.317  21.333  0.00  0.00    +0.000 A 
ATOM      9  C   UNL     1       2.002   8.310  18.792  0.00  0.00    +0.000 C 
ATOM     10  O   UNL     1       2.523   8.210  17.698  0.00  0.00    +0.000 OA
ENDROOT
BRANCH   6  11
ATOM     11  C   UNL     1       0.488  13.300  19.044  0.00  0.00    +0.000 C 
ATOM     12  O   UNL     1      -0.602  13.584  18.523  0.00  0.00    +0.000 OA
ATOM     13  N   UNL     1       1.405  14.298  19.316  0.00  0.00    +0.000 N 
ATOM     14  C   UNL     1       1.002  15.684  19.119  0.00  0.00    +0.000 C 
ATOM     15  C   UNL     1       2.235  16.366  18.549  0.00  0.00    +0.000 C 
ATOM     16  C   UNL     1       3.395  15.611  19.187  0.00  0.00    +0.000 C 
ATOM     17  C   UNL     1       2.845  14.218  19.547  0.00  0.00    +0.000 C 
ATOM     18  C   UNL     1       3.218  13.881  20.988  0.00  0.00    +0.000 C 
BRANCH  15  19
ATOM     19  O   UNL     1       2.299  17.749  18.863  0.00  0.00    +0.000 OA
ATOM     20  H   UNL     1       1.419  18.041  19.156  0.00  0.00    +0.000 HD
ENDBRANCH  15  19
ENDBRANCH   6  11
BRANCH   1  25
ATOM     21  C   UNL     1       3.190   4.074  18.664  0.00  0.00    +0.000 A 
ATOM     22  C   UNL     1       3.076   3.304  19.815  0.00  0.00    +0.000 A 
ATOM     23  C   UNL     1       2.584   3.881  20.999  0.00  0.00    +0.000 A 
ATOM     24  C   UNL     1       2.171   5.228  21.046  0.00  0.00    +0.000 A 
ATOM     25  C   UNL     1       2.279   6.019  19.910  0.00  0.00    +0.000 A 
ATOM     26  C   UNL     1       2.820   5.422  18.753  0.00  0.00    +0.000 A 
BRANCH  21  27
ATOM     27  C   UNL     1       3.559   3.565  17.277  0.00  0.00    +0.000 C 
ATOM     28  C   UNL     1       2.917   2.174  17.102  0.00  0.00    +0.000 C 
BRANCH  27  29
ATOM     29  C   UNL     1       5.039   3.500  16.885  0.00  0.00    +0.000 C 
BRANCH  29  35
ATOM     30  C   UNL     1       5.117   6.681  15.807  0.00  0.00    +0.000 C 
ATOM     31  C   UNL     1       5.931   6.006  16.846  0.00  0.00    +0.000 A 
ATOM     32  C   UNL     1       6.955   6.578  17.574  0.00  0.00    +0.000 A 
ATOM     33  N   UNL     1       7.432   5.610  18.400  0.00  0.00    +0.000 N 
ATOM     34  N   UNL     1       6.809   4.436  18.262  0.00  0.00    +0.000 NA
ATOM     35  C   UNL     1       5.885   4.660  17.322  0.00  0.00    +0.000 A 
ATOM     36  H   UNL     1       8.189   5.675  19.073  0.00  0.00    +0.000 HD
ENDBRANCH  29  35
ENDBRANCH  27  29
ENDBRANCH  21  27
ENDBRANCH   1  25
BRANCH   8  37
ATOM     37  C   UNL     1      -0.220  10.058  22.726  0.00  0.00    +0.000 C 
ATOM     38  F   UNL     1       0.757   9.683  23.601  0.00  0.00    +0.000 F 
ATOM     39  F   UNL     1      -0.801  11.156  23.281  0.00  0.00    +0.000 F 
ATOM     40  F   UNL     1      -1.147   9.067  22.768  0.00  0.00    +0.000 F 
ENDBRANCH   8  37
TORSDOF 7
ENDMDL
MODEL 6
REMARK VINA RESULT:      -9.4      1.240      2.087
REMARK  Name = 
REMARK  10 active torsions:
REMARK  status: ('A' for Active; 'I' for Inactive)
REMARK    1  A    between atoms: C_1  and  C_2
REMARK    2  A    between atoms: C_6  and  C_7
REMARK    3  A    between atoms: C_7  and  C_8
REMARK    4  A    between atoms: C_8  and  C_9
REMARK    5  A    between atoms: C_8  and  C_10
REMARK    6  A    between atoms: C_14  and  N_15
REMARK    7  A    between atoms: C_20  and  C_21
REMARK    8  A    between atoms: C_25  and  O_26
REMARK    9  A    between atoms: C_28  and  C_29
REMARK   10  A    between atoms: C_31  and  C_32
REMARK                            x       y       z     vdW  Elec       q    Type
REMARK                         _______ _______ _______ _____ _____    ______ ____
ROOT
ATOM      1  N   UNL     1       1.811   7.280  19.839  0.00  0.00    +0.000 N 
ATOM      2  C   UNL     1       1.171   7.911  20.969  0.00  0.00    +0.000 C 
ATOM      3  C   UNL     1       0.920   9.296  20.531  0.00  0.00    +0.000 A 
ATOM      4  C   UNL     1       1.390   9.480  19.238  0.00  0.00    +0.000 A 
ATOM      5  C   UNL     1       1.285  10.715  18.607  0.00  0.00    +0.000 A 
ATOM      6  C   UNL     1       0.708  11.779  19.326  0.00  0.00    +0.000 A 
ATOM      7  C   UNL     1       0.206  11.541  20.634  0.00  0.00    +0.000 A 
ATOM      8  C   UNL     1       0.312  10.301  21.266  0.00  0.00    +0.000 A 
ATOM      9  C   UNL     1       1.979   8.183  18.783  0.00  0.00    +0.000 C 
ATOM     10  O   UNL     1       2.494   8.040  17.691  0.00  0.00    +0.000 OA
ENDROOT
BRANCH   6  11
ATOM     11  C   UNL     1       0.565  13.208  18.887  0.00  0.00    +0.000 C 
ATOM     12  O   UNL     1      -0.491  13.480  18.295  0.00  0.00    +0.000 OA
ATOM     13  N   UNL     1       1.466  14.211  19.190  0.00  0.00    +0.000 N 
ATOM     14  C   UNL     1       1.079  15.593  18.936  0.00  0.00    +0.000 C 
ATOM     15  C   UNL     1       2.345  16.260  18.425  0.00  0.00    +0.000 C 
ATOM     16  C   UNL     1       3.463  15.520  19.149  0.00  0.00    +0.000 C 
ATOM     17  C   UNL     1       2.890  14.135  19.508  0.00  0.00    +0.000 C 
ATOM     18  C   UNL     1       3.175  13.832  20.977  0.00  0.00    +0.000 C 
BRANCH  15  19
ATOM     19  O   UNL     1       2.394  17.650  18.709  0.00  0.00    +0.000 OA
ATOM     20  H   UNL     1       3.266  17.858  19.087  0.00  0.00    +0.000 HD
ENDBRANCH  15  19
ENDBRANCH   6  11
BRANCH   1  25
ATOM     21  C   UNL     1       3.166   3.949  18.801  0.00  0.00    +0.000 A 
ATOM     22  C   UNL     1       2.974   3.195  19.952  0.00  0.00    +0.000 A 
ATOM     23  C   UNL     1       2.423   3.794  21.099  0.00  0.00    +0.000 A 
ATOM     24  C   UNL     1       2.029   5.148  21.106  0.00  0.00    +0.000 A 
ATOM     25  C   UNL     1       2.214   5.923  19.970  0.00  0.00    +0.000 A 
ATOM     26  C   UNL     1       2.812   5.303  18.853  0.00  0.00    +0.000 A 
BRANCH  21  27
ATOM     27  C   UNL     1       3.607   3.418  17.444  0.00  0.00    +0.000 C 
ATOM     28  C   UNL     1       3.238   1.922  17.384  0.00  0.00    +0.000 C 
BRANCH  27  29
ATOM     29  C   UNL     1       5.068   3.605  17.018  0.00  0.00    +0.000 C 
BRANCH  29  35
ATOM     30  C   UNL     1       6.904   5.477  19.116  0.00  0.00    +0.000 C 
ATOM     31  C   UNL     1       6.302   5.825  17.806  0.00  0.00    +0.000 A 
ATOM     32  C   UNL     1       6.352   7.059  17.192  0.00  0.00    +0.000 A 
ATOM     33  N   UNL     1       5.669   6.939  16.024  0.00  0.00    +0.000 N 
ATOM     34  N   UNL     1       5.158   5.720  15.827  0.00  0.00    +0.000 NA
ATOM     35  C   UNL     1       5.541   5.024  16.902  0.00  0.00    +0.000 A 
ATOM     36  H   UNL     1       5.499   7.651  15.319  0.00  0.00    +0.000 HD
ENDBRANCH  29  35
ENDBRANCH  27  29
ENDBRANCH  21  27
ENDBRANCH   1  25
BRANCH   8  37
ATOM     37  C   UNL     1      -0.196  10.095  22.668  0.00  0.00    +0.000 C 
ATOM     38  F   UNL     1      -1.175   9.150  22.760  0.00  0.00    +0.000 F 
ATOM     39  F   UNL     1       0.782   9.687  23.521  0.00  0.00    +0.000 F 
ATOM     40  F   UNL     1      -0.729  11.225  23.201  0.00  0.00    +0.000 F 
ENDBRANCH   8  37
TORSDOF 7
ENDMDL
MODEL 7
REMARK VINA RESULT:      -9.4      0.722      1.166
REMARK  Name = 
REMARK  10 active torsions:
REMARK  status: ('A' for Active; 'I' for Inactive)
REMARK    1  A    between atoms: C_1  and  C_2
REMARK    2  A    between atoms: C_6  and  C_7
REMARK    3  A    between atoms: C_7  and  C_8
REMARK    4  A    between atoms: C_8  and  C_9
REMARK    5  A    between atoms: C_8  and  C_10
REMARK    6  A    between atoms: C_14  and  N_15
REMARK    7  A    between atoms: C_20  and  C_21
REMARK    8  A    between atoms: C_25  and  O_26
REMARK    9  A    between atoms: C_28  and  C_29
REMARK   10  A    between atoms: C_31  and  C_32
REMARK                            x       y       z     vdW  Elec       q    Type
REMARK                         _______ _______ _______ _____ _____    ______ ____
ROOT
ATOM      1  N   UNL     1       2.148   7.325  19.566  0.00  0.00    +0.000 N 
ATOM      2  C   UNL     1       1.466   7.795  20.750  0.00  0.00    +0.000 C 
ATOM      3  C   UNL     1       1.029   9.161  20.412  0.00  0.00    +0.000 A 
ATOM      4  C   UNL     1       1.433   9.486  19.124  0.00  0.00    +0.000 A 
ATOM      5  C   UNL     1       1.153  10.736  18.581  0.00  0.00    +0.000 A 
ATOM      6  C   UNL     1       0.467  11.668  19.382  0.00  0.00    +0.000 A 
ATOM      7  C   UNL     1       0.039  11.284  20.681  0.00  0.00    +0.000 A 
ATOM      8  C   UNL     1       0.320  10.030  21.225  0.00  0.00    +0.000 A 
ATOM      9  C   UNL     1       2.168   8.309  18.570  0.00  0.00    +0.000 C 
ATOM     10  O   UNL     1       2.665   8.303  17.461  0.00  0.00    +0.000 OA
ENDROOT
BRANCH   6  11
ATOM     11  C   UNL     1       0.131  13.092  19.043  0.00  0.00    +0.000 C 
ATOM     12  O   UNL     1      -1.008  13.276  18.587  0.00  0.00    +0.000 OA
ATOM     13  N   UNL     1       0.955  14.171  19.301  0.00  0.00    +0.000 N 
ATOM     14  C   UNL     1       0.404  15.514  19.171  0.00  0.00    +0.000 C 
ATOM     15  C   UNL     1       1.529  16.335  18.562  0.00  0.00    +0.000 C 
ATOM     16  C   UNL     1       2.791  15.686  19.116  0.00  0.00    +0.000 C 
ATOM     17  C   UNL     1       2.406  14.234  19.456  0.00  0.00    +0.000 C 
ATOM     18  C   UNL     1       2.888  13.897  20.865  0.00  0.00    +0.000 C 
BRANCH  15  19
ATOM     19  O   UNL     1       1.469  17.708  18.919  0.00  0.00    +0.000 OA
ATOM     20  H   UNL     1       1.951  17.831  19.755  0.00  0.00    +0.000 HD
ENDBRANCH  15  19
ENDBRANCH   6  11
BRANCH   1  25
ATOM     21  C   UNL     1       4.340   4.478  18.519  0.00  0.00    +0.000 A 
ATOM     22  C   UNL     1       3.926   3.470  19.382  0.00  0.00    +0.000 A 
ATOM     23  C   UNL     1       2.936   3.735  20.345  0.00  0.00    +0.000 A 
ATOM     24  C   UNL     1       2.324   5.002  20.445  0.00  0.00    +0.000 A 
ATOM     25  C   UNL     1       2.724   6.026  19.597  0.00  0.00    +0.000 A 
ATOM     26  C   UNL     1       3.751   5.739  18.674  0.00  0.00    +0.000 A 
BRANCH  21  27
ATOM     27  C   UNL     1       5.282   4.314  17.335  0.00  0.00    +0.000 C 
ATOM     28  C   UNL     1       6.707   4.651  17.821  0.00  0.00    +0.000 C 
BRANCH  27  29
ATOM     29  C   UNL     1       4.985   5.082  16.043  0.00  0.00    +0.000 C 
BRANCH  29  35
ATOM     30  C   UNL     1       5.192   3.547  13.062  0.00  0.00    +0.000 C 
ATOM     31  C   UNL     1       6.173   4.413  13.759  0.00  0.00    +0.000 A 
ATOM     32  C   UNL     1       7.438   4.733  13.308  0.00  0.00    +0.000 A 
ATOM     33  N   UNL     1       7.996   5.534  14.253  0.00  0.00    +0.000 N 
ATOM     34  N   UNL     1       7.199   5.756  15.303  0.00  0.00    +0.000 NA
ATOM     35  C   UNL     1       6.079   5.084  15.016  0.00  0.00    +0.000 A 
ATOM     36  H   UNL     1       8.920   5.953  14.255  0.00  0.00    +0.000 HD
ENDBRANCH  29  35
ENDBRANCH  27  29
ENDBRANCH  21  27
ENDBRANCH   1  25
BRANCH   8  37
ATOM     37  C   UNL     1      -0.116   9.671  22.620  0.00  0.00    +0.000 C 
ATOM     38  F   UNL     1       0.922   9.403  23.464  0.00  0.00    +0.000 F 
ATOM     39  F   UNL     1      -0.821  10.668  23.219  0.00  0.00    +0.000 F 
ATOM     40  F   UNL     1      -0.906   8.566  22.652  0.00  0.00    +0.000 F 
ENDBRANCH   8  37
TORSDOF 7
ENDMDL
MODEL 8
REMARK VINA RESULT:      -9.3      1.185      2.011
REMARK  Name = 
REMARK  10 active torsions:
REMARK  status: ('A' for Active; 'I' for Inactive)
REMARK    1  A    between atoms: C_1  and  C_2
REMARK    2  A    between atoms: C_6  and  C_7
REMARK    3  A    between atoms: C_7  and  C_8
REMARK    4  A    between atoms: C_8  and  C_9
REMARK    5  A    between atoms: C_8  and  C_10
REMARK    6  A    between atoms: C_14  and  N_15
REMARK    7  A    between atoms: C_20  and  C_21
REMARK    8  A    between atoms: C_25  and  O_26
REMARK    9  A    between atoms: C_28  and  C_29
REMARK   10  A    between atoms: C_31  and  C_32
REMARK                            x       y       z     vdW  Elec       q    Type
REMARK                         _______ _______ _______ _____ _____    ______ ____
ROOT
ATOM      1  N   UNL     1       1.675   7.341  19.904  0.00  0.00    +0.000 N 
ATOM      2  C   UNL     1       1.040   7.959  21.044  0.00  0.00    +0.000 C 
ATOM      3  C   UNL     1       0.816   9.358  20.635  0.00  0.00    +0.000 A 
ATOM      4  C   UNL     1       1.297   9.560  19.349  0.00  0.00    +0.000 A 
ATOM      5  C   UNL     1       1.218  10.810  18.743  0.00  0.00    +0.000 A 
ATOM      6  C   UNL     1       0.655  11.869  19.481  0.00  0.00    +0.000 A 
ATOM      7  C   UNL     1       0.142  11.612  20.781  0.00  0.00    +0.000 A 
ATOM      8  C   UNL     1       0.221  10.357  21.386  0.00  0.00    +0.000 A 
ATOM      9  C   UNL     1       1.865   8.264  18.869  0.00  0.00    +0.000 C 
ATOM     10  O   UNL     1       2.385   8.134  17.778  0.00  0.00    +0.000 OA
ENDROOT
BRANCH   6  11
ATOM     11  C   UNL     1       0.541  13.309  19.072  0.00  0.00    +0.000 C 
ATOM     12  O   UNL     1      -0.527  13.623  18.522  0.00  0.00    +0.000 OA
ATOM     13  N   UNL     1       1.481  14.280  19.359  0.00  0.00    +0.000 N 
ATOM     14  C   UNL     1       1.127  15.677  19.143  0.00  0.00    +0.000 C 
ATOM     15  C   UNL     1       2.395  16.315  18.599  0.00  0.00    +0.000 C 
ATOM     16  C   UNL     1       3.514  15.529  19.271  0.00  0.00    +0.000 C 
ATOM     17  C   UNL     1       2.912  14.156  19.626  0.00  0.00    +0.000 C 
ATOM     18  C   UNL     1       3.238  13.819  21.079  0.00  0.00    +0.000 C 
BRANCH  15  19
ATOM     19  O   UNL     1       2.495  17.698  18.905  0.00  0.00    +0.000 OA
ATOM     20  H   UNL     1       2.022  18.201  18.220  0.00  0.00    +0.000 HD
ENDBRANCH  15  19
ENDBRANCH   6  11
BRANCH   1  25
ATOM     21  C   UNL     1       2.943   3.999  18.795  0.00  0.00    +0.000 A 
ATOM     22  C   UNL     1       2.758   3.233  19.940  0.00  0.00    +0.000 A 
ATOM     23  C   UNL     1       2.241   3.826  21.104  0.00  0.00    +0.000 A 
ATOM     24  C   UNL     1       1.874   5.187  21.138  0.00  0.00    +0.000 A 
ATOM     25  C   UNL     1       2.054   5.975  20.009  0.00  0.00    +0.000 A 
ATOM     26  C   UNL     1       2.618   5.359  18.872  0.00  0.00    +0.000 A 
BRANCH  21  27
ATOM     27  C   UNL     1       3.348   3.479  17.423  0.00  0.00    +0.000 C 
ATOM     28  C   UNL     1       4.047   2.119  17.625  0.00  0.00    +0.000 C 
BRANCH  27  29
ATOM     29  C   UNL     1       4.209   4.370  16.520  0.00  0.00    +0.000 C 
BRANCH  29  35
ATOM     30  C   UNL     1       5.872   5.292  19.289  0.00  0.00    +0.000 C 
ATOM     31  C   UNL     1       6.385   4.793  17.990  0.00  0.00    +0.000 A 
ATOM     32  C   UNL     1       7.713   4.648  17.643  0.00  0.00    +0.000 A 
ATOM     33  N   UNL     1       7.732   4.177  16.369  0.00  0.00    +0.000 N 
ATOM     34  N   UNL     1       6.514   4.014  15.842  0.00  0.00    +0.000 NA
ATOM     35  C   UNL     1       5.679   4.380  16.820  0.00  0.00    +0.000 A 
ATOM     36  H   UNL     1       8.538   3.957  15.792  0.00  0.00    +0.000 HD
ENDBRANCH  29  35
ENDBRANCH  27  29
ENDBRANCH  21  27
ENDBRANCH   1  25
BRANCH   8  37
ATOM     37  C   UNL     1      -0.298  10.131  22.781  0.00  0.00    +0.000 C 
ATOM     38  F   UNL     1       0.662   9.729  23.663  0.00  0.00    +0.000 F 
ATOM     39  F   UNL     1      -0.841  11.254  23.323  0.00  0.00    +0.000 F 
ATOM     40  F   UNL     1      -1.261   9.174  22.830  0.00  0.00    +0.000 F 
ENDBRANCH   8  37
TORSDOF 7
ENDMDL
MODEL 9
REMARK VINA RESULT:      -9.2      1.036      1.411
REMARK  Name = 
REMARK  10 active torsions:
REMARK  status: ('A' for Active; 'I' for Inactive)
REMARK    1  A    between atoms: C_1  and  C_2
REMARK    2  A    between atoms: C_6  and  C_7
REMARK    3  A    between atoms: C_7  and  C_8
REMARK    4  A    between atoms: C_8  and  C_9
REMARK    5  A    between atoms: C_8  and  C_10
REMARK    6  A    between atoms: C_14  and  N_15
REMARK    7  A    between atoms: C_20  and  C_21
REMARK    8  A    between atoms: C_25  and  O_26
REMARK    9  A    between atoms: C_28  and  C_29
REMARK   10  A    between atoms: C_31  and  C_32
REMARK                            x       y       z     vdW  Elec       q    Type
REMARK                         _______ _______ _______ _____ _____    ______ ____
ROOT
ATOM      1  N   UNL     1       1.847   7.180  19.996  0.00  0.00    +0.000 N 
ATOM      2  C   UNL     1       1.191   7.835  21.103  0.00  0.00    +0.000 C 
ATOM      3  C   UNL     1       0.931   9.206  20.625  0.00  0.00    +0.000 A 
ATOM      4  C   UNL     1       1.411   9.358  19.332  0.00  0.00    +0.000 A 
ATOM      5  C   UNL     1       1.299  10.574  18.666  0.00  0.00    +0.000 A 
ATOM      6  C   UNL     1       0.705  11.652  19.351  0.00  0.00    +0.000 A 
ATOM      7  C   UNL     1       0.195  11.445  20.660  0.00  0.00    +0.000 A 
ATOM      8  C   UNL     1       0.307  10.224  21.326  0.00  0.00    +0.000 A 
ATOM      9  C   UNL     1       2.016   8.056  18.917  0.00  0.00    +0.000 C 
ATOM     10  O   UNL     1       2.542   7.888  17.834  0.00  0.00    +0.000 OA
ENDROOT
BRANCH   6  11
ATOM     11  C   UNL     1       0.553  13.067  18.871  0.00  0.00    +0.000 C 
ATOM     12  O   UNL     1      -0.495  13.309  18.251  0.00  0.00    +0.000 OA
ATOM     13  N   UNL     1       1.435  14.090  19.165  0.00  0.00    +0.000 N 
ATOM     14  C   UNL     1       1.034  15.459  18.866  0.00  0.00    +0.000 C 
ATOM     15  C   UNL     1       2.302  16.130  18.363  0.00  0.00    +0.000 C 
ATOM     16  C   UNL     1       3.414  15.424  19.128  0.00  0.00    +0.000 C 
ATOM     17  C   UNL     1       2.852  14.042  19.512  0.00  0.00    +0.000 C 
ATOM     18  C   UNL     1       3.112  13.781  20.994  0.00  0.00    +0.000 C 
BRANCH  15  19
ATOM     19  O   UNL     1       2.327  17.527  18.611  0.00  0.00    +0.000 OA
ATOM     20  H   UNL     1       3.250  17.831  18.578  0.00  0.00    +0.000 HD
ENDBRANCH  15  19
ENDBRANCH   6  11
BRANCH   1  25
ATOM     21  C   UNL     1       3.750   4.026  19.334  0.00  0.00    +0.000 A 
ATOM     22  C   UNL     1       3.165   3.148  20.238  0.00  0.00    +0.000 A 
ATOM     23  C   UNL     1       2.153   3.603  21.102  0.00  0.00    +0.000 A 
ATOM     24  C   UNL     1       1.690   4.934  21.059  0.00  0.00    +0.000 A 
ATOM     25  C   UNL     1       2.262   5.831  20.168  0.00  0.00    +0.000 A 
ATOM     26  C   UNL     1       3.306   5.354  19.348  0.00  0.00    +0.000 A 
BRANCH  21  27
ATOM     27  C   UNL     1       4.741   3.657  18.238  0.00  0.00    +0.000 C 
ATOM     28  C   UNL     1       5.988   4.548  18.416  0.00  0.00    +0.000 C 
BRANCH  27  29
ATOM     29  C   UNL     1       4.279   3.706  16.778  0.00  0.00    +0.000 C 
BRANCH  29  35
ATOM     30  C   UNL     1       5.086   6.774  15.672  0.00  0.00    +0.000 C 
ATOM     31  C   UNL     1       5.634   5.449  15.294  0.00  0.00    +0.000 A 
ATOM     32  C   UNL     1       6.600   5.213  14.337  0.00  0.00    +0.000 A 
ATOM     33  N   UNL     1       6.796   3.869  14.307  0.00  0.00    +0.000 N 
ATOM     34  N   UNL     1       6.021   3.197  15.163  0.00  0.00    +0.000 NA
ATOM     35  C   UNL     1       5.309   4.146  15.779  0.00  0.00    +0.000 A 
ATOM     36  H   UNL     1       7.432   3.340  13.718  0.00  0.00    +0.000 HD
ENDBRANCH  29  35
ENDBRANCH  27  29
ENDBRANCH  21  27
ENDBRANCH   1  25
BRANCH   8  37
ATOM     37  C   UNL     1      -0.212  10.051  22.729  0.00  0.00    +0.000 C 
ATOM     38  F   UNL     1      -0.767  11.184  23.248  0.00  0.00    +0.000 F 
ATOM     39  F   UNL     1      -1.181   9.102  22.813  0.00  0.00    +0.000 F 
ATOM     40  F   UNL     1       0.762   9.689  23.604  0.00  0.00    +0.000 F 
ENDBRANCH   8  37
TORSDOF 7
ENDMDL
