MODEL 1
REMARK VINA RESULT:      -7.4      0.000      0.000
REMARK  Name = 
REMARK  8 active torsions:
REMARK  status: ('A' for Active; 'I' for Inactive)
REMARK    1  A    between atoms: C_1  and  C_2
REMARK    2  A    between atoms: C_4  and  C_5
REMARK    3  A    between atoms: N_7  and  C_8
REMARK    4  A    between atoms: C_12  and  C_13
REMARK    5  A    between atoms: C_13  and  C_14
REMARK    6  A    between atoms: C_13  and  S_15
REMARK    7  A    between atoms: S_15  and  C_16
REMARK    8  A    between atoms: N_20  and  C_21
REMARK                            x       y       z     vdW  Elec       q    Type
REMARK                         _______ _______ _______ _____ _____    ______ ____
ROOT
ATOM      1  C   UNL     1       6.542   6.686  16.848  0.00  0.00    +0.000 A 
ATOM      2  C   UNL     1       6.963   5.978  15.716  0.00  0.00    +0.000 A 
ATOM      3  C   UNL     1       6.326   4.803  15.318  0.00  0.00    +0.000 A 
ATOM      4  C   UNL     1       5.248   4.319  16.049  0.00  0.00    +0.000 A 
ATOM      5  C   UNL     1       4.795   4.992  17.198  0.00  0.00    +0.000 A 
ATOM      6  C   UNL     1       5.483   6.159  17.610  0.00  0.00    +0.000 A 
ENDROOT
BRANCH   1   9
ATOM      7  C   UNL     1       8.088   8.056  18.231  0.00  0.00    +0.000 C 
ATOM      8  O   UNL     1       8.542   7.138  18.908  0.00  0.00    +0.000 OA
ATOM      9  N   UNL     1       7.137   7.918  17.228  0.00  0.00    +0.000 N 
ATOM     10  H   UNL     1       6.978   8.740  16.655  0.00  0.00    +0.000 HD
BRANCH   7  14
ATOM     11  C   UNL     1      10.553  11.890  20.321  0.00  0.00    +0.000 C 
ATOM     12  C   UNL     1       9.705  11.098  19.386  0.00  0.00    +0.000 A 
ATOM     13  N   UNL     1       9.386   9.822  19.521  0.00  0.00    +0.000 NA
ATOM     14  C   UNL     1       8.603   9.421  18.435  0.00  0.00    +0.000 A 
ATOM     15  C   UNL     1       8.335  10.430  17.522  0.00  0.00    +0.000 A 
ATOM     16  S   UNL     1       9.071  11.890  17.996  0.00  0.00    +0.000 S 
ENDBRANCH   7  14
ENDBRANCH   1   9
BRANCH   5  17
ATOM     17  C   UNL     1       3.577   4.476  17.972  0.00  0.00    +0.000 C 
ATOM     18  C   UNL     1       3.213   5.434  19.113  0.00  0.00    +0.000 C 
BRANCH  17  19
ATOM     19  S   UNL     1       3.892   2.780  18.638  0.00  0.00    +0.000 S 
BRANCH  19  20
ATOM     20  C   UNL     1       2.883   2.749  20.040  0.00  0.00    +0.000 A 
ATOM     21  N   UNL     1       3.274   2.849  21.290  0.00  0.00    +0.000 NA
ATOM     22  N   UNL     1       2.155   2.763  22.091  0.00  0.00    +0.000 NA
ATOM     23  C   UNL     1       1.114   2.620  21.303  0.00  0.00    +0.000 A 
ATOM     24  N   UNL     1       1.523   2.611  20.001  0.00  0.00    +0.000 N 
ATOM     25  C   UNL     1       0.659   2.471  18.860  0.00  0.00    +0.000 C 
ENDBRANCH  19  20
ENDBRANCH  17  19
ENDBRANCH   5  17
TORSDOF 5
ENDMDL
MODEL 2
REMARK VINA RESULT:      -7.4      4.695      7.437
REMARK  Name = 
REMARK  8 active torsions:
REMARK  status: ('A' for Active; 'I' for Inactive)
REMARK    1  A    between atoms: C_1  and  C_2
REMARK    2  A    between atoms: C_4  and  C_5
REMARK    3  A    between atoms: N_7  and  C_8
REMARK    4  A    between atoms: C_12  and  C_13
REMARK    5  A    between atoms: C_13  and  C_14
REMARK    6  A    between atoms: C_13  and  S_15
REMARK    7  A    between atoms: S_15  and  C_16
REMARK    8  A    between atoms: N_20  and  C_21
REMARK                            x       y       z     vdW  Elec       q    Type
REMARK                         _______ _______ _______ _____ _____    ______ ____
ROOT
ATOM      1  C   UNL     1       2.483   6.439  18.938  0.00  0.00    +0.000 A 
ATOM      2  C   UNL     1       2.008   5.137  19.140  0.00  0.00    +0.000 A 
ATOM      3  C   UNL     1       2.586   4.046  18.490  0.00  0.00    +0.000 A 
ATOM      4  C   UNL     1       3.657   4.244  17.627  0.00  0.00    +0.000 A 
ATOM      5  C   UNL     1       4.162   5.535  17.387  0.00  0.00    +0.000 A 
ATOM      6  C   UNL     1       3.534   6.633  18.023  0.00  0.00    +0.000 A 
ENDROOT
BRANCH   1   9
ATOM      7  C   UNL     1       1.438   8.692  19.038  0.00  0.00    +0.000 C 
ATOM      8  O   UNL     1       1.372   8.884  17.828  0.00  0.00    +0.000 OA
ATOM      9  N   UNL     1       1.949   7.551  19.643  0.00  0.00    +0.000 N 
ATOM     10  H   UNL     1       1.793   7.473  20.642  0.00  0.00    +0.000 HD
BRANCH   7  14
ATOM     11  C   UNL     1      -0.886  10.682  23.011  0.00  0.00    +0.000 C 
ATOM     12  C   UNL     1      -0.139  10.558  21.728  0.00  0.00    +0.000 A 
ATOM     13  N   UNL     1       0.170   9.427  21.117  0.00  0.00    +0.000 NA
ATOM     14  C   UNL     1       0.897   9.709  19.957  0.00  0.00    +0.000 A 
ATOM     15  C   UNL     1       1.090  11.062  19.720  0.00  0.00    +0.000 A 
ATOM     16  S   UNL     1       0.383  12.002  20.950  0.00  0.00    +0.000 S 
ENDBRANCH   7  14
ENDBRANCH   1   9
BRANCH   5  17
ATOM     17  C   UNL     1       5.372   5.738  16.470  0.00  0.00    +0.000 C 
ATOM     18  C   UNL     1       5.073   6.798  15.402  0.00  0.00    +0.000 C 
BRANCH  17  19
ATOM     19  S   UNL     1       5.863   4.145  15.668  0.00  0.00    +0.000 S 
BRANCH  19  20
ATOM     20  C   UNL     1       6.867   4.687  14.370  0.00  0.00    +0.000 A 
ATOM     21  N   UNL     1       7.874   5.526  14.455  0.00  0.00    +0.000 NA
ATOM     22  N   UNL     1       8.390   5.695  13.189  0.00  0.00    +0.000 NA
ATOM     23  C   UNL     1       7.686   4.948  12.370  0.00  0.00    +0.000 A 
ATOM     24  N   UNL     1       6.718   4.289  13.070  0.00  0.00    +0.000 N 
ATOM     25  C   UNL     1       5.756   3.381  12.505  0.00  0.00    +0.000 C 
ENDBRANCH  19  20
ENDBRANCH  17  19
ENDBRANCH   5  17
TORSDOF 5
ENDMDL
MODEL 3
REMARK VINA RESULT:      -7.3      0.943      1.146
REMARK  Name = 
REMARK  8 active torsions:
REMARK  status: ('A' for Active; 'I' for Inactive)
REMARK    1  A    between atoms: C_1  and  C_2
REMARK    2  A    between atoms: C_4  and  C_5
REMARK    3  A    between atoms: N_7  and  C_8
REMARK    4  A    between atoms: C_12  and  C_13
REMARK    5  A    between atoms: C_13  and  C_14
REMARK    6  A    between atoms: C_13  and  S_15
REMARK    7  A    between atoms: S_15  and  C_16
REMARK    8  A    between atoms: N_20  and  C_21
REMARK                            x       y       z     vdW  Elec       q    Type
REMARK                         _______ _______ _______ _____ _____    ______ ____
ROOT
ATOM      1  C   UNL     1       6.406   6.549  16.705  0.00  0.00    +0.000 A 
ATOM      2  C   UNL     1       6.851   5.840  15.582  0.00  0.00    +0.000 A 
ATOM      3  C   UNL     1       6.235   4.654  15.184  0.00  0.00    +0.000 A 
ATOM      4  C   UNL     1       5.157   4.158  15.906  0.00  0.00    +0.000 A 
ATOM      5  C   UNL     1       4.681   4.831  17.046  0.00  0.00    +0.000 A 
ATOM      6  C   UNL     1       5.346   6.011  17.459  0.00  0.00    +0.000 A 
ENDROOT
BRANCH   1   9
ATOM      7  C   UNL     1       7.936   7.946  18.080  0.00  0.00    +0.000 C 
ATOM      8  O   UNL     1       8.415   7.036  18.749  0.00  0.00    +0.000 OA
ATOM      9  N   UNL     1       6.978   7.792  17.085  0.00  0.00    +0.000 N 
ATOM     10  H   UNL     1       6.797   8.613  16.516  0.00  0.00    +0.000 HD
BRANCH   7  14
ATOM     11  C   UNL     1       8.490  12.886  17.424  0.00  0.00    +0.000 C 
ATOM     12  C   UNL     1       8.646  11.508  17.967  0.00  0.00    +0.000 A 
ATOM     13  N   UNL     1       8.058  10.419  17.500  0.00  0.00    +0.000 NA
ATOM     14  C   UNL     1       8.424   9.321  18.284  0.00  0.00    +0.000 A 
ATOM     15  C   UNL     1       9.306   9.622  19.310  0.00  0.00    +0.000 A 
ATOM     16  S   UNL     1       9.680  11.282  19.325  0.00  0.00    +0.000 S 
ENDBRANCH   7  14
ENDBRANCH   1   9
BRANCH   5  17
ATOM     17  C   UNL     1       3.462   4.302  17.809  0.00  0.00    +0.000 C 
ATOM     18  C   UNL     1       3.093   5.242  18.963  0.00  0.00    +0.000 C 
BRANCH  17  19
ATOM     19  S   UNL     1       3.778   2.597  18.451  0.00  0.00    +0.000 S 
BRANCH  19  20
ATOM     20  C   UNL     1       2.930   2.613  19.956  0.00  0.00    +0.000 A 
ATOM     21  N   UNL     1       3.462   2.676  21.156  0.00  0.00    +0.000 NA
ATOM     22  N   UNL     1       2.435   2.652  22.074  0.00  0.00    +0.000 NA
ATOM     23  C   UNL     1       1.307   2.582  21.406  0.00  0.00    +0.000 A 
ATOM     24  N   UNL     1       1.568   2.562  20.067  0.00  0.00    +0.000 N 
ATOM     25  C   UNL     1       0.576   2.488  19.028  0.00  0.00    +0.000 C 
ENDBRANCH  19  20
ENDBRANCH  17  19
ENDBRANCH   5  17
TORSDOF 5
ENDMDL
MODEL 4
REMARK VINA RESULT:      -7.3      3.967      5.302
REMARK  Name = 
REMARK  8 active torsions:
REMARK  status: ('A' for Active; 'I' for Inactive)
REMARK    1  A    between atoms: C_1  and  C_2
REMARK    2  A    between atoms: C_4  and  C_5
REMARK    3  A    between atoms: N_7  and  C_8
REMARK    4  A    between atoms: C_12  and  C_13
REMARK    5  A    between atoms: C_13  and  C_14
REMARK    6  A    between atoms: C_13  and  S_15
REMARK    7  A    between atoms: S_15  and  C_16
REMARK    8  A    between atoms: N_20  and  C_21
REMARK                            x       y       z     vdW  Elec       q    Type
REMARK                         _______ _______ _______ _____ _____    ______ ____
ROOT
ATOM      1  C   UNL     1       7.765   8.074  17.997  0.00  0.00    +0.000 A 
ATOM      2  C   UNL     1       8.364   7.240  18.949  0.00  0.00    +0.000 A 
ATOM      3  C   UNL     1       7.957   5.917  19.112  0.00  0.00    +0.000 A 
ATOM      4  C   UNL     1       6.940   5.404  18.316  0.00  0.00    +0.000 A 
ATOM      5  C   UNL     1       6.303   6.206  17.353  0.00  0.00    +0.000 A 
ATOM      6  C   UNL     1       6.702   7.559  17.232  0.00  0.00    +0.000 A 
ENDROOT
BRANCH   1   9
ATOM      7  C   UNL     1       8.975  10.138  18.672  0.00  0.00    +0.000 C 
ATOM      8  O   UNL     1       9.363   9.737  19.765  0.00  0.00    +0.000 OA
ATOM      9  N   UNL     1       8.214   9.403  17.772  0.00  0.00    +0.000 N 
ATOM     10  H   UNL     1       8.105   9.811  16.850  0.00  0.00    +0.000 HD
BRANCH   7  14
ATOM     11  C   UNL     1       8.714  15.071  17.810  0.00  0.00    +0.000 C 
ATOM     12  C   UNL     1       9.219  13.670  17.853  0.00  0.00    +0.000 A 
ATOM     13  N   UNL     1       8.560  12.622  18.319  0.00  0.00    +0.000 NA
ATOM     14  C   UNL     1       9.366  11.485  18.221  0.00  0.00    +0.000 A 
ATOM     15  C   UNL     1      10.611  11.715  17.653  0.00  0.00    +0.000 A 
ATOM     16  S   UNL     1      10.800  13.358  17.250  0.00  0.00    +0.000 S 
ENDBRANCH   7  14
ENDBRANCH   1   9
BRANCH   5  17
ATOM     17  C   UNL     1       5.214   5.619  16.448  0.00  0.00    +0.000 C 
ATOM     18  C   UNL     1       3.930   5.355  17.244  0.00  0.00    +0.000 C 
BRANCH  17  19
ATOM     19  S   UNL     1       5.799   4.059  15.645  0.00  0.00    +0.000 S 
BRANCH  19  20
ATOM     20  C   UNL     1       6.818   4.660  14.386  0.00  0.00    +0.000 A 
ATOM     21  N   UNL     1       7.803   5.520  14.516  0.00  0.00    +0.000 NA
ATOM     22  N   UNL     1       8.343   5.736  13.268  0.00  0.00    +0.000 NA
ATOM     23  C   UNL     1       7.676   4.996  12.413  0.00  0.00    +0.000 A 
ATOM     24  N   UNL     1       6.709   4.295  13.072  0.00  0.00    +0.000 N 
ATOM     25  C   UNL     1       5.781   3.381  12.461  0.00  0.00    +0.000 C 
ENDBRANCH  19  20
ENDBRANCH  17  19
ENDBRANCH   5  17
TORSDOF 5
ENDMDL
MODEL 5
REMARK VINA RESULT:      -7.2      1.186      1.684
REMARK  Name = 
REMARK  8 active torsions:
REMARK  status: ('A' for Active; 'I' for Inactive)
REMARK    1  A    between atoms: C_1  and  C_2
REMARK    2  A    between atoms: C_4  and  C_5
REMARK    3  A    between atoms: N_7  and  C_8
REMARK    4  A    between atoms: C_12  and  C_13
REMARK    5  A    between atoms: C_13  and  C_14
REMARK    6  A    between atoms: C_13  and  S_15
REMARK    7  A    between atoms: S_15  and  C_16
REMARK    8  A    between atoms: N_20  and  C_21
REMARK                            x       y       z     vdW  Elec       q    Type
REMARK                         _______ _______ _______ _____ _____    ______ ____
ROOT
ATOM      1  C   UNL     1       6.337   6.464  16.781  0.00  0.00    +0.000 A 
ATOM      2  C   UNL     1       6.971   5.553  15.927  0.00  0.00    +0.000 A 
ATOM      3  C   UNL     1       6.358   4.354  15.562  0.00  0.00    +0.000 A 
ATOM      4  C   UNL     1       5.091   4.051  16.046  0.00  0.00    +0.000 A 
ATOM      5  C   UNL     1       4.420   4.931  16.913  0.00  0.00    +0.000 A 
ATOM      6  C   UNL     1       5.077   6.122  17.306  0.00  0.00    +0.000 A 
ENDROOT
BRANCH   1   9
ATOM      7  C   UNL     1       7.907   7.899  18.069  0.00  0.00    +0.000 C 
ATOM      8  O   UNL     1       8.407   7.007  18.748  0.00  0.00    +0.000 OA
ATOM      9  N   UNL     1       6.919   7.717  17.108  0.00  0.00    +0.000 N 
ATOM     10  H   UNL     1       6.720   8.522  16.523  0.00  0.00    +0.000 HD
BRANCH   7  14
ATOM     11  C   UNL     1       8.304  12.851  17.393  0.00  0.00    +0.000 C 
ATOM     12  C   UNL     1       8.549  11.471  17.898  0.00  0.00    +0.000 A 
ATOM     13  N   UNL     1       7.919  10.378  17.502  0.00  0.00    +0.000 NA
ATOM     14  C   UNL     1       8.399   9.279  18.220  0.00  0.00    +0.000 A 
ATOM     15  C   UNL     1       9.405   9.584  19.124  0.00  0.00    +0.000 A 
ATOM     16  S   UNL     1       9.755  11.250  19.105  0.00  0.00    +0.000 S 
ENDBRANCH   7  14
ENDBRANCH   1   9
BRANCH   5  17
ATOM     17  C   UNL     1       3.004   4.610  17.405  0.00  0.00    +0.000 C 
ATOM     18  C   UNL     1       2.682   5.394  18.683  0.00  0.00    +0.000 C 
BRANCH  17  19
ATOM     19  S   UNL     1       2.810   2.795  17.704  0.00  0.00    +0.000 S 
BRANCH  19  20
ATOM     20  C   UNL     1       2.355   2.749  19.370  0.00  0.00    +0.000 A 
ATOM     21  N   UNL     1       1.147   2.914  19.859  0.00  0.00    +0.000 NA
ATOM     22  N   UNL     1       1.230   2.815  21.231  0.00  0.00    +0.000 NA
ATOM     23  C   UNL     1       2.486   2.585  21.537  0.00  0.00    +0.000 A 
ATOM     24  N   UNL     1       3.232   2.529  20.397  0.00  0.00    +0.000 N 
ATOM     25  C   UNL     1       4.651   2.297  20.342  0.00  0.00    +0.000 C 
ENDBRANCH  19  20
ENDBRANCH  17  19
ENDBRANCH   5  17
TORSDOF 5
ENDMDL
MODEL 6
REMARK VINA RESULT:      -7.2      3.883      6.859
REMARK  Name = 
REMARK  8 active torsions:
REMARK  status: ('A' for Active; 'I' for Inactive)
REMARK    1  A    between atoms: C_1  and  C_2
REMARK    2  A    between atoms: C_4  and  C_5
REMARK    3  A    between atoms: N_7  and  C_8
REMARK    4  A    between atoms: C_12  and  C_13
REMARK    5  A    between atoms: C_13  and  C_14
REMARK    6  A    between atoms: C_13  and  S_15
REMARK    7  A    between atoms: S_15  and  C_16
REMARK    8  A    between atoms: N_20  and  C_21
REMARK                            x       y       z     vdW  Elec       q    Type
REMARK                         _______ _______ _______ _____ _____    ______ ____
ROOT
ATOM      1  C   UNL     1       2.588   5.575  18.417  0.00  0.00    +0.000 A 
ATOM      2  C   UNL     1       1.949   4.331  18.346  0.00  0.00    +0.000 A 
ATOM      3  C   UNL     1       2.426   3.317  17.515  0.00  0.00    +0.000 A 
ATOM      4  C   UNL     1       3.560   3.534  16.742  0.00  0.00    +0.000 A 
ATOM      5  C   UNL     1       4.230   4.770  16.774  0.00  0.00    +0.000 A 
ATOM      6  C   UNL     1       3.705   5.801  17.591  0.00  0.00    +0.000 A 
ENDROOT
BRANCH   1   9
ATOM      7  C   UNL     1       1.879   7.902  18.930  0.00  0.00    +0.000 C 
ATOM      8  O   UNL     1       1.965   8.343  17.789  0.00  0.00    +0.000 OA
ATOM      9  N   UNL     1       2.155   6.593  19.307  0.00  0.00    +0.000 N 
ATOM     10  H   UNL     1       1.888   6.341  20.253  0.00  0.00    +0.000 HD
BRANCH   7  14
ATOM     11  C   UNL     1       0.106  11.997  21.216  0.00  0.00    +0.000 C 
ATOM     12  C   UNL     1       0.617  10.616  20.990  0.00  0.00    +0.000 A 
ATOM     13  N   UNL     1       1.022  10.119  19.833  0.00  0.00    +0.000 NA
ATOM     14  C   UNL     1       1.403   8.786  20.008  0.00  0.00    +0.000 A 
ATOM     15  C   UNL     1       1.295   8.328  21.313  0.00  0.00    +0.000 A 
ATOM     16  S   UNL     1       0.699   9.550  22.338  0.00  0.00    +0.000 S 
ENDBRANCH   7  14
ENDBRANCH   1   9
BRANCH   5  17
ATOM     17  C   UNL     1       5.506   4.985  15.953  0.00  0.00    +0.000 C 
ATOM     18  C   UNL     1       5.500   4.102  14.699  0.00  0.00    +0.000 C 
BRANCH  17  19
ATOM     19  S   UNL     1       7.010   4.634  16.972  0.00  0.00    +0.000 S 
BRANCH  19  20
ATOM     20  C   UNL     1       7.496   6.219  17.457  0.00  0.00    +0.000 A 
ATOM     21  N   UNL     1       7.481   7.306  16.719  0.00  0.00    +0.000 NA
ATOM     22  N   UNL     1       7.960   8.345  17.486  0.00  0.00    +0.000 NA
ATOM     23  C   UNL     1       8.247   7.862  18.673  0.00  0.00    +0.000 A 
ATOM     24  N   UNL     1       7.965   6.528  18.705  0.00  0.00    +0.000 N 
ATOM     25  C   UNL     1       8.154   5.665  19.840  0.00  0.00    +0.000 C 
ENDBRANCH  19  20
ENDBRANCH  17  19
ENDBRANCH   5  17
TORSDOF 5
ENDMDL
MODEL 7
REMARK VINA RESULT:      -7.1      4.290      7.363
REMARK  Name = 
REMARK  8 active torsions:
REMARK  status: ('A' for Active; 'I' for Inactive)
REMARK    1  A    between atoms: C_1  and  C_2
REMARK    2  A    between atoms: C_4  and  C_5
REMARK    3  A    between atoms: N_7  and  C_8
REMARK    4  A    between atoms: C_12  and  C_13
REMARK    5  A    between atoms: C_13  and  C_14
REMARK    6  A    between atoms: C_13  and  S_15
REMARK    7  A    between atoms: S_15  and  C_16
REMARK    8  A    between atoms: N_20  and  C_21
REMARK                            x       y       z     vdW  Elec       q    Type
REMARK                         _______ _______ _______ _____ _____    ______ ____
ROOT
ATOM      1  C   UNL     1       2.987   5.645  19.671  0.00  0.00    +0.000 A 
ATOM      2  C   UNL     1       2.916   4.352  20.203  0.00  0.00    +0.000 A 
ATOM      3  C   UNL     1       3.727   3.325  19.721  0.00  0.00    +0.000 A 
ATOM      4  C   UNL     1       4.630   3.580  18.696  0.00  0.00    +0.000 A 
ATOM      5  C   UNL     1       4.729   4.862  18.125  0.00  0.00    +0.000 A 
ATOM      6  C   UNL     1       3.867   5.880  18.599  0.00  0.00    +0.000 A 
ENDROOT
BRANCH   1   9
ATOM      7  C   UNL     1       1.931   7.890  19.509  0.00  0.00    +0.000 C 
ATOM      8  O   UNL     1       2.296   8.149  18.366  0.00  0.00    +0.000 OA
ATOM      9  N   UNL     1       2.216   6.717  20.196  0.00  0.00    +0.000 N 
ATOM     10  H   UNL     1       1.716   6.584  21.068  0.00  0.00    +0.000 HD
BRANCH   7  14
ATOM     11  C   UNL     1      -0.670  10.003  23.238  0.00  0.00    +0.000 C 
ATOM     12  C   UNL     1      -0.063   9.764  21.899  0.00  0.00    +0.000 A 
ATOM     13  N   UNL     1       0.660   8.713  21.552  0.00  0.00    +0.000 NA
ATOM     14  C   UNL     1       1.080   8.855  20.226  0.00  0.00    +0.000 A 
ATOM     15  C   UNL     1       0.630  10.011  19.606  0.00  0.00    +0.000 A 
ATOM     16  S   UNL     1      -0.308  10.948  20.673  0.00  0.00    +0.000 S 
ENDBRANCH   7  14
ENDBRANCH   1   9
BRANCH   5  17
ATOM     17  C   UNL     1       5.760   5.146  17.026  0.00  0.00    +0.000 C 
ATOM     18  C   UNL     1       5.649   6.595  16.538  0.00  0.00    +0.000 C 
BRANCH  17  19
ATOM     19  S   UNL     1       5.546   3.977  15.608  0.00  0.00    +0.000 S 
BRANCH  19  20
ATOM     20  C   UNL     1       6.677   4.595  14.457  0.00  0.00    +0.000 A 
ATOM     21  N   UNL     1       7.655   5.440  14.692  0.00  0.00    +0.000 NA
ATOM     22  N   UNL     1       8.304   5.678  13.500  0.00  0.00    +0.000 NA
ATOM     23  C   UNL     1       7.706   4.964  12.574  0.00  0.00    +0.000 A 
ATOM     24  N   UNL     1       6.678   4.260  13.131  0.00  0.00    +0.000 N 
ATOM     25  C   UNL     1       5.798   3.371  12.420  0.00  0.00    +0.000 C 
ENDBRANCH  19  20
ENDBRANCH  17  19
ENDBRANCH   5  17
TORSDOF 5
ENDMDL
MODEL 8
REMARK VINA RESULT:      -7.1      4.672      7.375
REMARK  Name = 
REMARK  8 active torsions:
REMARK  status: ('A' for Active; 'I' for Inactive)
REMARK    1  A    between atoms: C_1  and  C_2
REMARK    2  A    between atoms: C_4  and  C_5
REMARK    3  A    between atoms: N_7  and  C_8
REMARK    4  A    between atoms: C_12  and  C_13
REMARK    5  A    between atoms: C_13  and  C_14
REMARK    6  A    between atoms: C_13  and  S_15
REMARK    7  A    between atoms: S_15  and  C_16
REMARK    8  A    between atoms: N_20  and  C_21
REMARK                            x       y       z     vdW  Elec       q    Type
REMARK                         _______ _______ _______ _____ _____    ______ ____
ROOT
ATOM      1  C   UNL     1       2.522   6.319  18.915  0.00  0.00    +0.000 A 
ATOM      2  C   UNL     1       1.999   5.025  19.021  0.00  0.00    +0.000 A 
ATOM      3  C   UNL     1       2.555   3.958  18.316  0.00  0.00    +0.000 A 
ATOM      4  C   UNL     1       3.654   4.172  17.492  0.00  0.00    +0.000 A 
ATOM      5  C   UNL     1       4.208   5.457  17.347  0.00  0.00    +0.000 A 
ATOM      6  C   UNL     1       3.601   6.534  18.038  0.00  0.00    +0.000 A 
ENDROOT
BRANCH   1   9
ATOM      7  C   UNL     1       1.470   8.561  19.133  0.00  0.00    +0.000 C 
ATOM      8  O   UNL     1       1.359   8.795  17.933  0.00  0.00    +0.000 OA
ATOM      9  N   UNL     1       2.009   7.402  19.677  0.00  0.00    +0.000 N 
ATOM     10  H   UNL     1       1.889   7.288  20.678  0.00  0.00    +0.000 HD
BRANCH   7  14
ATOM     11  C   UNL     1       0.421  12.988  21.242  0.00  0.00    +0.000 C 
ATOM     12  C   UNL     1       0.509  11.518  21.013  0.00  0.00    +0.000 A 
ATOM     13  N   UNL     1       1.109  10.926  19.994  0.00  0.00    +0.000 NA
ATOM     14  C   UNL     1       0.959   9.541  20.106  0.00  0.00    +0.000 A 
ATOM     15  C   UNL     1       0.265   9.133  21.235  0.00  0.00    +0.000 A 
ATOM     16  S   UNL     1      -0.226  10.471  22.165  0.00  0.00    +0.000 S 
ENDBRANCH   7  14
ENDBRANCH   1   9
BRANCH   5  17
ATOM     17  C   UNL     1       5.447   5.675  16.473  0.00  0.00    +0.000 C 
ATOM     18  C   UNL     1       5.182   6.752  15.414  0.00  0.00    +0.000 C 
BRANCH  17  19
ATOM     19  S   UNL     1       5.964   4.096  15.660  0.00  0.00    +0.000 S 
BRANCH  19  20
ATOM     20  C   UNL     1       6.913   4.664  14.334  0.00  0.00    +0.000 A 
ATOM     21  N   UNL     1       7.912   5.516  14.392  0.00  0.00    +0.000 NA
ATOM     22  N   UNL     1       8.381   5.706  13.110  0.00  0.00    +0.000 NA
ATOM     23  C   UNL     1       7.658   4.957  12.309  0.00  0.00    +0.000 A 
ATOM     24  N   UNL     1       6.724   4.277  13.036  0.00  0.00    +0.000 N 
ATOM     25  C   UNL     1       5.755   3.363  12.496  0.00  0.00    +0.000 C 
ENDBRANCH  19  20
ENDBRANCH  17  19
ENDBRANCH   5  17
TORSDOF 5
ENDMDL
MODEL 9
REMARK VINA RESULT:      -7.1      6.307      7.762
REMARK  Name = 
REMARK  8 active torsions:
REMARK  status: ('A' for Active; 'I' for Inactive)
REMARK    1  A    between atoms: C_1  and  C_2
REMARK    2  A    between atoms: C_4  and  C_5
REMARK    3  A    between atoms: N_7  and  C_8
REMARK    4  A    between atoms: C_12  and  C_13
REMARK    5  A    between atoms: C_13  and  C_14
REMARK    6  A    between atoms: C_13  and  S_15
REMARK    7  A    between atoms: S_15  and  C_16
REMARK    8  A    between atoms: N_20  and  C_21
REMARK                            x       y       z     vdW  Elec       q    Type
REMARK                         _______ _______ _______ _____ _____    ______ ____
ROOT
ATOM      1  C   UNL     1       0.773   9.552  19.850  0.00  0.00    +0.000 A 
ATOM      2  C   UNL     1       0.956   9.829  18.490  0.00  0.00    +0.000 A 
ATOM      3  C   UNL     1       1.712   8.987  17.674  0.00  0.00    +0.000 A 
ATOM      4  C   UNL     1       2.295   7.845  18.211  0.00  0.00    +0.000 A 
ATOM      5  C   UNL     1       2.145   7.531  19.574  0.00  0.00    +0.000 A 
ATOM      6  C   UNL     1       1.410   8.421  20.394  0.00  0.00    +0.000 A 
ENDROOT
BRANCH   1   9
ATOM      7  C   UNL     1       0.383  11.511  21.330  0.00  0.00    +0.000 C 
ATOM      8  O   UNL     1       1.517  11.976  21.270  0.00  0.00    +0.000 OA
ATOM      9  N   UNL     1      -0.048  10.362  20.678  0.00  0.00    +0.000 N 
ATOM     10  H   UNL     1      -1.049  10.193  20.699  0.00  0.00    +0.000 HD
BRANCH   7  14
ATOM     11  C   UNL     1      -3.754  12.293  24.053  0.00  0.00    +0.000 C 
ATOM     12  C   UNL     1      -2.485  12.536  23.311  0.00  0.00    +0.000 A 
ATOM     13  N   UNL     1      -1.789  11.629  22.648  0.00  0.00    +0.000 NA
ATOM     14  C   UNL     1      -0.645  12.224  22.108  0.00  0.00    +0.000 A 
ATOM     15  C   UNL     1      -0.533  13.582  22.365  0.00  0.00    +0.000 A 
ATOM     16  S   UNL     1      -1.844  14.134  23.300  0.00  0.00    +0.000 S 
ENDBRANCH   7  14
ENDBRANCH   1   9
BRANCH   5  17
ATOM     17  C   UNL     1       2.752   6.246  20.146  0.00  0.00    +0.000 C 
ATOM     18  C   UNL     1       3.926   5.767  19.282  0.00  0.00    +0.000 C 
BRANCH  17  19
ATOM     19  S   UNL     1       1.473   4.916  20.278  0.00  0.00    +0.000 S 
BRANCH  19  20
ATOM     20  C   UNL     1       1.906   3.867  18.976  0.00  0.00    +0.000 A 
ATOM     21  N   UNL     1       1.495   3.948  17.731  0.00  0.00    +0.000 NA
ATOM     22  N   UNL     1       2.068   2.912  17.028  0.00  0.00    +0.000 NA
ATOM     23  C   UNL     1       2.820   2.233  17.864  0.00  0.00    +0.000 A 
ATOM     24  N   UNL     1       2.755   2.801  19.103  0.00  0.00    +0.000 N 
ATOM     25  C   UNL     1       3.446   2.327  20.272  0.00  0.00    +0.000 C 
ENDBRANCH  19  20
ENDBRANCH  17  19
ENDBRANCH   5  17
TORSDOF 5
ENDMDL
