MODEL 1
REMARK VINA RESULT:      -9.9      0.000      0.000
REMARK  Name = 
REMARK  8 active torsions:
REMARK  status: ('A' for Active; 'I' for Inactive)
REMARK    1  A    between atoms: C_1  and  N_2
REMARK    2  A    between atoms: C_6  and  C_7
REMARK    3  A    between atoms: C_7  and  C_9
REMARK    4  A    between atoms: C_9  and  C_10
REMARK    5  A    between atoms: C_14  and  N_15
REMARK    6  A    between atoms: C_20  and  C_21
REMARK    7  A    between atoms: C_21  and  N_22
REMARK    8  A    between atoms: C_31  and  C_32
REMARK                            x       y       z     vdW  Elec       q    Type
REMARK                         _______ _______ _______ _____ _____    ______ ____
ROOT
ATOM      1  N   UNL     1       2.136   7.469  19.271  0.00  0.00    +0.000 N 
ATOM      2  C   UNL     1       1.433   7.787  20.491  0.00  0.00    +0.000 C 
ATOM      3  C   UNL     1       0.933   9.173  20.287  0.00  0.00    +0.000 A 
ATOM      4  C   UNL     1       1.269   9.623  19.016  0.00  0.00    +0.000 A 
ATOM      5  C   UNL     1       0.874  10.881  18.555  0.00  0.00    +0.000 A 
ATOM      6  C   UNL     1       0.084  11.730  19.379  0.00  0.00    +0.000 A 
ATOM      7  C   UNL     1      -0.239  11.239  20.674  0.00  0.00    +0.000 A 
ATOM      8  C   UNL     1       0.204   9.981  21.161  0.00  0.00    +0.000 A 
ATOM      9  C   UNL     1       2.075   8.538  18.367  0.00  0.00    +0.000 C 
ATOM     10  O   UNL     1       2.553   8.675  17.256  0.00  0.00    +0.000 OA
ENDROOT
BRANCH   1  15
ATOM     11  C   UNL     1       4.553   4.891  17.883  0.00  0.00    +0.000 A 
ATOM     12  C   UNL     1       4.155   3.773  18.623  0.00  0.00    +0.000 A 
ATOM     13  C   UNL     1       3.128   3.858  19.574  0.00  0.00    +0.000 A 
ATOM     14  C   UNL     1       2.464   5.072  19.807  0.00  0.00    +0.000 A 
ATOM     15  C   UNL     1       2.819   6.218  19.119  0.00  0.00    +0.000 A 
ATOM     16  C   UNL     1       3.880   6.099  18.178  0.00  0.00    +0.000 A 
BRANCH  11  17
ATOM     17  C   UNL     1       5.592   4.790  16.627  0.00  0.00    +0.000 C 
ATOM     18  C   UNL     1       5.374   5.652  15.354  0.00  0.00    +0.000 C 
ATOM     19  O   UNL     1       4.782   4.524  14.656  0.00  0.00    +0.000 OA
ATOM     20  C   UNL     1       5.362   3.621  15.627  0.00  0.00    +0.000 C 
BRANCH  17  21
ATOM     21  C   UNL     1       7.026   4.824  17.172  0.00  0.00    +0.000 C 
ATOM     22  F   UNL     1       7.873   4.280  16.248  0.00  0.00    +0.000 F 
BRANCH  21  28
ATOM     23  C   UNL     1       8.159   5.778  19.922  0.00  0.00    +0.000 C 
ATOM     24  N   UNL     1       7.993   6.581  18.741  0.00  0.00    +0.000 N 
ATOM     25  C   UNL     1       8.298   7.902  18.633  0.00  0.00    +0.000 A 
ATOM     26  N   UNL     1       7.939   8.336  17.448  0.00  0.00    +0.000 NA
ATOM     27  N   UNL     1       7.419   7.271  16.752  0.00  0.00    +0.000 NA
ATOM     28  C   UNL     1       7.478   6.203  17.525  0.00  0.00    +0.000 A 
ENDBRANCH  21  28
ENDBRANCH  17  21
ENDBRANCH  11  17
ENDBRANCH   1  15
BRANCH   8  29
ATOM     29  C   UNL     1      -0.074   9.532  22.575  0.00  0.00    +0.000 C 
ATOM     30  F   UNL     1      -0.747  10.458  23.322  0.00  0.00    +0.000 F 
ATOM     31  F   UNL     1      -0.849   8.414  22.620  0.00  0.00    +0.000 F 
ATOM     32  F   UNL     1       1.053   9.250  23.278  0.00  0.00    +0.000 F 
ENDBRANCH   8  29
BRANCH   6  33
ATOM     33  C   UNL     1      -0.368  13.104  18.803  0.00  0.00    +0.000 C 
BRANCH  33  34
ATOM     34  N   UNL     1       0.576  14.227  18.827  0.00  0.00    +0.000 NA
ATOM     35  C   UNL     1       0.054  15.593  18.766  0.00  0.00    +0.000 C 
ATOM     36  C   UNL     1      -0.710  15.981  20.053  0.00  0.00    +0.000 C 
ATOM     37  C   UNL     1       0.086  15.847  21.350  0.00  0.00    +0.000 C 
ATOM     38  C   UNL     1       0.959  14.590  21.339  0.00  0.00    +0.000 C 
ATOM     39  C   UNL     1       1.562  14.316  19.942  0.00  0.00    +0.000 C 
ATOM     40  C   UNL     1       2.352  15.582  19.533  0.00  0.00    +0.000 C 
ATOM     41  C   UNL     1       1.418  16.261  18.533  0.00  0.00    +0.000 C 
ENDBRANCH  33  34
ENDBRANCH   6  33
TORSDOF 7
ENDMDL
MODEL 2
REMARK VINA RESULT:      -9.7      1.570      2.363
REMARK  Name = 
REMARK  8 active torsions:
REMARK  status: ('A' for Active; 'I' for Inactive)
REMARK    1  A    between atoms: C_1  and  N_2
REMARK    2  A    between atoms: C_6  and  C_7
REMARK    3  A    between atoms: C_7  and  C_9
REMARK    4  A    between atoms: C_9  and  C_10
REMARK    5  A    between atoms: C_14  and  N_15
REMARK    6  A    between atoms: C_20  and  C_21
REMARK    7  A    between atoms: C_21  and  N_22
REMARK    8  A    between atoms: C_31  and  C_32
REMARK                            x       y       z     vdW  Elec       q    Type
REMARK                         _______ _______ _______ _____ _____    ______ ____
ROOT
ATOM      1  N   UNL     1       2.099   7.675  19.536  0.00  0.00    +0.000 N 
ATOM      2  C   UNL     1       1.349   7.966  20.734  0.00  0.00    +0.000 C 
ATOM      3  C   UNL     1       0.755   9.307  20.491  0.00  0.00    +0.000 A 
ATOM      4  C   UNL     1       1.084   9.755  19.218  0.00  0.00    +0.000 A 
ATOM      5  C   UNL     1       0.608  10.971  18.722  0.00  0.00    +0.000 A 
ATOM      6  C   UNL     1      -0.258  11.776  19.511  0.00  0.00    +0.000 A 
ATOM      7  C   UNL     1      -0.572  11.289  20.811  0.00  0.00    +0.000 A 
ATOM      8  C   UNL     1      -0.049  10.077  21.333  0.00  0.00    +0.000 A 
ATOM      9  C   UNL     1       1.980   8.719  18.608  0.00  0.00    +0.000 C 
ATOM     10  O   UNL     1       2.471   8.868  17.504  0.00  0.00    +0.000 OA
ENDROOT
BRANCH   1  15
ATOM     11  C   UNL     1       5.057   5.418  18.777  0.00  0.00    +0.000 A 
ATOM     12  C   UNL     1       4.473   4.173  19.031  0.00  0.00    +0.000 A 
ATOM     13  C   UNL     1       3.143   4.067  19.460  0.00  0.00    +0.000 A 
ATOM     14  C   UNL     1       2.354   5.212  19.643  0.00  0.00    +0.000 A 
ATOM     15  C   UNL     1       2.875   6.475  19.425  0.00  0.00    +0.000 A 
ATOM     16  C   UNL     1       4.235   6.545  19.011  0.00  0.00    +0.000 A 
BRANCH  11  17
ATOM     17  C   UNL     1       6.525   5.576  18.080  0.00  0.00    +0.000 C 
ATOM     18  C   UNL     1       7.473   4.353  17.956  0.00  0.00    +0.000 C 
ATOM     19  O   UNL     1       8.233   4.790  19.115  0.00  0.00    +0.000 OA
ATOM     20  C   UNL     1       7.669   6.116  18.983  0.00  0.00    +0.000 C 
BRANCH  17  21
ATOM     21  C   UNL     1       6.368   6.384  16.784  0.00  0.00    +0.000 C 
ATOM     22  F   UNL     1       7.252   7.426  16.791  0.00  0.00    +0.000 F 
BRANCH  21  28
ATOM     23  C   UNL     1       4.432   4.209  15.652  0.00  0.00    +0.000 C 
ATOM     24  N   UNL     1       5.684   4.622  15.077  0.00  0.00    +0.000 N 
ATOM     25  C   UNL     1       6.237   4.120  13.940  0.00  0.00    +0.000 A 
ATOM     26  N   UNL     1       7.418   4.659  13.756  0.00  0.00    +0.000 NA
ATOM     27  N   UNL     1       7.632   5.557  14.774  0.00  0.00    +0.000 NA
ATOM     28  C   UNL     1       6.570   5.555  15.558  0.00  0.00    +0.000 A 
ENDBRANCH  21  28
ENDBRANCH  17  21
ENDBRANCH  11  17
ENDBRANCH   1  15
BRANCH   8  29
ATOM     29  C   UNL     1      -0.324   9.637  22.751  0.00  0.00    +0.000 C 
ATOM     30  F   UNL     1      -1.102  10.513  23.455  0.00  0.00    +0.000 F 
ATOM     31  F   UNL     1      -0.993   8.452  22.804  0.00  0.00    +0.000 F 
ATOM     32  F   UNL     1       0.804   9.478  23.490  0.00  0.00    +0.000 F 
ENDBRANCH   8  29
BRANCH   6  33
ATOM     33  C   UNL     1      -0.797  13.101  18.897  0.00  0.00    +0.000 C 
BRANCH  33  34
ATOM     34  N   UNL     1       0.084  14.275  18.862  0.00  0.00    +0.000 NA
ATOM     35  C   UNL     1      -0.515  15.609  18.822  0.00  0.00    +0.000 C 
ATOM     36  C   UNL     1      -1.229  15.967  20.146  0.00  0.00    +0.000 C 
ATOM     37  C   UNL     1      -0.359  15.890  21.398  0.00  0.00    +0.000 C 
ATOM     38  C   UNL     1       0.582  14.682  21.348  0.00  0.00    +0.000 C 
ATOM     39  C   UNL     1       1.122  14.429  19.922  0.00  0.00    +0.000 C 
ATOM     40  C   UNL     1       1.818  15.731  19.462  0.00  0.00    +0.000 C 
ATOM     41  C   UNL     1       0.795  16.349  18.510  0.00  0.00    +0.000 C 
ENDBRANCH  33  34
ENDBRANCH   6  33
TORSDOF 7
ENDMDL
MODEL 3
REMARK VINA RESULT:      -9.6      0.481      1.406
REMARK  Name = 
REMARK  8 active torsions:
REMARK  status: ('A' for Active; 'I' for Inactive)
REMARK    1  A    between atoms: C_1  and  N_2
REMARK    2  A    between atoms: C_6  and  C_7
REMARK    3  A    between atoms: C_7  and  C_9
REMARK    4  A    between atoms: C_9  and  C_10
REMARK    5  A    between atoms: C_14  and  N_15
REMARK    6  A    between atoms: C_20  and  C_21
REMARK    7  A    between atoms: C_21  and  N_22
REMARK    8  A    between atoms: C_31  and  C_32
REMARK                            x       y       z     vdW  Elec       q    Type
REMARK                         _______ _______ _______ _____ _____    ______ ____
ROOT
ATOM      1  N   UNL     1       2.071   7.460  19.046  0.00  0.00    +0.000 N 
ATOM      2  C   UNL     1       1.438   7.769  20.305  0.00  0.00    +0.000 C 
ATOM      3  C   UNL     1       1.056   9.202  20.192  0.00  0.00    +0.000 A 
ATOM      4  C   UNL     1       1.390   9.691  18.936  0.00  0.00    +0.000 A 
ATOM      5  C   UNL     1       1.093  11.001  18.556  0.00  0.00    +0.000 A 
ATOM      6  C   UNL     1       0.407  11.868  19.450  0.00  0.00    +0.000 A 
ATOM      7  C   UNL     1       0.082  11.337  20.729  0.00  0.00    +0.000 A 
ATOM      8  C   UNL     1       0.428  10.020  21.133  0.00  0.00    +0.000 A 
ATOM      9  C   UNL     1       2.077   8.578  18.202  0.00  0.00    +0.000 C 
ATOM     10  O   UNL     1       2.530   8.734  17.083  0.00  0.00    +0.000 OA
ENDROOT
BRANCH   1  15
ATOM     11  C   UNL     1       4.375   4.804  17.611  0.00  0.00    +0.000 A 
ATOM     12  C   UNL     1       3.769   3.659  18.136  0.00  0.00    +0.000 A 
ATOM     13  C   UNL     1       2.638   3.747  18.960  0.00  0.00    +0.000 A 
ATOM     14  C   UNL     1       2.077   4.992  19.279  0.00  0.00    +0.000 A 
ATOM     15  C   UNL     1       2.637   6.165  18.805  0.00  0.00    +0.000 A 
ATOM     16  C   UNL     1       3.797   6.037  17.989  0.00  0.00    +0.000 A 
BRANCH  11  17
ATOM     17  C   UNL     1       5.557   4.737  16.486  0.00  0.00    +0.000 C 
ATOM     18  C   UNL     1       5.483   5.623  15.213  0.00  0.00    +0.000 C 
ATOM     19  O   UNL     1       4.990   4.504  14.428  0.00  0.00    +0.000 OA
ATOM     20  C   UNL     1       5.460   3.587  15.444  0.00  0.00    +0.000 C 
BRANCH  17  21
ATOM     21  C   UNL     1       6.915   4.773  17.199  0.00  0.00    +0.000 C 
ATOM     22  F   UNL     1       7.849   4.146  16.422  0.00  0.00    +0.000 F 
BRANCH  21  28
ATOM     23  C   UNL     1       8.161   5.772  19.883  0.00  0.00    +0.000 C 
ATOM     24  N   UNL     1       7.932   6.559  18.702  0.00  0.00    +0.000 N 
ATOM     25  C   UNL     1       8.217   7.882  18.564  0.00  0.00    +0.000 A 
ATOM     26  N   UNL     1       7.800   8.298  17.392  0.00  0.00    +0.000 NA
ATOM     27  N   UNL     1       7.261   7.219  16.733  0.00  0.00    +0.000 NA
ATOM     28  C   UNL     1       7.367   6.161  17.515  0.00  0.00    +0.000 A 
ENDBRANCH  21  28
ENDBRANCH  17  21
ENDBRANCH  11  17
ENDBRANCH   1  15
BRANCH   8  29
ATOM     29  C   UNL     1       0.156   9.519  22.531  0.00  0.00    +0.000 C 
ATOM     30  F   UNL     1      -0.681   8.438  22.571  0.00  0.00    +0.000 F 
ATOM     31  F   UNL     1       1.289   9.110  23.165  0.00  0.00    +0.000 F 
ATOM     32  F   UNL     1      -0.420  10.453  23.331  0.00  0.00    +0.000 F 
ENDBRANCH   8  29
BRANCH   6  33
ATOM     33  C   UNL     1       0.060  13.306  18.964  0.00  0.00    +0.000 C 
BRANCH  33  34
ATOM     34  N   UNL     1       0.116  14.412  19.927  0.00  0.00    +0.000 NA
ATOM     35  C   UNL     1       1.416  14.991  20.267  0.00  0.00    +0.000 C 
ATOM     36  C   UNL     1       2.038  15.762  19.079  0.00  0.00    +0.000 C 
ATOM     37  C   UNL     1       1.171  16.880  18.503  0.00  0.00    +0.000 C 
ATOM     38  C   UNL     1      -0.303  16.469  18.450  0.00  0.00    +0.000 C 
ATOM     39  C   UNL     1      -0.713  15.626  19.679  0.00  0.00    +0.000 C 
ATOM     40  C   UNL     1      -0.385  16.466  20.936  0.00  0.00    +0.000 C 
ATOM     41  C   UNL     1       0.902  15.824  21.451  0.00  0.00    +0.000 C 
ENDBRANCH  33  34
ENDBRANCH   6  33
TORSDOF 7
ENDMDL
MODEL 4
REMARK VINA RESULT:      -9.6      1.650      2.830
REMARK  Name = 
REMARK  8 active torsions:
REMARK  status: ('A' for Active; 'I' for Inactive)
REMARK    1  A    between atoms: C_1  and  N_2
REMARK    2  A    between atoms: C_6  and  C_7
REMARK    3  A    between atoms: C_7  and  C_9
REMARK    4  A    between atoms: C_9  and  C_10
REMARK    5  A    between atoms: C_14  and  N_15
REMARK    6  A    between atoms: C_20  and  C_21
REMARK    7  A    between atoms: C_21  and  N_22
REMARK    8  A    between atoms: C_31  and  C_32
REMARK                            x       y       z     vdW  Elec       q    Type
REMARK                         _______ _______ _______ _____ _____    ______ ____
ROOT
ATOM      1  N   UNL     1       2.134   7.489  19.072  0.00  0.00    +0.000 N 
ATOM      2  C   UNL     1       1.469   7.769  20.323  0.00  0.00    +0.000 C 
ATOM      3  C   UNL     1       1.035   9.187  20.208  0.00  0.00    +0.000 A 
ATOM      4  C   UNL     1       1.371   9.693  18.958  0.00  0.00    +0.000 A 
ATOM      5  C   UNL     1       1.030  10.993  18.578  0.00  0.00    +0.000 A 
ATOM      6  C   UNL     1       0.298  11.830  19.464  0.00  0.00    +0.000 A 
ATOM      7  C   UNL     1      -0.027  11.282  20.736  0.00  0.00    +0.000 A 
ATOM      8  C   UNL     1       0.363   9.978  21.141  0.00  0.00    +0.000 A 
ATOM      9  C   UNL     1       2.111   8.610  18.232  0.00  0.00    +0.000 C 
ATOM     10  O   UNL     1       2.576   8.787  17.121  0.00  0.00    +0.000 OA
ENDROOT
BRANCH   1  15
ATOM     11  C   UNL     1       4.703   4.957  17.886  0.00  0.00    +0.000 A 
ATOM     12  C   UNL     1       4.024   3.773  18.189  0.00  0.00    +0.000 A 
ATOM     13  C   UNL     1       2.756   3.795  18.788  0.00  0.00    +0.000 A 
ATOM     14  C   UNL     1       2.128   5.010  19.097  0.00  0.00    +0.000 A 
ATOM     15  C   UNL     1       2.752   6.217  18.837  0.00  0.00    +0.000 A 
ATOM     16  C   UNL     1       4.047   6.156  18.248  0.00  0.00    +0.000 A 
BRANCH  11  17
ATOM     17  C   UNL     1       6.078   4.981  17.004  0.00  0.00    +0.000 C 
ATOM     18  C   UNL     1       7.440   4.631  17.661  0.00  0.00    +0.000 C 
ATOM     19  O   UNL     1       7.772   6.040  17.791  0.00  0.00    +0.000 OA
ATOM     20  C   UNL     1       6.756   6.367  16.814  0.00  0.00    +0.000 C 
BRANCH  17  21
ATOM     21  C   UNL     1       5.819   4.264  15.672  0.00  0.00    +0.000 C 
ATOM     22  F   UNL     1       4.518   4.459  15.301  0.00  0.00    +0.000 F 
BRANCH  21  28
ATOM     23  C   UNL     1       5.760   3.368  12.681  0.00  0.00    +0.000 C 
ATOM     24  N   UNL     1       6.661   4.321  13.270  0.00  0.00    +0.000 N 
ATOM     25  C   UNL     1       7.650   4.986  12.614  0.00  0.00    +0.000 A 
ATOM     26  N   UNL     1       8.333   5.706  13.472  0.00  0.00    +0.000 NA
ATOM     27  N   UNL     1       7.761   5.537  14.710  0.00  0.00    +0.000 NA
ATOM     28  C   UNL     1       6.732   4.721  14.582  0.00  0.00    +0.000 A 
ENDBRANCH  21  28
ENDBRANCH  17  21
ENDBRANCH  11  17
ENDBRANCH   1  15
BRANCH   8  29
ATOM     29  C   UNL     1       0.087   9.461  22.533  0.00  0.00    +0.000 C 
ATOM     30  F   UNL     1       1.213   9.083  23.209  0.00  0.00    +0.000 F 
ATOM     31  F   UNL     1      -0.501  10.398  23.325  0.00  0.00    +0.000 F 
ATOM     32  F   UNL     1      -0.727   8.374  22.548  0.00  0.00    +0.000 F 
ENDBRANCH   8  29
BRANCH   6  33
ATOM     33  C   UNL     1      -0.096  13.255  18.977  0.00  0.00    +0.000 C 
BRANCH  33  34
ATOM     34  N   UNL     1       0.029  14.382  19.909  0.00  0.00    +0.000 NA
ATOM     35  C   UNL     1       1.363  14.891  20.230  0.00  0.00    +0.000 C 
ATOM     36  C   UNL     1       2.025  15.592  19.021  0.00  0.00    +0.000 C 
ATOM     37  C   UNL     1       1.224  16.742  18.415  0.00  0.00    +0.000 C 
ATOM     38  C   UNL     1      -0.272  16.419  18.376  0.00  0.00    +0.000 C 
ATOM     39  C   UNL     1      -0.727  15.636  19.629  0.00  0.00    +0.000 C 
ATOM     40  C   UNL     1      -0.345  16.489  20.862  0.00  0.00    +0.000 C 
ATOM     41  C   UNL     1       0.903  15.785  21.392  0.00  0.00    +0.000 C 
ENDBRANCH  33  34
ENDBRANCH   6  33
TORSDOF 7
ENDMDL
MODEL 5
REMARK VINA RESULT:      -9.5      1.574      2.494
REMARK  Name = 
REMARK  8 active torsions:
REMARK  status: ('A' for Active; 'I' for Inactive)
REMARK    1  A    between atoms: C_1  and  N_2
REMARK    2  A    between atoms: C_6  and  C_7
REMARK    3  A    between atoms: C_7  and  C_9
REMARK    4  A    between atoms: C_9  and  C_10
REMARK    5  A    between atoms: C_14  and  N_15
REMARK    6  A    between atoms: C_20  and  C_21
REMARK    7  A    between atoms: C_21  and  N_22
REMARK    8  A    between atoms: C_31  and  C_32
REMARK                            x       y       z     vdW  Elec       q    Type
REMARK                         _______ _______ _______ _____ _____    ______ ____
ROOT
ATOM      1  N   UNL     1       2.019   7.585  19.177  0.00  0.00    +0.000 N 
ATOM      2  C   UNL     1       1.359   7.885  20.426  0.00  0.00    +0.000 C 
ATOM      3  C   UNL     1       0.919   9.299  20.288  0.00  0.00    +0.000 A 
ATOM      4  C   UNL     1       1.246   9.784  19.028  0.00  0.00    +0.000 A 
ATOM      5  C   UNL     1       0.899  11.076  18.626  0.00  0.00    +0.000 A 
ATOM      6  C   UNL     1       0.168  11.925  19.501  0.00  0.00    +0.000 A 
ATOM      7  C   UNL     1      -0.148  11.399  20.784  0.00  0.00    +0.000 A 
ATOM      8  C   UNL     1       0.248  10.103  21.211  0.00  0.00    +0.000 A 
ATOM      9  C   UNL     1       1.987   8.691  18.318  0.00  0.00    +0.000 C 
ATOM     10  O   UNL     1       2.446   8.850  17.202  0.00  0.00    +0.000 OA
ENDROOT
BRANCH   1  15
ATOM     11  C   UNL     1       4.618   5.046  18.074  0.00  0.00    +0.000 A 
ATOM     12  C   UNL     1       3.926   3.864  18.354  0.00  0.00    +0.000 A 
ATOM     13  C   UNL     1       2.639   3.889  18.910  0.00  0.00    +0.000 A 
ATOM     14  C   UNL     1       2.005   5.106  19.200  0.00  0.00    +0.000 A 
ATOM     15  C   UNL     1       2.641   6.312  18.961  0.00  0.00    +0.000 A 
ATOM     16  C   UNL     1       3.954   6.247  18.416  0.00  0.00    +0.000 A 
BRANCH  11  17
ATOM     17  C   UNL     1       6.021   5.067  17.238  0.00  0.00    +0.000 C 
ATOM     18  C   UNL     1       7.375   4.864  17.969  0.00  0.00    +0.000 C 
ATOM     19  O   UNL     1       7.622   6.297  17.969  0.00  0.00    +0.000 OA
ATOM     20  C   UNL     1       6.627   6.466  16.932  0.00  0.00    +0.000 C 
BRANCH  17  21
ATOM     21  C   UNL     1       5.852   4.210  15.976  0.00  0.00    +0.000 C 
ATOM     22  F   UNL     1       4.538   4.213  15.601  0.00  0.00    +0.000 F 
BRANCH  21  28
ATOM     23  C   UNL     1       5.545   3.445  12.963  0.00  0.00    +0.000 C 
ATOM     24  N   UNL     1       6.525   4.335  13.524  0.00  0.00    +0.000 N 
ATOM     25  C   UNL     1       7.493   4.988  12.825  0.00  0.00    +0.000 A 
ATOM     26  N   UNL     1       8.265   5.644  13.659  0.00  0.00    +0.000 NA
ATOM     27  N   UNL     1       7.774   5.445  14.927  0.00  0.00    +0.000 NA
ATOM     28  C   UNL     1       6.705   4.676  14.842  0.00  0.00    +0.000 A 
ENDBRANCH  21  28
ENDBRANCH  17  21
ENDBRANCH  11  17
ENDBRANCH   1  15
BRANCH   8  29
ATOM     29  C   UNL     1      -0.019   9.610  22.613  0.00  0.00    +0.000 C 
ATOM     30  F   UNL     1       1.114   9.275  23.300  0.00  0.00    +0.000 F 
ATOM     31  F   UNL     1      -0.633  10.549  23.383  0.00  0.00    +0.000 F 
ATOM     32  F   UNL     1      -0.806   8.504  22.650  0.00  0.00    +0.000 F 
ENDBRANCH   8  29
BRANCH   6  33
ATOM     33  C   UNL     1      -0.233  13.341  18.991  0.00  0.00    +0.000 C 
BRANCH  33  34
ATOM     34  N   UNL     1       0.793  14.388  18.928  0.00  0.00    +0.000 NA
ATOM     35  C   UNL     1       0.372  15.789  18.870  0.00  0.00    +0.000 C 
ATOM     36  C   UNL     1      -0.274  16.257  20.195  0.00  0.00    +0.000 C 
ATOM     37  C   UNL     1       0.594  16.086  21.440  0.00  0.00    +0.000 C 
ATOM     38  C   UNL     1       1.367  14.765  21.401  0.00  0.00    +0.000 C 
ATOM     39  C   UNL     1       1.854  14.421  19.975  0.00  0.00    +0.000 C 
ATOM     40  C   UNL     1       2.709  15.615  19.486  0.00  0.00    +0.000 C 
ATOM     41  C   UNL     1       1.764  16.346  18.534  0.00  0.00    +0.000 C 
ENDBRANCH  33  34
ENDBRANCH   6  33
TORSDOF 7
ENDMDL
MODEL 6
REMARK VINA RESULT:      -9.3      1.693      2.738
REMARK  Name = 
REMARK  8 active torsions:
REMARK  status: ('A' for Active; 'I' for Inactive)
REMARK    1  A    between atoms: C_1  and  N_2
REMARK    2  A    between atoms: C_6  and  C_7
REMARK    3  A    between atoms: C_7  and  C_9
REMARK    4  A    between atoms: C_9  and  C_10
REMARK    5  A    between atoms: C_14  and  N_15
REMARK    6  A    between atoms: C_20  and  C_21
REMARK    7  A    between atoms: C_21  and  N_22
REMARK    8  A    between atoms: C_31  and  C_32
REMARK                            x       y       z     vdW  Elec       q    Type
REMARK                         _______ _______ _______ _____ _____    ______ ____
ROOT
ATOM      1  N   UNL     1       1.995   7.788  19.158  0.00  0.00    +0.000 N 
ATOM      2  C   UNL     1       1.325   8.020  20.416  0.00  0.00    +0.000 C 
ATOM      3  C   UNL     1       0.859   9.430  20.339  0.00  0.00    +0.000 A 
ATOM      4  C   UNL     1       1.180   9.976  19.103  0.00  0.00    +0.000 A 
ATOM      5  C   UNL     1       0.809  11.277  18.757  0.00  0.00    +0.000 A 
ATOM      6  C   UNL     1       0.059  12.074  19.665  0.00  0.00    +0.000 A 
ATOM      7  C   UNL     1      -0.251  11.485  20.923  0.00  0.00    +0.000 A 
ATOM      8  C   UNL     1       0.169  10.180  21.293  0.00  0.00    +0.000 A 
ATOM      9  C   UNL     1       1.944   8.929  18.348  0.00  0.00    +0.000 C 
ATOM     10  O   UNL     1       2.403   9.147  17.242  0.00  0.00    +0.000 OA
ENDROOT
BRANCH   1  15
ATOM     11  C   UNL     1       4.576   5.342  17.828  0.00  0.00    +0.000 A 
ATOM     12  C   UNL     1       3.957   4.136  18.172  0.00  0.00    +0.000 A 
ATOM     13  C   UNL     1       2.726   4.116  18.843  0.00  0.00    +0.000 A 
ATOM     14  C   UNL     1       2.076   5.311  19.186  0.00  0.00    +0.000 A 
ATOM     15  C   UNL     1       2.642   6.537  18.889  0.00  0.00    +0.000 A 
ATOM     16  C   UNL     1       3.902   6.518  18.226  0.00  0.00    +0.000 A 
BRANCH  11  17
ATOM     17  C   UNL     1       5.895   5.411  16.867  0.00  0.00    +0.000 C 
ATOM     18  C   UNL     1       7.077   4.428  17.082  0.00  0.00    +0.000 C 
ATOM     19  O   UNL     1       7.830   5.445  17.797  0.00  0.00    +0.000 OA
ATOM     20  C   UNL     1       6.972   6.469  17.240  0.00  0.00    +0.000 C 
BRANCH  17  21
ATOM     21  C   UNL     1       5.434   5.530  15.408  0.00  0.00    +0.000 C 
ATOM     22  F   UNL     1       4.890   6.767  15.207  0.00  0.00    +0.000 F 
BRANCH  21  28
ATOM     23  C   UNL     1       5.439   3.493  13.040  0.00  0.00    +0.000 C 
ATOM     24  N   UNL     1       6.496   4.404  13.386  0.00  0.00    +0.000 N 
ATOM     25  C   UNL     1       7.685   4.521  12.736  0.00  0.00    +0.000 A 
ATOM     26  N   UNL     1       8.445   5.383  13.369  0.00  0.00    +0.000 NA
ATOM     27  N   UNL     1       7.728   5.867  14.437  0.00  0.00    +0.000 NA
ATOM     28  C   UNL     1       6.539   5.295  14.431  0.00  0.00    +0.000 A 
ENDBRANCH  21  28
ENDBRANCH  17  21
ENDBRANCH  11  17
ENDBRANCH   1  15
BRANCH   8  29
ATOM     29  C   UNL     1      -0.093   9.621  22.671  0.00  0.00    +0.000 C 
ATOM     30  F   UNL     1      -0.834   8.472  22.664  0.00  0.00    +0.000 F 
ATOM     31  F   UNL     1       1.056   9.294  23.324  0.00  0.00    +0.000 F 
ATOM     32  F   UNL     1      -0.766  10.481  23.478  0.00  0.00    +0.000 F 
ENDBRANCH   8  29
BRANCH   6  33
ATOM     33  C   UNL     1      -0.368  13.502  19.216  0.00  0.00    +0.000 C 
BRANCH  33  34
ATOM     34  N   UNL     1       0.289  14.663  19.828  0.00  0.00    +0.000 NA
ATOM     35  C   UNL     1       0.770  15.741  18.963  0.00  0.00    +0.000 C 
ATOM     36  C   UNL     1      -0.392  16.524  18.309  0.00  0.00    +0.000 C 
ATOM     37  C   UNL     1      -1.402  17.127  19.283  0.00  0.00    +0.000 C 
ATOM     38  C   UNL     1      -1.692  16.173  20.445  0.00  0.00    +0.000 C 
ATOM     39  C   UNL     1      -0.425  15.413  20.899  0.00  0.00    +0.000 C 
ATOM     40  C   UNL     1       0.636  16.478  21.267  0.00  0.00    +0.000 C 
ATOM     41  C   UNL     1       1.570  16.462  20.059  0.00  0.00    +0.000 C 
ENDBRANCH  33  34
ENDBRANCH   6  33
TORSDOF 7
ENDMDL
MODEL 7
REMARK VINA RESULT:      -9.2      4.476     11.473
REMARK  Name = 
REMARK  8 active torsions:
REMARK  status: ('A' for Active; 'I' for Inactive)
REMARK    1  A    between atoms: C_1  and  N_2
REMARK    2  A    between atoms: C_6  and  C_7
REMARK    3  A    between atoms: C_7  and  C_9
REMARK    4  A    between atoms: C_9  and  C_10
REMARK    5  A    between atoms: C_14  and  N_15
REMARK    6  A    between atoms: C_20  and  C_21
REMARK    7  A    between atoms: C_21  and  N_22
REMARK    8  A    between atoms: C_31  and  C_32
REMARK                            x       y       z     vdW  Elec       q    Type
REMARK                         _______ _______ _______ _____ _____    ______ ____
ROOT
ATOM      1  N   UNL     1       0.193  11.299  21.550  0.00  0.00    +0.000 N 
ATOM      2  C   UNL     1       0.618  11.033  20.197  0.00  0.00    +0.000 C 
ATOM      3  C   UNL     1       1.030   9.604  20.206  0.00  0.00    +0.000 A 
ATOM      4  C   UNL     1       0.814   9.049  21.460  0.00  0.00    +0.000 A 
ATOM      5  C   UNL     1       1.075   7.702  21.721  0.00  0.00    +0.000 A 
ATOM      6  C   UNL     1       1.549   6.850  20.686  0.00  0.00    +0.000 A 
ATOM      7  C   UNL     1       1.762   7.452  19.414  0.00  0.00    +0.000 A 
ATOM      8  C   UNL     1       1.544   8.832  19.162  0.00  0.00    +0.000 A 
ATOM      9  C   UNL     1       0.304  10.149  22.343  0.00  0.00    +0.000 C 
ATOM     10  O   UNL     1       0.074   9.965  23.524  0.00  0.00    +0.000 OA
ENDROOT
BRANCH   1  15
ATOM     11  C   UNL     1      -1.870  14.019  23.211  0.00  0.00    +0.000 A 
ATOM     12  C   UNL     1      -1.226  15.149  22.698  0.00  0.00    +0.000 A 
ATOM     13  C   UNL     1      -0.124  15.031  21.839  0.00  0.00    +0.000 A 
ATOM     14  C   UNL     1       0.363  13.770  21.464  0.00  0.00    +0.000 A 
ATOM     15  C   UNL     1      -0.220  12.612  21.948  0.00  0.00    +0.000 A 
ATOM     16  C   UNL     1      -1.323  12.772  22.834  0.00  0.00    +0.000 A 
BRANCH  11  17
ATOM     17  C   UNL     1      -3.275  14.108  24.039  0.00  0.00    +0.000 C 
ATOM     18  C   UNL     1      -4.213  15.333  23.869  0.00  0.00    +0.000 C 
ATOM     19  O   UNL     1      -3.717  15.920  25.102  0.00  0.00    +0.000 OA
ATOM     20  C   UNL     1      -3.189  14.633  25.500  0.00  0.00    +0.000 C 
BRANCH  17  21
ATOM     21  C   UNL     1      -3.988  12.752  23.941  0.00  0.00    +0.000 C 
ATOM     22  F   UNL     1      -4.188  12.256  25.199  0.00  0.00    +0.000 F 
BRANCH  21  28
ATOM     23  C   UNL     1      -4.409  12.769  20.846  0.00  0.00    +0.000 C 
ATOM     24  N   UNL     1      -5.438  12.816  21.850  0.00  0.00    +0.000 N 
ATOM     25  C   UNL     1      -6.776  12.885  21.609  0.00  0.00    +0.000 A 
ATOM     26  N   UNL     1      -7.417  13.001  22.748  0.00  0.00    +0.000 NA
ATOM     27  N   UNL     1      -6.485  12.974  23.758  0.00  0.00    +0.000 NA
ATOM     28  C   UNL     1      -5.290  12.834  23.215  0.00  0.00    +0.000 A 
ENDBRANCH  21  28
ENDBRANCH  17  21
ENDBRANCH  11  17
ENDBRANCH   1  15
BRANCH   8  29
ATOM     29  C   UNL     1       1.872   9.459  17.828  0.00  0.00    +0.000 C 
ATOM     30  F   UNL     1       2.633  10.590  17.928  0.00  0.00    +0.000 F 
ATOM     31  F   UNL     1       2.586   8.624  17.025  0.00  0.00    +0.000 F 
ATOM     32  F   UNL     1       0.770   9.825  17.124  0.00  0.00    +0.000 F 
ENDBRANCH   8  29
BRANCH   6  33
ATOM     33  C   UNL     1       1.783   5.347  21.015  0.00  0.00    +0.000 C 
BRANCH  33  34
ATOM     34  N   UNL     1       2.757   4.591  20.220  0.00  0.00    +0.000 NA
ATOM     35  C   UNL     1       2.929   3.161  20.482  0.00  0.00    +0.000 C 
ATOM     36  C   UNL     1       1.688   2.340  20.063  0.00  0.00    +0.000 C 
ATOM     37  C   UNL     1       1.265   2.495  18.604  0.00  0.00    +0.000 C 
ATOM     38  C   UNL     1       1.405   3.946  18.135  0.00  0.00    +0.000 C 
ATOM     39  C   UNL     1       2.658   4.628  18.733  0.00  0.00    +0.000 C 
ATOM     40  C   UNL     1       3.878   3.764  18.336  0.00  0.00    +0.000 C 
ATOM     41  C   UNL     1       4.194   3.006  19.624  0.00  0.00    +0.000 C 
ENDBRANCH  33  34
ENDBRANCH   6  33
TORSDOF 7
ENDMDL
MODEL 8
REMARK VINA RESULT:      -9.1      4.451     11.444
REMARK  Name = 
REMARK  8 active torsions:
REMARK  status: ('A' for Active; 'I' for Inactive)
REMARK    1  A    between atoms: C_1  and  N_2
REMARK    2  A    between atoms: C_6  and  C_7
REMARK    3  A    between atoms: C_7  and  C_9
REMARK    4  A    between atoms: C_9  and  C_10
REMARK    5  A    between atoms: C_14  and  N_15
REMARK    6  A    between atoms: C_20  and  C_21
REMARK    7  A    between atoms: C_21  and  N_22
REMARK    8  A    between atoms: C_31  and  C_32
REMARK                            x       y       z     vdW  Elec       q    Type
REMARK                         _______ _______ _______ _____ _____    ______ ____
ROOT
ATOM      1  N   UNL     1       0.259  11.230  21.599  0.00  0.00    +0.000 N 
ATOM      2  C   UNL     1       0.657  10.981  20.234  0.00  0.00    +0.000 C 
ATOM      3  C   UNL     1       1.066   9.552  20.216  0.00  0.00    +0.000 A 
ATOM      4  C   UNL     1       0.873   8.980  21.467  0.00  0.00    +0.000 A 
ATOM      5  C   UNL     1       1.135   7.629  21.705  0.00  0.00    +0.000 A 
ATOM      6  C   UNL     1       1.587   6.791  20.649  0.00  0.00    +0.000 A 
ATOM      7  C   UNL     1       1.777   7.408  19.382  0.00  0.00    +0.000 A 
ATOM      8  C   UNL     1       1.557   8.792  19.152  0.00  0.00    +0.000 A 
ATOM      9  C   UNL     1       0.383  10.069  22.374  0.00  0.00    +0.000 C 
ATOM     10  O   UNL     1       0.174   9.870  23.557  0.00  0.00    +0.000 OA
ENDROOT
BRANCH   1  15
ATOM     11  C   UNL     1      -1.817  13.941  23.259  0.00  0.00    +0.000 A 
ATOM     12  C   UNL     1      -1.127  15.072  22.812  0.00  0.00    +0.000 A 
ATOM     13  C   UNL     1       0.009  14.957  21.998  0.00  0.00    +0.000 A 
ATOM     14  C   UNL     1       0.484  13.698  21.603  0.00  0.00    +0.000 A 
ATOM     15  C   UNL     1      -0.144  12.539  22.022  0.00  0.00    +0.000 A 
ATOM     16  C   UNL     1      -1.280  12.694  22.865  0.00  0.00    +0.000 A 
BRANCH  11  17
ATOM     17  C   UNL     1      -3.255  14.035  24.028  0.00  0.00    +0.000 C 
ATOM     18  C   UNL     1      -4.185  15.258  23.810  0.00  0.00    +0.000 C 
ATOM     19  O   UNL     1      -3.741  15.855  25.058  0.00  0.00    +0.000 OA
ATOM     20  C   UNL     1      -3.229  14.570  25.487  0.00  0.00    +0.000 C 
BRANCH  17  21
ATOM     21  C   UNL     1      -3.963  12.678  23.911  0.00  0.00    +0.000 C 
ATOM     22  F   UNL     1      -4.567  12.381  25.101  0.00  0.00    +0.000 F 
BRANCH  21  28
ATOM     23  C   UNL     1      -7.056  13.016  24.184  0.00  0.00    +0.000 C 
ATOM     24  N   UNL     1      -6.322  12.818  22.964  0.00  0.00    +0.000 N 
ATOM     25  C   UNL     1      -6.863  12.737  21.718  0.00  0.00    +0.000 A 
ATOM     26  N   UNL     1      -5.919  12.467  20.849  0.00  0.00    +0.000 NA
ATOM     27  N   UNL     1      -4.728  12.402  21.533  0.00  0.00    +0.000 NA
ATOM     28  C   UNL     1      -4.969  12.643  22.808  0.00  0.00    +0.000 A 
ENDBRANCH  21  28
ENDBRANCH  17  21
ENDBRANCH  11  17
ENDBRANCH   1  15
BRANCH   8  29
ATOM     29  C   UNL     1       1.860   9.436  17.821  0.00  0.00    +0.000 C 
ATOM     30  F   UNL     1       2.574   8.634  16.975  0.00  0.00    +0.000 F 
ATOM     31  F   UNL     1       0.732   9.758  17.132  0.00  0.00    +0.000 F 
ATOM     32  F   UNL     1       2.585  10.579  17.933  0.00  0.00    +0.000 F 
ENDBRANCH   8  29
BRANCH   6  33
ATOM     33  C   UNL     1       1.824   5.282  20.954  0.00  0.00    +0.000 C 
BRANCH  33  34
ATOM     34  N   UNL     1       2.795   4.540  20.143  0.00  0.00    +0.000 NA
ATOM     35  C   UNL     1       2.980   3.109  20.392  0.00  0.00    +0.000 C 
ATOM     36  C   UNL     1       1.740   2.282  19.980  0.00  0.00    +0.000 C 
ATOM     37  C   UNL     1       1.301   2.445  18.526  0.00  0.00    +0.000 C 
ATOM     38  C   UNL     1       1.426   3.901  18.067  0.00  0.00    +0.000 C 
ATOM     39  C   UNL     1       2.679   4.587  18.657  0.00  0.00    +0.000 C 
ATOM     40  C   UNL     1       3.902   3.736  18.241  0.00  0.00    +0.000 C 
ATOM     41  C   UNL     1       4.237   2.970  19.519  0.00  0.00    +0.000 C 
ENDBRANCH  33  34
ENDBRANCH   6  33
TORSDOF 7
ENDMDL
MODEL 9
REMARK VINA RESULT:      -9.1      4.503     11.487
REMARK  Name = 
REMARK  8 active torsions:
REMARK  status: ('A' for Active; 'I' for Inactive)
REMARK    1  A    between atoms: C_1  and  N_2
REMARK    2  A    between atoms: C_6  and  C_7
REMARK    3  A    between atoms: C_7  and  C_9
REMARK    4  A    between atoms: C_9  and  C_10
REMARK    5  A    between atoms: C_14  and  N_15
REMARK    6  A    between atoms: C_20  and  C_21
REMARK    7  A    between atoms: C_21  and  N_22
REMARK    8  A    between atoms: C_31  and  C_32
REMARK                            x       y       z     vdW  Elec       q    Type
REMARK                         _______ _______ _______ _____ _____    ______ ____
ROOT
ATOM      1  N   UNL     1       0.198  11.271  21.575  0.00  0.00    +0.000 N 
ATOM      2  C   UNL     1       0.596  11.007  20.213  0.00  0.00    +0.000 C 
ATOM      3  C   UNL     1       1.022   9.583  20.215  0.00  0.00    +0.000 A 
ATOM      4  C   UNL     1       0.837   9.027  21.474  0.00  0.00    +0.000 A 
ATOM      5  C   UNL     1       1.116   7.683  21.731  0.00  0.00    +0.000 A 
ATOM      6  C   UNL     1       1.576   6.834  20.687  0.00  0.00    +0.000 A 
ATOM      7  C   UNL     1       1.756   7.436  19.410  0.00  0.00    +0.000 A 
ATOM      8  C   UNL     1       1.520   8.814  19.161  0.00  0.00    +0.000 A 
ATOM      9  C   UNL     1       0.336  10.123  22.366  0.00  0.00    +0.000 C 
ATOM     10  O   UNL     1       0.133   9.939  23.553  0.00  0.00    +0.000 OA
ENDROOT
BRANCH   1  15
ATOM     11  C   UNL     1      -1.903  13.981  23.207  0.00  0.00    +0.000 A 
ATOM     12  C   UNL     1      -1.231  15.114  22.737  0.00  0.00    +0.000 A 
ATOM     13  C   UNL     1      -0.100  15.000  21.916  0.00  0.00    +0.000 A 
ATOM     14  C   UNL     1       0.389  13.742  21.537  0.00  0.00    +0.000 A 
ATOM     15  C   UNL     1      -0.220  12.581  21.980  0.00  0.00    +0.000 A 
ATOM     16  C   UNL     1      -1.352  12.735  22.829  0.00  0.00    +0.000 A 
BRANCH  11  17
ATOM     17  C   UNL     1      -3.335  14.067  23.986  0.00  0.00    +0.000 C 
ATOM     18  C   UNL     1      -4.291  15.266  23.744  0.00  0.00    +0.000 C 
ATOM     19  O   UNL     1      -3.848  15.904  24.972  0.00  0.00    +0.000 OA
ATOM     20  C   UNL     1      -3.308  14.642  25.430  0.00  0.00    +0.000 C 
BRANCH  17  21
ATOM     21  C   UNL     1      -4.018  12.694  23.912  0.00  0.00    +0.000 C 
ATOM     22  F   UNL     1      -4.158  12.192  25.175  0.00  0.00    +0.000 F 
BRANCH  21  28
ATOM     23  C   UNL     1      -4.551  12.782  20.836  0.00  0.00    +0.000 C 
ATOM     24  N   UNL     1      -5.544  12.760  21.875  0.00  0.00    +0.000 N 
ATOM     25  C   UNL     1      -6.891  12.781  21.684  0.00  0.00    +0.000 A 
ATOM     26  N   UNL     1      -7.495  12.839  22.848  0.00  0.00    +0.000 NA
ATOM     27  N   UNL     1      -6.527  12.821  23.823  0.00  0.00    +0.000 NA
ATOM     28  C   UNL     1      -5.348  12.744  23.235  0.00  0.00    +0.000 A 
ENDBRANCH  21  28
ENDBRANCH  17  21
ENDBRANCH  11  17
ENDBRANCH   1  15
BRANCH   8  29
ATOM     29  C   UNL     1       1.813   9.442  17.820  0.00  0.00    +0.000 C 
ATOM     30  F   UNL     1       2.544  10.594  17.904  0.00  0.00    +0.000 F 
ATOM     31  F   UNL     1       2.540   8.622  17.013  0.00  0.00    +0.000 F 
ATOM     32  F   UNL     1       0.693   9.774  17.128  0.00  0.00    +0.000 F 
ENDBRANCH   8  29
BRANCH   6  33
ATOM     33  C   UNL     1       1.831   5.334  21.013  0.00  0.00    +0.000 C 
BRANCH  33  34
ATOM     34  N   UNL     1       1.596   4.332  19.966  0.00  0.00    +0.000 NA
ATOM     35  C   UNL     1       2.252   4.496  18.668  0.00  0.00    +0.000 C 
ATOM     36  C   UNL     1       3.783   4.297  18.760  0.00  0.00    +0.000 C 
ATOM     37  C   UNL     1       4.232   2.957  19.338  0.00  0.00    +0.000 C 
ATOM     38  C   UNL     1       3.342   2.529  20.509  0.00  0.00    +0.000 C 
ATOM     39  C   UNL     1       1.859   2.896  20.271  0.00  0.00    +0.000 C 
ATOM     40  C   UNL     1       1.434   2.232  18.940  0.00  0.00    +0.000 C 
ATOM     41  C   UNL     1       1.445   3.401  17.956  0.00  0.00    +0.000 C 
ENDBRANCH  33  34
ENDBRANCH   6  33
TORSDOF 7
ENDMDL
