MODEL 1
REMARK VINA RESULT:      -7.7      0.000      0.000
REMARK  Name = 
REMARK  7 active torsions:
REMARK  status: ('A' for Active; 'I' for Inactive)
REMARK    1  A    between atoms: C_1  and  C_2
REMARK    2  A    between atoms: C_2  and  S_3
REMARK    3  A    between atoms: C_2  and  C_10
REMARK    4  A    between atoms: S_3  and  C_4
REMARK    5  A    between atoms: N_8  and  C_9
REMARK    6  A    between atoms: C_16  and  C_18
REMARK    7  A    between atoms: C_21  and  C_22
REMARK                            x       y       z     vdW  Elec       q    Type
REMARK                         _______ _______ _______ _____ _____    ______ ____
ROOT
ATOM      1  C   UNL     1       0.245  10.417  19.510  0.00  0.00    +0.000 A 
ATOM      2  C   UNL     1      -0.188  10.020  20.781  0.00  0.00    +0.000 A 
ATOM      3  C   UNL     1       0.313   8.854  21.322  0.00  0.00    +0.000 A 
ATOM      4  N   UNL     1       1.190   8.058  20.690  0.00  0.00    +0.000 NA
ATOM      5  C   UNL     1       1.626   8.412  19.470  0.00  0.00    +0.000 A 
ATOM      6  N   UNL     1       2.504   7.555  18.782  0.00  0.00    +0.000 N 
ATOM      7  C   UNL     1       2.881   6.316  19.260  0.00  0.00    +0.000 C 
ATOM      8  O   UNL     1       2.521   5.792  20.311  0.00  0.00    +0.000 OA
ATOM      9  C   UNL     1       1.203   9.597  18.867  0.00  0.00    +0.000 A 
ATOM     10  H   UNL     1       2.852   7.826  17.872  0.00  0.00    +0.000 HD
ENDROOT
BRANCH   7  11
ATOM     11  C   UNL     1       3.802   5.576  18.375  0.00  0.00    +0.000 A 
ATOM     12  C   UNL     1       3.380   4.472  17.658  0.00  0.00    +0.000 A 
ATOM     13  S   UNL     1       4.653   3.813  16.744  0.00  0.00    +0.000 S 
ATOM     14  C   UNL     1       5.722   5.020  17.366  0.00  0.00    +0.000 A 
ATOM     15  N   UNL     1       5.153   5.902  18.188  0.00  0.00    +0.000 NA
BRANCH  14  16
ATOM     16  C   UNL     1       7.174   4.975  16.952  0.00  0.00    +0.000 C 
ATOM     17  F   UNL     1       7.967   4.290  17.830  0.00  0.00    +0.000 F 
ATOM     18  F   UNL     1       7.344   4.375  15.745  0.00  0.00    +0.000 F 
ATOM     19  F   UNL     1       7.713   6.219  16.854  0.00  0.00    +0.000 F 
ENDBRANCH  14  16
ENDBRANCH   7  11
BRANCH   1  21
ATOM     20  C   UNL     1       0.570  12.912  18.961  0.00  0.00    +0.000 C 
ATOM     21  C   UNL     1      -0.316  11.662  18.811  0.00  0.00    +0.000 C 
BRANCH  21  22
ATOM     22  S   UNL     1      -1.997  12.005  19.494  0.00  0.00    +0.000 S 
BRANCH  22  23
ATOM     23  C   UNL     1      -3.036  11.636  18.169  0.00  0.00    +0.000 A 
ATOM     24  N   UNL     1      -2.694  11.228  16.970  0.00  0.00    +0.000 NA
ATOM     25  N   UNL     1      -3.844  11.155  16.211  0.00  0.00    +0.000 NA
ATOM     26  C   UNL     1      -4.850  11.502  16.982  0.00  0.00    +0.000 A 
ATOM     27  N   UNL     1      -4.392  11.778  18.234  0.00  0.00    +0.000 N 
ATOM     28  C   UNL     1      -5.190  12.148  19.370  0.00  0.00    +0.000 C 
ENDBRANCH  22  23
ENDBRANCH  21  22
ENDBRANCH   1  21
TORSDOF 5
ENDMDL
MODEL 2
REMARK VINA RESULT:      -7.6      3.110      4.478
REMARK  Name = 
REMARK  7 active torsions:
REMARK  status: ('A' for Active; 'I' for Inactive)
REMARK    1  A    between atoms: C_1  and  C_2
REMARK    2  A    between atoms: C_2  and  S_3
REMARK    3  A    between atoms: C_2  and  C_10
REMARK    4  A    between atoms: S_3  and  C_4
REMARK    5  A    between atoms: N_8  and  C_9
REMARK    6  A    between atoms: C_16  and  C_18
REMARK    7  A    between atoms: C_21  and  C_22
REMARK                            x       y       z     vdW  Elec       q    Type
REMARK                         _______ _______ _______ _____ _____    ______ ____
ROOT
ATOM      1  C   UNL     1       2.043   6.919  20.139  0.00  0.00    +0.000 A 
ATOM      2  C   UNL     1       1.609   5.742  20.761  0.00  0.00    +0.000 A 
ATOM      3  C   UNL     1       2.076   4.530  20.295  0.00  0.00    +0.000 A 
ATOM      4  N   UNL     1       2.922   4.407  19.259  0.00  0.00    +0.000 NA
ATOM      5  C   UNL     1       3.358   5.518  18.643  0.00  0.00    +0.000 A 
ATOM      6  N   UNL     1       4.202   5.393  17.524  0.00  0.00    +0.000 N 
ATOM      7  C   UNL     1       4.543   4.177  16.966  0.00  0.00    +0.000 C 
ATOM      8  O   UNL     1       4.175   3.066  17.341  0.00  0.00    +0.000 OA
ATOM      9  C   UNL     1       2.969   6.786  19.076  0.00  0.00    +0.000 A 
ATOM     10  H   UNL     1       4.551   6.225  17.070  0.00  0.00    +0.000 HD
ENDROOT
BRANCH   7  11
ATOM     11  C   UNL     1       5.433   4.273  15.792  0.00  0.00    +0.000 A 
ATOM     12  C   UNL     1       6.604   5.005  15.835  0.00  0.00    +0.000 A 
ATOM     13  S   UNL     1       7.413   4.954  14.341  0.00  0.00    +0.000 S 
ATOM     14  C   UNL     1       6.147   3.972  13.692  0.00  0.00    +0.000 A 
ATOM     15  N   UNL     1       5.182   3.660  14.556  0.00  0.00    +0.000 NA
BRANCH  14  16
ATOM     16  C   UNL     1       6.226   3.568  12.238  0.00  0.00    +0.000 C 
ATOM     17  F   UNL     1       7.097   4.328  11.511  0.00  0.00    +0.000 F 
ATOM     18  F   UNL     1       6.632   2.280  12.087  0.00  0.00    +0.000 F 
ATOM     19  F   UNL     1       5.023   3.677  11.616  0.00  0.00    +0.000 F 
ENDBRANCH  14  16
ENDBRANCH   7  11
BRANCH   1  21
ATOM     20  C   UNL     1       0.198   8.252  21.342  0.00  0.00    +0.000 C 
ATOM     21  C   UNL     1       1.517   8.300  20.552  0.00  0.00    +0.000 C 
BRANCH  21  22
ATOM     22  S   UNL     1       1.293   9.315  19.026  0.00  0.00    +0.000 S 
BRANCH  22  23
ATOM     23  C   UNL     1       0.571  10.761  19.624  0.00  0.00    +0.000 A 
ATOM     24  N   UNL     1       1.086  11.628  20.463  0.00  0.00    +0.000 NA
ATOM     25  N   UNL     1       0.118  12.572  20.733  0.00  0.00    +0.000 NA
ATOM     26  C   UNL     1      -0.949  12.258  20.033  0.00  0.00    +0.000 A 
ATOM     27  N   UNL     1      -0.696  11.144  19.291  0.00  0.00    +0.000 N 
ATOM     28  C   UNL     1      -1.597  10.517  18.364  0.00  0.00    +0.000 C 
ENDBRANCH  22  23
ENDBRANCH  21  22
ENDBRANCH   1  21
TORSDOF 5
ENDMDL
MODEL 3
REMARK VINA RESULT:      -7.5      3.088      4.334
REMARK  Name = 
REMARK  7 active torsions:
REMARK  status: ('A' for Active; 'I' for Inactive)
REMARK    1  A    between atoms: C_1  and  C_2
REMARK    2  A    between atoms: C_2  and  S_3
REMARK    3  A    between atoms: C_2  and  C_10
REMARK    4  A    between atoms: S_3  and  C_4
REMARK    5  A    between atoms: N_8  and  C_9
REMARK    6  A    between atoms: C_16  and  C_18
REMARK    7  A    between atoms: C_21  and  C_22
REMARK                            x       y       z     vdW  Elec       q    Type
REMARK                         _______ _______ _______ _____ _____    ______ ____
ROOT
ATOM      1  C   UNL     1       1.989   7.108  20.106  0.00  0.00    +0.000 A 
ATOM      2  C   UNL     1       1.613   5.955  20.805  0.00  0.00    +0.000 A 
ATOM      3  C   UNL     1       2.108   4.735  20.394  0.00  0.00    +0.000 A 
ATOM      4  N   UNL     1       2.928   4.581  19.342  0.00  0.00    +0.000 NA
ATOM      5  C   UNL     1       3.309   5.668  18.652  0.00  0.00    +0.000 A 
ATOM      6  N   UNL     1       4.125   5.507  17.518  0.00  0.00    +0.000 N 
ATOM      7  C   UNL     1       4.492   4.273  17.019  0.00  0.00    +0.000 C 
ATOM      8  O   UNL     1       4.173   3.174  17.466  0.00  0.00    +0.000 OA
ATOM      9  C   UNL     1       2.889   6.945  19.025  0.00  0.00    +0.000 A 
ATOM     10  H   UNL     1       4.433   6.323  17.007  0.00  0.00    +0.000 HD
ENDROOT
BRANCH   7  11
ATOM     11  C   UNL     1       5.344   4.331  15.815  0.00  0.00    +0.000 A 
ATOM     12  C   UNL     1       6.496   5.095  15.785  0.00  0.00    +0.000 A 
ATOM     13  S   UNL     1       7.263   4.987  14.272  0.00  0.00    +0.000 S 
ATOM     14  C   UNL     1       6.007   3.940  13.713  0.00  0.00    +0.000 A 
ATOM     15  N   UNL     1       5.076   3.647  14.621  0.00  0.00    +0.000 NA
BRANCH  14  16
ATOM     16  C   UNL     1       6.055   3.462  12.280  0.00  0.00    +0.000 C 
ATOM     17  F   UNL     1       7.078   4.012  11.561  0.00  0.00    +0.000 F 
ATOM     18  F   UNL     1       6.216   2.115  12.195  0.00  0.00    +0.000 F 
ATOM     19  F   UNL     1       4.916   3.767  11.605  0.00  0.00    +0.000 F 
ENDBRANCH  14  16
ENDBRANCH   7  11
BRANCH   1  21
ATOM     20  C   UNL     1       0.101   8.448  21.235  0.00  0.00    +0.000 C 
ATOM     21  C   UNL     1       1.428   8.493  20.456  0.00  0.00    +0.000 C 
BRANCH  21  22
ATOM     22  S   UNL     1       1.197   9.439  18.887  0.00  0.00    +0.000 S 
BRANCH  22  23
ATOM     23  C   UNL     1      -0.094  10.515  19.270  0.00  0.00    +0.000 A 
ATOM     24  N   UNL     1      -1.365  10.381  18.975  0.00  0.00    +0.000 NA
ATOM     25  N   UNL     1      -2.012  11.526  19.392  0.00  0.00    +0.000 NA
ATOM     26  C   UNL     1      -1.114  12.310  19.946  0.00  0.00    +0.000 A 
ATOM     27  N   UNL     1       0.102  11.698  19.924  0.00  0.00    +0.000 N 
ATOM     28  C   UNL     1       1.325  12.214  20.474  0.00  0.00    +0.000 C 
ENDBRANCH  22  23
ENDBRANCH  21  22
ENDBRANCH   1  21
TORSDOF 5
ENDMDL
MODEL 4
REMARK VINA RESULT:      -7.4      1.236      1.483
REMARK  Name = 
REMARK  7 active torsions:
REMARK  status: ('A' for Active; 'I' for Inactive)
REMARK    1  A    between atoms: C_1  and  C_2
REMARK    2  A    between atoms: C_2  and  S_3
REMARK    3  A    between atoms: C_2  and  C_10
REMARK    4  A    between atoms: S_3  and  C_4
REMARK    5  A    between atoms: N_8  and  C_9
REMARK    6  A    between atoms: C_16  and  C_18
REMARK    7  A    between atoms: C_21  and  C_22
REMARK                            x       y       z     vdW  Elec       q    Type
REMARK                         _______ _______ _______ _____ _____    ______ ____
ROOT
ATOM      1  C   UNL     1      -0.005  10.570  19.663  0.00  0.00    +0.000 A 
ATOM      2  C   UNL     1      -0.584  10.086  20.843  0.00  0.00    +0.000 A 
ATOM      3  C   UNL     1      -0.117   8.904  21.378  0.00  0.00    +0.000 A 
ATOM      4  N   UNL     1       0.863   8.172  20.824  0.00  0.00    +0.000 NA
ATOM      5  C   UNL     1       1.439   8.610  19.693  0.00  0.00    +0.000 A 
ATOM      6  N   UNL     1       2.429   7.821  19.079  0.00  0.00    +0.000 N 
ATOM      7  C   UNL     1       2.785   6.566  19.533  0.00  0.00    +0.000 C 
ATOM      8  O   UNL     1       2.310   5.971  20.496  0.00  0.00    +0.000 OA
ATOM      9  C   UNL     1       1.057   9.817  19.107  0.00  0.00    +0.000 A 
ATOM     10  H   UNL     1       2.883   8.156  18.240  0.00  0.00    +0.000 HD
ENDROOT
BRANCH   7  11
ATOM     11  C   UNL     1       3.839   5.907  18.737  0.00  0.00    +0.000 A 
ATOM     12  C   UNL     1       4.857   5.193  19.342  0.00  0.00    +0.000 A 
ATOM     13  S   UNL     1       5.932   4.563  18.186  0.00  0.00    +0.000 S 
ATOM     14  C   UNL     1       5.002   5.293  16.926  0.00  0.00    +0.000 A 
ATOM     15  N   UNL     1       3.915   5.944  17.337  0.00  0.00    +0.000 NA
BRANCH  14  16
ATOM     16  C   UNL     1       5.486   5.148  15.502  0.00  0.00    +0.000 C 
ATOM     17  F   UNL     1       6.834   4.953  15.405  0.00  0.00    +0.000 F 
ATOM     18  F   UNL     1       4.906   4.094  14.869  0.00  0.00    +0.000 F 
ATOM     19  F   UNL     1       5.213   6.253  14.759  0.00  0.00    +0.000 F 
ENDBRANCH  14  16
ENDBRANCH   7  11
BRANCH   1  21
ATOM     20  C   UNL     1       0.003  13.145  19.598  0.00  0.00    +0.000 C 
ATOM     21  C   UNL     1      -0.514  11.839  18.967  0.00  0.00    +0.000 C 
BRANCH  21  22
ATOM     22  S   UNL     1      -2.360  11.819  19.000  0.00  0.00    +0.000 S 
BRANCH  22  23
ATOM     23  C   UNL     1      -2.768  11.177  17.454  0.00  0.00    +0.000 A 
ATOM     24  N   UNL     1      -2.005  10.477  16.648  0.00  0.00    +0.000 NA
ATOM     25  N   UNL     1      -2.714  10.263  15.484  0.00  0.00    +0.000 NA
ATOM     26  C   UNL     1      -3.895  10.821  15.630  0.00  0.00    +0.000 A 
ATOM     27  N   UNL     1      -3.986  11.378  16.870  0.00  0.00    +0.000 N 
ATOM     28  C   UNL     1      -5.135  12.041  17.423  0.00  0.00    +0.000 C 
ENDBRANCH  22  23
ENDBRANCH  21  22
ENDBRANCH   1  21
TORSDOF 5
ENDMDL
MODEL 5
REMARK VINA RESULT:      -7.3      3.997      4.815
REMARK  Name = 
REMARK  7 active torsions:
REMARK  status: ('A' for Active; 'I' for Inactive)
REMARK    1  A    between atoms: C_1  and  C_2
REMARK    2  A    between atoms: C_2  and  S_3
REMARK    3  A    between atoms: C_2  and  C_10
REMARK    4  A    between atoms: S_3  and  C_4
REMARK    5  A    between atoms: N_8  and  C_9
REMARK    6  A    between atoms: C_16  and  C_18
REMARK    7  A    between atoms: C_21  and  C_22
REMARK                            x       y       z     vdW  Elec       q    Type
REMARK                         _______ _______ _______ _____ _____    ______ ____
ROOT
ATOM      1  C   UNL     1       0.154  10.961  20.992  0.00  0.00    +0.000 A 
ATOM      2  C   UNL     1       0.361  11.941  20.014  0.00  0.00    +0.000 A 
ATOM      3  C   UNL     1       0.970  11.582  18.829  0.00  0.00    +0.000 A 
ATOM      4  N   UNL     1       1.396  10.337  18.559  0.00  0.00    +0.000 NA
ATOM      5  C   UNL     1       1.210   9.375  19.477  0.00  0.00    +0.000 A 
ATOM      6  N   UNL     1       1.701   8.081  19.221  0.00  0.00    +0.000 N 
ATOM      7  C   UNL     1       2.446   7.763  18.103  0.00  0.00    +0.000 C 
ATOM      8  O   UNL     1       2.784   8.526  17.202  0.00  0.00    +0.000 OA
ATOM      9  C   UNL     1       0.564   9.642  20.685  0.00  0.00    +0.000 A 
ATOM     10  H   UNL     1       1.545   7.347  19.898  0.00  0.00    +0.000 HD
ENDROOT
BRANCH   7  11
ATOM     11  C   UNL     1       2.869   6.350  18.034  0.00  0.00    +0.000 A 
ATOM     12  C   UNL     1       4.148   6.000  17.646  0.00  0.00    +0.000 A 
ATOM     13  S   UNL     1       4.345   4.311  17.641  0.00  0.00    +0.000 S 
ATOM     14  C   UNL     1       2.701   4.120  18.136  0.00  0.00    +0.000 A 
ATOM     15  N   UNL     1       2.040   5.260  18.337  0.00  0.00    +0.000 NA
BRANCH  14  16
ATOM     16  C   UNL     1       2.156   2.719  18.287  0.00  0.00    +0.000 C 
ATOM     17  F   UNL     1       0.797   2.678  18.424  0.00  0.00    +0.000 F 
ATOM     18  F   UNL     1       2.450   1.938  17.214  0.00  0.00    +0.000 F 
ATOM     19  F   UNL     1       2.662   2.092  19.381  0.00  0.00    +0.000 F 
ENDBRANCH  14  16
ENDBRANCH   7  11
BRANCH   1  21
ATOM     20  C   UNL     1      -0.813  10.053  23.200  0.00  0.00    +0.000 C 
ATOM     21  C   UNL     1      -0.453  11.293  22.362  0.00  0.00    +0.000 C 
BRANCH  21  22
ATOM     22  S   UNL     1      -1.961  12.324  22.095  0.00  0.00    +0.000 S 
BRANCH  22  23
ATOM     23  C   UNL     1      -1.793  13.570  23.272  0.00  0.00    +0.000 A 
ATOM     24  N   UNL     1      -0.682  14.098  23.730  0.00  0.00    +0.000 NA
ATOM     25  N   UNL     1      -1.024  14.988  24.727  0.00  0.00    +0.000 NA
ATOM     26  C   UNL     1      -2.334  14.987  24.828  0.00  0.00    +0.000 A 
ATOM     27  N   UNL     1      -2.863  14.135  23.906  0.00  0.00    +0.000 N 
ATOM     28  C   UNL     1      -4.259  13.892  23.674  0.00  0.00    +0.000 C 
ENDBRANCH  22  23
ENDBRANCH  21  22
ENDBRANCH   1  21
TORSDOF 5
ENDMDL
MODEL 6
REMARK VINA RESULT:      -7.3      3.195      4.028
REMARK  Name = 
REMARK  7 active torsions:
REMARK  status: ('A' for Active; 'I' for Inactive)
REMARK    1  A    between atoms: C_1  and  C_2
REMARK    2  A    between atoms: C_2  and  S_3
REMARK    3  A    between atoms: C_2  and  C_10
REMARK    4  A    between atoms: S_3  and  C_4
REMARK    5  A    between atoms: N_8  and  C_9
REMARK    6  A    between atoms: C_16  and  C_18
REMARK    7  A    between atoms: C_21  and  C_22
REMARK                            x       y       z     vdW  Elec       q    Type
REMARK                         _______ _______ _______ _____ _____    ______ ____
ROOT
ATOM      1  C   UNL     1       0.163  10.298  21.058  0.00  0.00    +0.000 A 
ATOM      2  C   UNL     1      -0.286  11.025  19.948  0.00  0.00    +0.000 A 
ATOM      3  C   UNL     1       0.137  10.649  18.690  0.00  0.00    +0.000 A 
ATOM      4  N   UNL     1       0.975   9.625  18.462  0.00  0.00    +0.000 NA
ATOM      5  C   UNL     1       1.422   8.908  19.505  0.00  0.00    +0.000 A 
ATOM      6  N   UNL     1       2.342   7.868  19.277  0.00  0.00    +0.000 N 
ATOM      7  C   UNL     1       2.882   7.595  18.036  0.00  0.00    +0.000 C 
ATOM      8  O   UNL     1       2.656   8.193  16.988  0.00  0.00    +0.000 OA
ATOM      9  C   UNL     1       1.011   9.193  20.808  0.00  0.00    +0.000 A 
ATOM     10  H   UNL     1       2.665   7.310  20.056  0.00  0.00    +0.000 HD
ENDROOT
BRANCH   7  11
ATOM     11  C   UNL     1       3.834   6.466  18.021  0.00  0.00    +0.000 A 
ATOM     12  C   UNL     1       3.916   5.580  19.078  0.00  0.00    +0.000 A 
ATOM     13  S   UNL     1       5.106   4.399  18.795  0.00  0.00    +0.000 S 
ATOM     14  C   UNL     1       5.477   5.140  17.278  0.00  0.00    +0.000 A 
ATOM     15  N   UNL     1       4.724   6.196  16.972  0.00  0.00    +0.000 NA
BRANCH  14  16
ATOM     16  C   UNL     1       6.598   4.556  16.450  0.00  0.00    +0.000 C 
ATOM     17  F   UNL     1       7.094   5.425  15.521  0.00  0.00    +0.000 F 
ATOM     18  F   UNL     1       7.656   4.178  17.215  0.00  0.00    +0.000 F 
ATOM     19  F   UNL     1       6.198   3.456  15.759  0.00  0.00    +0.000 F 
ENDBRANCH  14  16
ENDBRANCH   7  11
BRANCH   1  21
ATOM     20  C   UNL     1      -0.428   9.494  23.432  0.00  0.00    +0.000 C 
ATOM     21  C   UNL     1      -0.205  10.694  22.494  0.00  0.00    +0.000 C 
BRANCH  21  22
ATOM     22  S   UNL     1      -1.731  11.732  22.437  0.00  0.00    +0.000 S 
BRANCH  22  23
ATOM     23  C   UNL     1      -1.157  13.290  22.899  0.00  0.00    +0.000 A 
ATOM     24  N   UNL     1      -0.005  13.843  22.601  0.00  0.00    +0.000 NA
ATOM     25  N   UNL     1       0.062  15.050  23.264  0.00  0.00    +0.000 NA
ATOM     26  C   UNL     1      -1.062  15.201  23.928  0.00  0.00    +0.000 A 
ATOM     27  N   UNL     1      -1.875  14.133  23.698  0.00  0.00    +0.000 N 
ATOM     28  C   UNL     1      -3.206  13.951  24.208  0.00  0.00    +0.000 C 
ENDBRANCH  22  23
ENDBRANCH  21  22
ENDBRANCH   1  21
TORSDOF 5
ENDMDL
MODEL 7
REMARK VINA RESULT:      -7.2      3.399      4.510
REMARK  Name = 
REMARK  7 active torsions:
REMARK  status: ('A' for Active; 'I' for Inactive)
REMARK    1  A    between atoms: C_1  and  C_2
REMARK    2  A    between atoms: C_2  and  S_3
REMARK    3  A    between atoms: C_2  and  C_10
REMARK    4  A    between atoms: S_3  and  C_4
REMARK    5  A    between atoms: N_8  and  C_9
REMARK    6  A    between atoms: C_16  and  C_18
REMARK    7  A    between atoms: C_21  and  C_22
REMARK                            x       y       z     vdW  Elec       q    Type
REMARK                         _______ _______ _______ _____ _____    ______ ____
ROOT
ATOM      1  C   UNL     1       1.937   7.292  20.074  0.00  0.00    +0.000 A 
ATOM      2  C   UNL     1       1.577   6.159  20.814  0.00  0.00    +0.000 A 
ATOM      3  C   UNL     1       2.084   4.931  20.442  0.00  0.00    +0.000 A 
ATOM      4  N   UNL     1       2.902   4.750  19.392  0.00  0.00    +0.000 NA
ATOM      5  C   UNL     1       3.266   5.818  18.664  0.00  0.00    +0.000 A 
ATOM      6  N   UNL     1       4.080   5.627  17.531  0.00  0.00    +0.000 N 
ATOM      7  C   UNL     1       4.458   4.381  17.073  0.00  0.00    +0.000 C 
ATOM      8  O   UNL     1       4.154   3.295  17.559  0.00  0.00    +0.000 OA
ATOM      9  C   UNL     1       2.833   7.102  18.995  0.00  0.00    +0.000 A 
ATOM     10  H   UNL     1       4.376   6.429  16.992  0.00  0.00    +0.000 HD
ENDROOT
BRANCH   7  11
ATOM     11  C   UNL     1       5.305   4.407  15.865  0.00  0.00    +0.000 A 
ATOM     12  C   UNL     1       6.475   5.142  15.821  0.00  0.00    +0.000 A 
ATOM     13  S   UNL     1       7.230   5.002  14.305  0.00  0.00    +0.000 S 
ATOM     14  C   UNL     1       5.945   3.981  13.762  0.00  0.00    +0.000 A 
ATOM     15  N   UNL     1       5.013   3.720  14.678  0.00  0.00    +0.000 NA
BRANCH  14  16
ATOM     16  C   UNL     1       5.973   3.491  12.333  0.00  0.00    +0.000 C 
ATOM     17  F   UNL     1       6.153   2.141  12.228  0.00  0.00    +0.000 F 
ATOM     18  F   UNL     1       4.819   3.770  11.673  0.00  0.00    +0.000 F 
ATOM     19  F   UNL     1       6.982   4.060  11.622  0.00  0.00    +0.000 F 
ENDBRANCH  14  16
ENDBRANCH   7  11
BRANCH   1  21
ATOM     20  C   UNL     1       0.166   8.660  21.349  0.00  0.00    +0.000 C 
ATOM     21  C   UNL     1       1.361   8.681  20.378  0.00  0.00    +0.000 C 
BRANCH  21  22
ATOM     22  S   UNL     1       0.856   9.463  18.784  0.00  0.00    +0.000 S 
BRANCH  22  23
ATOM     23  C   UNL     1       0.488  11.082  19.245  0.00  0.00    +0.000 A 
ATOM     24  N   UNL     1      -0.531  11.503  19.956  0.00  0.00    +0.000 NA
ATOM     25  N   UNL     1      -0.472  12.881  19.992  0.00  0.00    +0.000 NA
ATOM     26  C   UNL     1       0.593  13.251  19.319  0.00  0.00    +0.000 A 
ATOM     27  N   UNL     1       1.250  12.148  18.861  0.00  0.00    +0.000 N 
ATOM     28  C   UNL     1       2.481  12.137  18.122  0.00  0.00    +0.000 C 
ENDBRANCH  22  23
ENDBRANCH  21  22
ENDBRANCH   1  21
TORSDOF 5
ENDMDL
MODEL 8
REMARK VINA RESULT:      -7.2      3.293      4.466
REMARK  Name = 
REMARK  7 active torsions:
REMARK  status: ('A' for Active; 'I' for Inactive)
REMARK    1  A    between atoms: C_1  and  C_2
REMARK    2  A    between atoms: C_2  and  S_3
REMARK    3  A    between atoms: C_2  and  C_10
REMARK    4  A    between atoms: S_3  and  C_4
REMARK    5  A    between atoms: N_8  and  C_9
REMARK    6  A    between atoms: C_16  and  C_18
REMARK    7  A    between atoms: C_21  and  C_22
REMARK                            x       y       z     vdW  Elec       q    Type
REMARK                         _______ _______ _______ _____ _____    ______ ____
ROOT
ATOM      1  C   UNL     1       1.958   7.455  19.957  0.00  0.00    +0.000 A 
ATOM      2  C   UNL     1       1.567   6.339  20.706  0.00  0.00    +0.000 A 
ATOM      3  C   UNL     1       2.054   5.096  20.355  0.00  0.00    +0.000 A 
ATOM      4  N   UNL     1       2.881   4.887  19.318  0.00  0.00    +0.000 NA
ATOM      5  C   UNL     1       3.276   5.938  18.581  0.00  0.00    +0.000 A 
ATOM      6  N   UNL     1       4.099   5.718  17.461  0.00  0.00    +0.000 N 
ATOM      7  C   UNL     1       4.458   4.459  17.023  0.00  0.00    +0.000 C 
ATOM      8  O   UNL     1       4.126   3.385  17.517  0.00  0.00    +0.000 OA
ATOM      9  C   UNL     1       2.864   7.235  18.891  0.00  0.00    +0.000 A 
ATOM     10  H   UNL     1       4.417   6.507  16.916  0.00  0.00    +0.000 HD
ENDROOT
BRANCH   7  11
ATOM     11  C   UNL     1       5.320   4.455  15.824  0.00  0.00    +0.000 A 
ATOM     12  C   UNL     1       6.516   5.148  15.795  0.00  0.00    +0.000 A 
ATOM     13  S   UNL     1       7.283   4.979  14.287  0.00  0.00    +0.000 S 
ATOM     14  C   UNL     1       5.970   4.004  13.730  0.00  0.00    +0.000 A 
ATOM     15  N   UNL     1       5.018   3.777  14.634  0.00  0.00    +0.000 NA
BRANCH  14  16
ATOM     16  C   UNL     1       5.998   3.511  12.302  0.00  0.00    +0.000 C 
ATOM     17  F   UNL     1       6.198   2.164  12.198  0.00  0.00    +0.000 F 
ATOM     18  F   UNL     1       4.836   3.772  11.648  0.00  0.00    +0.000 F 
ATOM     19  F   UNL     1       6.994   4.094  11.584  0.00  0.00    +0.000 F 
ENDBRANCH  14  16
ENDBRANCH   7  11
BRANCH   1  21
ATOM     20  C   UNL     1       0.419   8.914  21.418  0.00  0.00    +0.000 C 
ATOM     21  C   UNL     1       1.407   8.859  20.238  0.00  0.00    +0.000 C 
BRANCH  21  22
ATOM     22  S   UNL     1       0.582   9.477  18.706  0.00  0.00    +0.000 S 
BRANCH  22  23
ATOM     23  C   UNL     1       1.261  11.048  18.507  0.00  0.00    +0.000 A 
ATOM     24  N   UNL     1       2.450  11.357  18.046  0.00  0.00    +0.000 NA
ATOM     25  N   UNL     1       2.598  12.724  18.158  0.00  0.00    +0.000 NA
ATOM     26  C   UNL     1       1.485  13.203  18.666  0.00  0.00    +0.000 A 
ATOM     27  N   UNL     1       0.600  12.187  18.868  0.00  0.00    +0.000 N 
ATOM     28  C   UNL     1      -0.741  12.314  19.366  0.00  0.00    +0.000 C 
ENDBRANCH  22  23
ENDBRANCH  21  22
ENDBRANCH   1  21
TORSDOF 5
ENDMDL
MODEL 9
REMARK VINA RESULT:      -7.2      4.433      9.231
REMARK  Name = 
REMARK  7 active torsions:
REMARK  status: ('A' for Active; 'I' for Inactive)
REMARK    1  A    between atoms: C_1  and  C_2
REMARK    2  A    between atoms: C_2  and  S_3
REMARK    3  A    between atoms: C_2  and  C_10
REMARK    4  A    between atoms: S_3  and  C_4
REMARK    5  A    between atoms: N_8  and  C_9
REMARK    6  A    between atoms: C_16  and  C_18
REMARK    7  A    between atoms: C_21  and  C_22
REMARK                            x       y       z     vdW  Elec       q    Type
REMARK                         _______ _______ _______ _____ _____    ______ ____
ROOT
ATOM      1  C   UNL     1       4.392   5.069  17.204  0.00  0.00    +0.000 A 
ATOM      2  C   UNL     1       4.084   3.992  18.044  0.00  0.00    +0.000 A 
ATOM      3  C   UNL     1       3.217   4.195  19.098  0.00  0.00    +0.000 A 
ATOM      4  N   UNL     1       2.652   5.381  19.379  0.00  0.00    +0.000 NA
ATOM      5  C   UNL     1       2.927   6.433  18.591  0.00  0.00    +0.000 A 
ATOM      6  N   UNL     1       2.381   7.689  18.912  0.00  0.00    +0.000 N 
ATOM      7  C   UNL     1       1.639   7.922  20.053  0.00  0.00    +0.000 C 
ATOM      8  O   UNL     1       1.358   7.106  20.927  0.00  0.00    +0.000 OA
ATOM      9  C   UNL     1       3.760   6.306  17.479  0.00  0.00    +0.000 A 
ATOM     10  H   UNL     1       2.565   8.480  18.310  0.00  0.00    +0.000 HD
ENDROOT
BRANCH   7  11
ATOM     11  C   UNL     1       1.169   9.313  20.201  0.00  0.00    +0.000 A 
ATOM     12  C   UNL     1       0.765   9.810  21.427  0.00  0.00    +0.000 A 
ATOM     13  S   UNL     1       0.259  11.427  21.295  0.00  0.00    +0.000 S 
ATOM     14  C   UNL     1       0.579  11.387  19.597  0.00  0.00    +0.000 A 
ATOM     15  N   UNL     1       1.079  10.235  19.149  0.00  0.00    +0.000 NA
BRANCH  14  16
ATOM     16  C   UNL     1       0.266  12.617  18.778  0.00  0.00    +0.000 C 
ATOM     17  F   UNL     1      -0.103  13.692  19.535  0.00  0.00    +0.000 F 
ATOM     18  F   UNL     1       1.332  13.025  18.040  0.00  0.00    +0.000 F 
ATOM     19  F   UNL     1      -0.756  12.401  17.909  0.00  0.00    +0.000 F 
ENDBRANCH  14  16
ENDBRANCH   7  11
BRANCH   1  21
ATOM     20  C   UNL     1       5.099   3.785  15.087  0.00  0.00    +0.000 C 
ATOM     21  C   UNL     1       5.400   4.944  16.054  0.00  0.00    +0.000 C 
BRANCH  21  22
ATOM     22  S   UNL     1       7.084   4.727  16.780  0.00  0.00    +0.000 S 
BRANCH  22  23
ATOM     23  C   UNL     1       7.469   6.309  17.344  0.00  0.00    +0.000 A 
ATOM     24  N   UNL     1       7.429   7.434  16.670  0.00  0.00    +0.000 NA
ATOM     25  N   UNL     1       7.913   8.430  17.493  0.00  0.00    +0.000 NA
ATOM     26  C   UNL     1       8.213   7.880  18.648  0.00  0.00    +0.000 A 
ATOM     27  N   UNL     1       7.916   6.552  18.612  0.00  0.00    +0.000 N 
ATOM     28  C   UNL     1       8.059   5.618  19.694  0.00  0.00    +0.000 C 
ENDBRANCH  22  23
ENDBRANCH  21  22
ENDBRANCH   1  21
TORSDOF 5
ENDMDL
