MODEL 1
REMARK VINA RESULT:      -8.2      0.000      0.000
REMARK  Name = 
REMARK  8 active torsions:
REMARK  status: ('A' for Active; 'I' for Inactive)
REMARK    1  A    between atoms: C_1  and  C_2
REMARK    2  A    between atoms: C_2  and  S_3
REMARK    3  A    between atoms: C_2  and  C_10
REMARK    4  A    between atoms: S_3  and  C_4
REMARK    5  A    between atoms: N_8  and  C_9
REMARK    6  A    between atoms: C_16  and  C_18
REMARK    7  A    between atoms: C_22  and  C_23
REMARK    8  A    between atoms: C_23  and  C_24
REMARK                            x       y       z     vdW  Elec       q    Type
REMARK                         _______ _______ _______ _____ _____    ______ ____
ROOT
ATOM      1  C   UNL     1       6.459   6.227  17.242  0.00  0.00    +0.000 A 
ATOM      2  C   UNL     1       7.032   5.456  18.263  0.00  0.00    +0.000 A 
ATOM      3  C   UNL     1       7.960   6.040  19.105  0.00  0.00    +0.000 A 
ATOM      4  N   UNL     1       8.372   7.315  18.989  0.00  0.00    +0.000 NA
ATOM      5  C   UNL     1       7.858   8.062  18.001  0.00  0.00    +0.000 A 
ATOM      6  N   UNL     1       8.269   9.394  17.844  0.00  0.00    +0.000 N 
ATOM      7  C   UNL     1       9.130  10.057  18.701  0.00  0.00    +0.000 C 
ATOM      8  O   UNL     1       9.627   9.632  19.735  0.00  0.00    +0.000 OA
ATOM      9  C   UNL     1       6.915   7.553  17.109  0.00  0.00    +0.000 A 
ATOM     10  H   UNL     1       7.917   9.933  17.063  0.00  0.00    +0.000 HD
ENDROOT
BRANCH   7  11
ATOM     11  C   UNL     1       9.458  11.457  18.276  0.00  0.00    +0.000 A 
ATOM     12  C   UNL     1      10.693  11.711  17.692  0.00  0.00    +0.000 A 
ATOM     13  C   UNL     1      10.970  13.002  17.264  0.00  0.00    +0.000 A 
ATOM     14  C   UNL     1      10.009  13.993  17.429  0.00  0.00    +0.000 A 
ATOM     15  C   UNL     1       8.785  13.670  18.025  0.00  0.00    +0.000 A 
ATOM     16  N   UNL     1       8.497  12.405  18.461  0.00  0.00    +0.000 NA
BRANCH  15  17
ATOM     17  C   UNL     1       7.722  14.750  18.181  0.00  0.00    +0.000 C 
ATOM     18  C   UNL     1       8.280  16.112  17.801  0.00  0.00    +0.000 C 
ATOM     19  F   UNL     1       6.623  14.511  17.407  0.00  0.00    +0.000 F 
ATOM     20  F   UNL     1       7.244  14.849  19.460  0.00  0.00    +0.000 F 
ENDBRANCH  15  17
ENDBRANCH   7  11
BRANCH   1  22
ATOM     21  C   UNL     1       4.062   5.319  17.100  0.00  0.00    +0.000 C 
ATOM     22  C   UNL     1       5.370   5.614  16.355  0.00  0.00    +0.000 C 
BRANCH  22  23
ATOM     23  S   UNL     1       6.022   4.056  15.603  0.00  0.00    +0.000 S 
BRANCH  23  24
ATOM     24  C   UNL     1       6.964   4.638  14.282  0.00  0.00    +0.000 A 
ATOM     25  N   UNL     1       7.950   5.503  14.321  0.00  0.00    +0.000 NA
ATOM     26  N   UNL     1       8.339   5.750  13.021  0.00  0.00    +0.000 NA
ATOM     27  C   UNL     1       7.588   5.011  12.235  0.00  0.00    +0.000 A 
ATOM     28  N   UNL     1       6.724   4.276  12.988  0.00  0.00    +0.000 N 
ATOM     29  C   UNL     1       5.753   3.336  12.498  0.00  0.00    +0.000 C 
ENDBRANCH  23  24
ENDBRANCH  22  23
ENDBRANCH   1  22
TORSDOF 5
ENDMDL
MODEL 2
REMARK VINA RESULT:      -8.0      7.386     10.126
REMARK  Name = 
REMARK  8 active torsions:
REMARK  status: ('A' for Active; 'I' for Inactive)
REMARK    1  A    between atoms: C_1  and  C_2
REMARK    2  A    between atoms: C_2  and  S_3
REMARK    3  A    between atoms: C_2  and  C_10
REMARK    4  A    between atoms: S_3  and  C_4
REMARK    5  A    between atoms: N_8  and  C_9
REMARK    6  A    between atoms: C_16  and  C_18
REMARK    7  A    between atoms: C_22  and  C_23
REMARK    8  A    between atoms: C_23  and  C_24
REMARK                            x       y       z     vdW  Elec       q    Type
REMARK                         _______ _______ _______ _____ _____    ______ ____
ROOT
ATOM      1  C   UNL     1       0.594  10.337  19.899  0.00  0.00    +0.000 A 
ATOM      2  C   UNL     1       0.142   9.966  21.173  0.00  0.00    +0.000 A 
ATOM      3  C   UNL     1       0.491   8.726  21.675  0.00  0.00    +0.000 A 
ATOM      4  N   UNL     1       1.228   7.829  20.996  0.00  0.00    +0.000 NA
ATOM      5  C   UNL     1       1.647   8.151  19.764  0.00  0.00    +0.000 A 
ATOM      6  N   UNL     1       2.411   7.239  19.023  0.00  0.00    +0.000 N 
ATOM      7  C   UNL     1       2.860   6.019  19.500  0.00  0.00    +0.000 C 
ATOM      8  O   UNL     1       2.717   5.561  20.625  0.00  0.00    +0.000 OA
ATOM      9  C   UNL     1       1.343   9.383  19.183  0.00  0.00    +0.000 A 
ATOM     10  H   UNL     1       2.676   7.469  18.074  0.00  0.00    +0.000 HD
ENDROOT
BRANCH   7  11
ATOM     11  C   UNL     1       3.606   5.203  18.488  0.00  0.00    +0.000 A 
ATOM     12  C   UNL     1       2.941   4.180  17.824  0.00  0.00    +0.000 A 
ATOM     13  C   UNL     1       3.629   3.459  16.859  0.00  0.00    +0.000 A 
ATOM     14  C   UNL     1       4.954   3.782  16.586  0.00  0.00    +0.000 A 
ATOM     15  C   UNL     1       5.565   4.824  17.291  0.00  0.00    +0.000 A 
ATOM     16  N   UNL     1       4.906   5.542  18.252  0.00  0.00    +0.000 NA
BRANCH  15  17
ATOM     17  C   UNL     1       7.008   5.196  16.972  0.00  0.00    +0.000 C 
ATOM     18  C   UNL     1       7.261   6.666  17.264  0.00  0.00    +0.000 C 
ATOM     19  F   UNL     1       7.904   4.459  17.692  0.00  0.00    +0.000 F 
ATOM     20  F   UNL     1       7.338   4.979  15.660  0.00  0.00    +0.000 F 
ENDBRANCH  15  17
ENDBRANCH   7  11
BRANCH   1  22
ATOM     21  C   UNL     1       1.214  12.829  19.917  0.00  0.00    +0.000 C 
ATOM     22  C   UNL     1       0.283  11.740  19.367  0.00  0.00    +0.000 C 
BRANCH  22  23
ATOM     23  S   UNL     1      -1.471  12.157  19.778  0.00  0.00    +0.000 S 
BRANCH  23  24
ATOM     24  C   UNL     1      -2.318  11.670  18.358  0.00  0.00    +0.000 A 
ATOM     25  N   UNL     1      -1.807  11.239  17.228  0.00  0.00    +0.000 NA
ATOM     26  N   UNL     1      -2.849  11.067  16.339  0.00  0.00    +0.000 NA
ATOM     27  C   UNL     1      -3.961  11.381  16.965  0.00  0.00    +0.000 A 
ATOM     28  N   UNL     1      -3.676  11.743  18.247  0.00  0.00    +0.000 N 
ATOM     29  C   UNL     1      -4.626  12.139  19.252  0.00  0.00    +0.000 C 
ENDBRANCH  23  24
ENDBRANCH  22  23
ENDBRANCH   1  22
TORSDOF 5
ENDMDL
MODEL 3
REMARK VINA RESULT:      -7.9      6.995      8.744
REMARK  Name = 
REMARK  8 active torsions:
REMARK  status: ('A' for Active; 'I' for Inactive)
REMARK    1  A    between atoms: C_1  and  C_2
REMARK    2  A    between atoms: C_2  and  S_3
REMARK    3  A    between atoms: C_2  and  C_10
REMARK    4  A    between atoms: S_3  and  C_4
REMARK    5  A    between atoms: N_8  and  C_9
REMARK    6  A    between atoms: C_16  and  C_18
REMARK    7  A    between atoms: C_22  and  C_23
REMARK    8  A    between atoms: C_23  and  C_24
REMARK                            x       y       z     vdW  Elec       q    Type
REMARK                         _______ _______ _______ _____ _____    ______ ____
ROOT
ATOM      1  C   UNL     1       4.139   5.700  18.620  0.00  0.00    +0.000 A 
ATOM      2  C   UNL     1       4.144   6.172  17.300  0.00  0.00    +0.000 A 
ATOM      3  C   UNL     1       3.394   7.288  16.983  0.00  0.00    +0.000 A 
ATOM      4  N   UNL     1       2.628   7.947  17.872  0.00  0.00    +0.000 NA
ATOM      5  C   UNL     1       2.585   7.496  19.133  0.00  0.00    +0.000 A 
ATOM      6  N   UNL     1       1.793   8.152  20.086  0.00  0.00    +0.000 N 
ATOM      7  C   UNL     1       1.086   9.318  19.851  0.00  0.00    +0.000 C 
ATOM      8  O   UNL     1       1.068   9.985  18.825  0.00  0.00    +0.000 OA
ATOM      9  C   UNL     1       3.314   6.377  19.539  0.00  0.00    +0.000 A 
ATOM     10  H   UNL     1       1.725   7.772  21.021  0.00  0.00    +0.000 HD
ENDROOT
BRANCH   7  11
ATOM     11  C   UNL     1       0.267   9.783  21.017  0.00  0.00    +0.000 A 
ATOM     12  C   UNL     1       0.411   9.140  22.240  0.00  0.00    +0.000 A 
ATOM     13  C   UNL     1      -0.321   9.605  23.324  0.00  0.00    +0.000 A 
ATOM     14  C   UNL     1      -1.167  10.696  23.154  0.00  0.00    +0.000 A 
ATOM     15  C   UNL     1      -1.265  11.298  21.895  0.00  0.00    +0.000 A 
ATOM     16  N   UNL     1      -0.559  10.848  20.813  0.00  0.00    +0.000 NA
BRANCH  15  17
ATOM     17  C   UNL     1      -2.172  12.510  21.716  0.00  0.00    +0.000 C 
ATOM     18  C   UNL     1      -3.191  12.589  22.841  0.00  0.00    +0.000 C 
ATOM     19  F   UNL     1      -1.472  13.682  21.694  0.00  0.00    +0.000 F 
ATOM     20  F   UNL     1      -2.868  12.487  20.536  0.00  0.00    +0.000 F 
ENDBRANCH  15  17
ENDBRANCH   7  11
BRANCH   1  22
ATOM     21  C   UNL     1       6.353   4.461  18.222  0.00  0.00    +0.000 C 
ATOM     22  C   UNL     1       5.031   4.513  18.999  0.00  0.00    +0.000 C 
BRANCH  22  23
ATOM     23  S   UNL     1       4.087   2.947  18.724  0.00  0.00    +0.000 S 
BRANCH  23  24
ATOM     24  C   UNL     1       3.099   2.848  20.134  0.00  0.00    +0.000 A 
ATOM     25  N   UNL     1       3.471   2.529  21.352  0.00  0.00    +0.000 NA
ATOM     26  N   UNL     1       2.336   2.476  22.133  0.00  0.00    +0.000 NA
ATOM     27  C   UNL     1       1.312   2.783  21.368  0.00  0.00    +0.000 A 
ATOM     28  N   UNL     1       1.750   3.048  20.106  0.00  0.00    +0.000 N 
ATOM     29  C   UNL     1       0.936   3.437  18.986  0.00  0.00    +0.000 C 
ENDBRANCH  23  24
ENDBRANCH  22  23
ENDBRANCH   1  22
TORSDOF 5
ENDMDL
MODEL 4
REMARK VINA RESULT:      -7.9      6.202      9.884
REMARK  Name = 
REMARK  8 active torsions:
REMARK  status: ('A' for Active; 'I' for Inactive)
REMARK    1  A    between atoms: C_1  and  C_2
REMARK    2  A    between atoms: C_2  and  S_3
REMARK    3  A    between atoms: C_2  and  C_10
REMARK    4  A    between atoms: S_3  and  C_4
REMARK    5  A    between atoms: N_8  and  C_9
REMARK    6  A    between atoms: C_16  and  C_18
REMARK    7  A    between atoms: C_22  and  C_23
REMARK    8  A    between atoms: C_23  and  C_24
REMARK                            x       y       z     vdW  Elec       q    Type
REMARK                         _______ _______ _______ _____ _____    ______ ____
ROOT
ATOM      1  C   UNL     1       0.234  10.615  20.303  0.00  0.00    +0.000 A 
ATOM      2  C   UNL     1      -0.490  10.127  21.399  0.00  0.00    +0.000 A 
ATOM      3  C   UNL     1      -0.278   8.827  21.819  0.00  0.00    +0.000 A 
ATOM      4  N   UNL     1       0.576   7.980  21.217  0.00  0.00    +0.000 NA
ATOM      5  C   UNL     1       1.257   8.417  20.148  0.00  0.00    +0.000 A 
ATOM      6  N   UNL     1       2.151   7.560  19.489  0.00  0.00    +0.000 N 
ATOM      7  C   UNL     1       2.466   6.280  19.908  0.00  0.00    +0.000 C 
ATOM      8  O   UNL     1       2.074   5.708  20.917  0.00  0.00    +0.000 OA
ATOM      9  C   UNL     1       1.106   9.715  19.659  0.00  0.00    +0.000 A 
ATOM     10  H   UNL     1       2.619   7.881  18.651  0.00  0.00    +0.000 HD
ENDROOT
BRANCH   7  11
ATOM     11  C   UNL     1       3.402   5.549  18.994  0.00  0.00    +0.000 A 
ATOM     12  C   UNL     1       2.874   4.709  18.021  0.00  0.00    +0.000 A 
ATOM     13  C   UNL     1       3.748   4.070  17.152  0.00  0.00    +0.000 A 
ATOM     14  C   UNL     1       5.115   4.292  17.279  0.00  0.00    +0.000 A 
ATOM     15  C   UNL     1       5.580   5.150  18.281  0.00  0.00    +0.000 A 
ATOM     16  N   UNL     1       4.736   5.782  19.152  0.00  0.00    +0.000 NA
BRANCH  15  17
ATOM     17  C   UNL     1       7.077   5.414  18.402  0.00  0.00    +0.000 C 
ATOM     18  C   UNL     1       7.465   6.669  17.638  0.00  0.00    +0.000 C 
ATOM     19  F   UNL     1       7.472   5.567  19.700  0.00  0.00    +0.000 F 
ATOM     20  F   UNL     1       7.841   4.387  17.914  0.00  0.00    +0.000 F 
ENDBRANCH  15  17
ENDBRANCH   7  11
BRANCH   1  22
ATOM     21  C   UNL     1      -1.224  12.352  19.098  0.00  0.00    +0.000 C 
ATOM     22  C   UNL     1       0.067  12.079  19.880  0.00  0.00    +0.000 C 
BRANCH  22  23
ATOM     23  S   UNL     1       1.527  12.574  18.861  0.00  0.00    +0.000 S 
BRANCH  23  24
ATOM     24  C   UNL     1       2.531  13.384  20.004  0.00  0.00    +0.000 A 
ATOM     25  N   UNL     1       2.476  13.309  21.313  0.00  0.00    +0.000 NA
ATOM     26  N   UNL     1       3.396  14.203  21.821  0.00  0.00    +0.000 NA
ATOM     27  C   UNL     1       3.994  14.778  20.802  0.00  0.00    +0.000 A 
ATOM     28  N   UNL     1       3.497  14.275  19.638  0.00  0.00    +0.000 N 
ATOM     29  C   UNL     1       3.907  14.639  18.309  0.00  0.00    +0.000 C 
ENDBRANCH  23  24
ENDBRANCH  22  23
ENDBRANCH   1  22
TORSDOF 5
ENDMDL
MODEL 5
REMARK VINA RESULT:      -7.8      8.833     12.126
REMARK  Name = 
REMARK  8 active torsions:
REMARK  status: ('A' for Active; 'I' for Inactive)
REMARK    1  A    between atoms: C_1  and  C_2
REMARK    2  A    between atoms: C_2  and  S_3
REMARK    3  A    between atoms: C_2  and  C_10
REMARK    4  A    between atoms: S_3  and  C_4
REMARK    5  A    between atoms: N_8  and  C_9
REMARK    6  A    between atoms: C_16  and  C_18
REMARK    7  A    between atoms: C_22  and  C_23
REMARK    8  A    between atoms: C_23  and  C_24
REMARK                            x       y       z     vdW  Elec       q    Type
REMARK                         _______ _______ _______ _____ _____    ______ ____
ROOT
ATOM      1  C   UNL     1       0.178  11.124  20.927  0.00  0.00    +0.000 A 
ATOM      2  C   UNL     1       0.380  12.086  19.928  0.00  0.00    +0.000 A 
ATOM      3  C   UNL     1       1.036  11.722  18.767  0.00  0.00    +0.000 A 
ATOM      4  N   UNL     1       1.522  10.488  18.543  0.00  0.00    +0.000 NA
ATOM      5  C   UNL     1       1.366   9.560  19.497  0.00  0.00    +0.000 A 
ATOM      6  N   UNL     1       1.866   8.264  19.302  0.00  0.00    +0.000 N 
ATOM      7  C   UNL     1       2.458   7.817  18.133  0.00  0.00    +0.000 C 
ATOM      8  O   UNL     1       2.599   8.434  17.086  0.00  0.00    +0.000 OA
ATOM      9  C   UNL     1       0.714   9.841  20.698  0.00  0.00    +0.000 A 
ATOM     10  H   UNL     1       1.792   7.586  20.050  0.00  0.00    +0.000 HD
ENDROOT
BRANCH   7  11
ATOM     11  C   UNL     1       2.964   6.408  18.203  0.00  0.00    +0.000 A 
ATOM     12  C   UNL     1       4.279   6.146  17.840  0.00  0.00    +0.000 A 
ATOM     13  C   UNL     1       4.750   4.845  17.948  0.00  0.00    +0.000 A 
ATOM     14  C   UNL     1       3.897   3.852  18.417  0.00  0.00    +0.000 A 
ATOM     15  C   UNL     1       2.584   4.183  18.767  0.00  0.00    +0.000 A 
ATOM     16  N   UNL     1       2.099   5.458  18.659  0.00  0.00    +0.000 NA
BRANCH  15  17
ATOM     17  C   UNL     1       1.658   3.099  19.307  0.00  0.00    +0.000 C 
ATOM     18  C   UNL     1       1.088   3.503  20.656  0.00  0.00    +0.000 C 
ATOM     19  F   UNL     1       0.615   2.842  18.464  0.00  0.00    +0.000 F 
ATOM     20  F   UNL     1       2.287   1.894  19.474  0.00  0.00    +0.000 F 
ENDBRANCH  15  17
ENDBRANCH   7  11
BRANCH   1  22
ATOM     21  C   UNL     1      -0.917  10.301  23.099  0.00  0.00    +0.000 C 
ATOM     22  C   UNL     1      -0.619  11.495  22.182  0.00  0.00    +0.000 C 
BRANCH  22  23
ATOM     23  S   UNL     1      -2.205  12.293  21.665  0.00  0.00    +0.000 S 
BRANCH  23  24
ATOM     24  C   UNL     1      -2.947  12.673  23.174  0.00  0.00    +0.000 A 
ATOM     25  N   UNL     1      -3.891  12.004  23.794  0.00  0.00    +0.000 NA
ATOM     26  N   UNL     1      -4.250  12.729  24.911  0.00  0.00    +0.000 NA
ATOM     27  C   UNL     1      -3.497  13.806  24.944  0.00  0.00    +0.000 A 
ATOM     28  N   UNL     1      -2.645  13.799  23.882  0.00  0.00    +0.000 N 
ATOM     29  C   UNL     1      -1.654  14.796  23.579  0.00  0.00    +0.000 C 
ENDBRANCH  23  24
ENDBRANCH  22  23
ENDBRANCH   1  22
TORSDOF 5
ENDMDL
MODEL 6
REMARK VINA RESULT:      -7.8      8.533     12.050
REMARK  Name = 
REMARK  8 active torsions:
REMARK  status: ('A' for Active; 'I' for Inactive)
REMARK    1  A    between atoms: C_1  and  C_2
REMARK    2  A    between atoms: C_2  and  S_3
REMARK    3  A    between atoms: C_2  and  C_10
REMARK    4  A    between atoms: S_3  and  C_4
REMARK    5  A    between atoms: N_8  and  C_9
REMARK    6  A    between atoms: C_16  and  C_18
REMARK    7  A    between atoms: C_22  and  C_23
REMARK    8  A    between atoms: C_23  and  C_24
REMARK                            x       y       z     vdW  Elec       q    Type
REMARK                         _______ _______ _______ _____ _____    ______ ____
ROOT
ATOM      1  C   UNL     1       0.346  11.033  21.120  0.00  0.00    +0.000 A 
ATOM      2  C   UNL     1       0.543  12.036  20.160  0.00  0.00    +0.000 A 
ATOM      3  C   UNL     1       1.145  11.709  18.960  0.00  0.00    +0.000 A 
ATOM      4  N   UNL     1       1.582  10.472  18.659  0.00  0.00    +0.000 NA
ATOM      5  C   UNL     1       1.431   9.504  19.574  0.00  0.00    +0.000 A 
ATOM      6  N   UNL     1       1.881   8.205  19.300  0.00  0.00    +0.000 N 
ATOM      7  C   UNL     1       2.415   7.797  18.090  0.00  0.00    +0.000 C 
ATOM      8  O   UNL     1       2.539   8.459  17.069  0.00  0.00    +0.000 OA
ATOM      9  C   UNL     1       0.831   9.747  20.810  0.00  0.00    +0.000 A 
ATOM     10  H   UNL     1       1.811   7.494  20.017  0.00  0.00    +0.000 HD
ENDROOT
BRANCH   7  11
ATOM     11  C   UNL     1       2.877   6.371  18.075  0.00  0.00    +0.000 A 
ATOM     12  C   UNL     1       4.111   6.069  17.512  0.00  0.00    +0.000 A 
ATOM     13  C   UNL     1       4.548   4.752  17.541  0.00  0.00    +0.000 A 
ATOM     14  C   UNL     1       3.744   3.783  18.131  0.00  0.00    +0.000 A 
ATOM     15  C   UNL     1       2.512   4.154  18.679  0.00  0.00    +0.000 A 
ATOM     16  N   UNL     1       2.060   5.445  18.653  0.00  0.00    +0.000 NA
BRANCH  15  17
ATOM     17  C   UNL     1       1.643   3.096  19.349  0.00  0.00    +0.000 C 
ATOM     18  C   UNL     1       1.141   3.589  20.697  0.00  0.00    +0.000 C 
ATOM     19  F   UNL     1       0.560   2.758  18.590  0.00  0.00    +0.000 F 
ATOM     20  F   UNL     1       2.309   1.919  19.568  0.00  0.00    +0.000 F 
ENDBRANCH  15  17
ENDBRANCH   7  11
BRANCH   1  22
ATOM     21  C   UNL     1      -0.926  10.135  23.161  0.00  0.00    +0.000 C 
ATOM     22  C   UNL     1      -0.393  11.368  22.419  0.00  0.00    +0.000 C 
BRANCH  22  23
ATOM     23  S   UNL     1      -1.793  12.511  22.031  0.00  0.00    +0.000 S 
BRANCH  23  24
ATOM     24  C   UNL     1      -1.608  13.752  23.213  0.00  0.00    +0.000 A 
ATOM     25  N   UNL     1      -0.553  14.501  23.429  0.00  0.00    +0.000 NA
ATOM     26  N   UNL     1      -0.817  15.282  24.536  0.00  0.00    +0.000 NA
ATOM     27  C   UNL     1      -2.033  14.995  24.943  0.00  0.00    +0.000 A 
ATOM     28  N   UNL     1      -2.578  14.054  24.124  0.00  0.00    +0.000 N 
ATOM     29  C   UNL     1      -3.898  13.493  24.231  0.00  0.00    +0.000 C 
ENDBRANCH  23  24
ENDBRANCH  22  23
ENDBRANCH   1  22
TORSDOF 5
ENDMDL
MODEL 7
REMARK VINA RESULT:      -7.7      7.468     10.382
REMARK  Name = 
REMARK  8 active torsions:
REMARK  status: ('A' for Active; 'I' for Inactive)
REMARK    1  A    between atoms: C_1  and  C_2
REMARK    2  A    between atoms: C_2  and  S_3
REMARK    3  A    between atoms: C_2  and  C_10
REMARK    4  A    between atoms: S_3  and  C_4
REMARK    5  A    between atoms: N_8  and  C_9
REMARK    6  A    between atoms: C_16  and  C_18
REMARK    7  A    between atoms: C_22  and  C_23
REMARK    8  A    between atoms: C_23  and  C_24
REMARK                            x       y       z     vdW  Elec       q    Type
REMARK                         _______ _______ _______ _____ _____    ______ ____
ROOT
ATOM      1  C   UNL     1       0.560  10.777  20.311  0.00  0.00    +0.000 A 
ATOM      2  C   UNL     1       0.007  10.382  21.537  0.00  0.00    +0.000 A 
ATOM      3  C   UNL     1       0.191   9.082  21.969  0.00  0.00    +0.000 A 
ATOM      4  N   UNL     1       0.858   8.150  21.262  0.00  0.00    +0.000 NA
ATOM      5  C   UNL     1       1.369   8.499  20.073  0.00  0.00    +0.000 A 
ATOM      6  N   UNL     1       2.064   7.553  19.305  0.00  0.00    +0.000 N 
ATOM      7  C   UNL     1       2.350   6.263  19.717  0.00  0.00    +0.000 C 
ATOM      8  O   UNL     1       2.102   5.755  20.802  0.00  0.00    +0.000 OA
ATOM      9  C   UNL     1       1.232   9.790  19.564  0.00  0.00    +0.000 A 
ATOM     10  H   UNL     1       2.399   7.811  18.385  0.00  0.00    +0.000 HD
ENDROOT
BRANCH   7  11
ATOM     11  C   UNL     1       3.051   5.432  18.685  0.00  0.00    +0.000 A 
ATOM     12  C   UNL     1       2.430   4.284  18.209  0.00  0.00    +0.000 A 
ATOM     13  C   UNL     1       3.068   3.545  17.223  0.00  0.00    +0.000 A 
ATOM     14  C   UNL     1       4.299   3.976  16.742  0.00  0.00    +0.000 A 
ATOM     15  C   UNL     1       4.870   5.142  17.264  0.00  0.00    +0.000 A 
ATOM     16  N   UNL     1       4.261   5.879  18.242  0.00  0.00    +0.000 NA
BRANCH  15  17
ATOM     17  C   UNL     1       6.207   5.628  16.717  0.00  0.00    +0.000 C 
ATOM     18  C   UNL     1       7.335   4.713  17.164  0.00  0.00    +0.000 C 
ATOM     19  F   UNL     1       6.219   5.683  15.352  0.00  0.00    +0.000 F 
ATOM     20  F   UNL     1       6.523   6.896  17.128  0.00  0.00    +0.000 F 
ENDBRANCH  15  17
ENDBRANCH   7  11
BRANCH   1  22
ATOM     21  C   UNL     1       1.470  13.171  20.498  0.00  0.00    +0.000 C 
ATOM     22  C   UNL     1       0.432  12.237  19.862  0.00  0.00    +0.000 C 
BRANCH  22  23
ATOM     23  S   UNL     1      -1.270  12.836  20.263  0.00  0.00    +0.000 S 
BRANCH  23  24
ATOM     24  C   UNL     1      -2.224  12.133  19.011  0.00  0.00    +0.000 A 
ATOM     25  N   UNL     1      -1.807  11.625  17.876  0.00  0.00    +0.000 NA
ATOM     26  N   UNL     1      -2.921  11.274  17.142  0.00  0.00    +0.000 NA
ATOM     27  C   UNL     1      -3.980  11.564  17.865  0.00  0.00    +0.000 A 
ATOM     28  N   UNL     1      -3.587  12.084  19.061  0.00  0.00    +0.000 N 
ATOM     29  C   UNL     1      -4.450  12.508  20.130  0.00  0.00    +0.000 C 
ENDBRANCH  23  24
ENDBRANCH  22  23
ENDBRANCH   1  22
TORSDOF 5
ENDMDL
MODEL 8
REMARK VINA RESULT:      -7.7      5.025      6.544
REMARK  Name = 
REMARK  8 active torsions:
REMARK  status: ('A' for Active; 'I' for Inactive)
REMARK    1  A    between atoms: C_1  and  C_2
REMARK    2  A    between atoms: C_2  and  S_3
REMARK    3  A    between atoms: C_2  and  C_10
REMARK    4  A    between atoms: S_3  and  C_4
REMARK    5  A    between atoms: N_8  and  C_9
REMARK    6  A    between atoms: C_16  and  C_18
REMARK    7  A    between atoms: C_22  and  C_23
REMARK    8  A    between atoms: C_23  and  C_24
REMARK                            x       y       z     vdW  Elec       q    Type
REMARK                         _______ _______ _______ _____ _____    ______ ____
ROOT
ATOM      1  C   UNL     1       3.044   5.682  18.517  0.00  0.00    +0.000 A 
ATOM      2  C   UNL     1       2.686   5.123  19.752  0.00  0.00    +0.000 A 
ATOM      3  C   UNL     1       1.980   5.892  20.657  0.00  0.00    +0.000 A 
ATOM      4  N   UNL     1       1.629   7.171  20.434  0.00  0.00    +0.000 NA
ATOM      5  C   UNL     1       1.985   7.735  19.271  0.00  0.00    +0.000 A 
ATOM      6  N   UNL     1       1.644   9.069  19.005  0.00  0.00    +0.000 N 
ATOM      7  C   UNL     1       0.870   9.862  19.834  0.00  0.00    +0.000 C 
ATOM      8  O   UNL     1       0.326   9.538  20.880  0.00  0.00    +0.000 OA
ATOM      9  C   UNL     1       2.697   7.030  18.300  0.00  0.00    +0.000 A 
ATOM     10  H   UNL     1       1.965   9.501  18.148  0.00  0.00    +0.000 HD
ENDROOT
BRANCH   7  11
ATOM     11  C   UNL     1       0.701  11.271  19.350  0.00  0.00    +0.000 A 
ATOM     12  C   UNL     1      -0.575  11.733  19.054  0.00  0.00    +0.000 A 
ATOM     13  C   UNL     1      -0.724  13.052  18.648  0.00  0.00    +0.000 A 
ATOM     14  C   UNL     1       0.400  13.865  18.553  0.00  0.00    +0.000 A 
ATOM     15  C   UNL     1       1.657  13.336  18.866  0.00  0.00    +0.000 A 
ATOM     16  N   UNL     1       1.826  12.037  19.260  0.00  0.00    +0.000 NA
BRANCH  15  17
ATOM     17  C   UNL     1       2.886  14.235  18.788  0.00  0.00    +0.000 C 
ATOM     18  C   UNL     1       2.520  15.596  18.219  0.00  0.00    +0.000 C 
ATOM     19  F   UNL     1       3.465  14.427  20.009  0.00  0.00    +0.000 F 
ATOM     20  F   UNL     1       3.878  13.717  17.999  0.00  0.00    +0.000 F 
ENDBRANCH  15  17
ENDBRANCH   7  11
BRANCH   1  22
ATOM     21  C   UNL     1       3.015   3.509  17.150  0.00  0.00    +0.000 C 
ATOM     22  C   UNL     1       3.755   4.813  17.474  0.00  0.00    +0.000 C 
BRANCH  22  23
ATOM     23  S   UNL     1       5.458   4.428  18.081  0.00  0.00    +0.000 S 
BRANCH  23  24
ATOM     24  C   UNL     1       6.314   5.889  17.760  0.00  0.00    +0.000 A 
ATOM     25  N   UNL     1       6.110   6.739  16.781  0.00  0.00    +0.000 NA
ATOM     26  N   UNL     1       7.093   7.704  16.855  0.00  0.00    +0.000 NA
ATOM     27  C   UNL     1       7.852   7.418  17.890  0.00  0.00    +0.000 A 
ATOM     28  N   UNL     1       7.383   6.297  18.504  0.00  0.00    +0.000 N 
ATOM     29  C   UNL     1       7.931   5.676  19.680  0.00  0.00    +0.000 C 
ENDBRANCH  23  24
ENDBRANCH  22  23
ENDBRANCH   1  22
TORSDOF 5
ENDMDL
MODEL 9
REMARK VINA RESULT:      -7.5      7.902     11.237
REMARK  Name = 
REMARK  8 active torsions:
REMARK  status: ('A' for Active; 'I' for Inactive)
REMARK    1  A    between atoms: C_1  and  C_2
REMARK    2  A    between atoms: C_2  and  S_3
REMARK    3  A    between atoms: C_2  and  C_10
REMARK    4  A    between atoms: S_3  and  C_4
REMARK    5  A    between atoms: N_8  and  C_9
REMARK    6  A    between atoms: C_16  and  C_18
REMARK    7  A    between atoms: C_22  and  C_23
REMARK    8  A    between atoms: C_23  and  C_24
REMARK                            x       y       z     vdW  Elec       q    Type
REMARK                         _______ _______ _______ _____ _____    ______ ____
ROOT
ATOM      1  C   UNL     1       0.027  10.781  18.502  0.00  0.00    +0.000 A 
ATOM      2  C   UNL     1       1.063  11.713  18.344  0.00  0.00    +0.000 A 
ATOM      3  C   UNL     1       2.337  11.259  18.060  0.00  0.00    +0.000 A 
ATOM      4  N   UNL     1       2.655   9.956  17.946  0.00  0.00    +0.000 NA
ATOM      5  C   UNL     1       1.686   9.047  18.123  0.00  0.00    +0.000 A 
ATOM      6  N   UNL     1       1.981   7.680  18.020  0.00  0.00    +0.000 N 
ATOM      7  C   UNL     1       3.215   7.167  17.658  0.00  0.00    +0.000 C 
ATOM      8  O   UNL     1       4.214   7.792  17.328  0.00  0.00    +0.000 OA
ATOM      9  C   UNL     1       0.372   9.419  18.410  0.00  0.00    +0.000 A 
ATOM     10  H   UNL     1       1.255   7.000  18.208  0.00  0.00    +0.000 HD
ENDROOT
BRANCH   7  11
ATOM     11  C   UNL     1       3.287   5.670  17.683  0.00  0.00    +0.000 A 
ATOM     12  C   UNL     1       4.330   5.035  17.020  0.00  0.00    +0.000 A 
ATOM     13  C   UNL     1       4.411   3.651  17.085  0.00  0.00    +0.000 A 
ATOM     14  C   UNL     1       3.453   2.948  17.809  0.00  0.00    +0.000 A 
ATOM     15  C   UNL     1       2.429   3.649  18.453  0.00  0.00    +0.000 A 
ATOM     16  N   UNL     1       2.327   5.012  18.394  0.00  0.00    +0.000 NA
BRANCH  15  17
ATOM     17  C   UNL     1       1.396   2.880  19.268  0.00  0.00    +0.000 C 
ATOM     18  C   UNL     1       0.878   3.730  20.418  0.00  0.00    +0.000 C 
ATOM     19  F   UNL     1       0.327   2.490  18.514  0.00  0.00    +0.000 F 
ATOM     20  F   UNL     1       1.894   1.725  19.809  0.00  0.00    +0.000 F 
ENDBRANCH  15  17
ENDBRANCH   7  11
BRANCH   1  22
ATOM     21  C   UNL     1      -2.190  11.525  17.443  0.00  0.00    +0.000 C 
ATOM     22  C   UNL     1      -1.404  11.277  18.737  0.00  0.00    +0.000 C 
BRANCH  22  23
ATOM     23  S   UNL     1      -1.339  12.833  19.732  0.00  0.00    +0.000 S 
BRANCH  23  24
ATOM     24  C   UNL     1      -1.249  12.245  21.350  0.00  0.00    +0.000 A 
ATOM     25  N   UNL     1      -0.207  11.727  21.957  0.00  0.00    +0.000 NA
ATOM     26  N   UNL     1      -0.620  11.300  23.202  0.00  0.00    +0.000 NA
ATOM     27  C   UNL     1      -1.897  11.590  23.317  0.00  0.00    +0.000 A 
ATOM     28  N   UNL     1      -2.328  12.208  22.183  0.00  0.00    +0.000 N 
ATOM     29  C   UNL     1      -3.658  12.694  21.931  0.00  0.00    +0.000 C 
ENDBRANCH  23  24
ENDBRANCH  22  23
ENDBRANCH   1  22
TORSDOF 5
ENDMDL
