MODEL 1
REMARK VINA RESULT:      -7.9      0.000      0.000
REMARK  Name = 
REMARK  11 active torsions:
REMARK  status: ('A' for Active; 'I' for Inactive)
REMARK    1  A    between atoms: C_1  and  N_2
REMARK    2  A    between atoms: N_2  and  C_3
REMARK    3  A    between atoms: N_2  and  C_4
REMARK    4  A    between atoms: C_4  and  C_5
REMARK    5  A    between atoms: C_7  and  C_8
REMARK    6  A    between atoms: N_10  and  C_11
REMARK    7  A    between atoms: C_15  and  C_16
REMARK    8  A    between atoms: C_16  and  C_17
REMARK    9  A    between atoms: C_17  and  C_18
REMARK   10  A    between atoms: N_22  and  C_23
REMARK   11  A    between atoms: C_29  and  C_30
REMARK                            x       y       z     vdW  Elec       q    Type
REMARK                         _______ _______ _______ _____ _____    ______ ____
ROOT
ATOM      1  C   UNL     1       1.691   8.990  18.227  0.00  0.00    +0.000 C 
ATOM      2  O   UNL     1       2.114   9.885  17.507  0.00  0.00    +0.000 OA
ATOM      3  N   UNL     1       0.515   9.005  18.958  0.00  0.00    +0.000 N 
ATOM      4  H   UNL     1       0.390   8.230  19.605  0.00  0.00    +0.000 HD
ENDROOT
BRANCH   1   7
ATOM      5  C   UNL     1       4.362   6.461  17.812  0.00  0.00    +0.000 A 
ATOM      6  C   UNL     1       3.607   7.582  17.575  0.00  0.00    +0.000 A 
ATOM      7  C   UNL     1       2.524   7.757  18.399  0.00  0.00    +0.000 A 
ATOM      8  N   UNL     1       2.165   6.902  19.386  0.00  0.00    +0.000 NA
ATOM      9  C   UNL     1       2.945   5.816  19.537  0.00  0.00    +0.000 A 
ATOM     10  N   UNL     1       4.036   5.571  18.776  0.00  0.00    +0.000 NA
BRANCH   9  11
ATOM     11  C   UNL     1       2.588   4.811  20.605  0.00  0.00    +0.000 C 
ATOM     12  C   UNL     1       1.353   3.949  20.460  0.00  0.00    +0.000 C 
ATOM     13  C   UNL     1       2.712   3.330  20.328  0.00  0.00    +0.000 C 
ENDBRANCH   9  11
BRANCH   5  14
ATOM     14  C   UNL     1       5.657   6.249  17.048  0.00  0.00    +0.000 C 
BRANCH  14  16
ATOM     15  C   UNL     1       6.099   4.317  15.638  0.00  0.00    +0.000 C 
ATOM     16  N   UNL     1       6.082   4.831  17.012  0.00  0.00    +0.000 NA
ATOM     17  C   UNL     1       7.410   4.686  17.611  0.00  0.00    +0.000 C 
ENDBRANCH  14  16
ENDBRANCH   5  14
ENDBRANCH   1   7
BRANCH   3  18
ATOM     18  C   UNL     1      -0.423  10.059  18.983  0.00  0.00    +0.000 A 
ATOM     19  C   UNL     1      -1.134  10.461  17.853  0.00  0.00    +0.000 A 
ATOM     20  C   UNL     1      -2.021  11.530  17.918  0.00  0.00    +0.000 A 
ATOM     21  C   UNL     1      -2.186  12.222  19.112  0.00  0.00    +0.000 A 
ATOM     22  C   UNL     1      -1.478  11.871  20.280  0.00  0.00    +0.000 A 
ATOM     23  C   UNL     1      -0.631  10.740  20.191  0.00  0.00    +0.000 A 
BRANCH  22  24
ATOM     24  C   UNL     1      -1.587  12.764  21.606  0.00  0.00    +0.000 C 
ATOM     25  C   UNL     1      -1.463  12.078  22.996  0.00  0.00    +0.000 C 
ATOM     26  O   UNL     1      -0.527  13.099  23.444  0.00  0.00    +0.000 OA
ATOM     27  C   UNL     1      -0.252  13.430  22.061  0.00  0.00    +0.000 C 
BRANCH  24  28
ATOM     28  C   UNL     1      -2.732  13.790  21.523  0.00  0.00    +0.000 C 
BRANCH  28  29
ATOM     29  C   UNL     1      -3.947  13.376  22.283  0.00  0.00    +0.000 A 
ATOM     30  N   UNL     1      -4.832  12.476  21.898  0.00  0.00    +0.000 NA
ATOM     31  N   UNL     1      -5.786  12.358  22.878  0.00  0.00    +0.000 NA
ATOM     32  C   UNL     1      -5.466  13.186  23.844  0.00  0.00    +0.000 A 
ATOM     33  N   UNL     1      -4.325  13.852  23.513  0.00  0.00    +0.000 N 
ATOM     34  C   UNL     1      -3.672  14.840  24.328  0.00  0.00    +0.000 C 
ENDBRANCH  28  29
ENDBRANCH  24  28
ENDBRANCH  22  24
ENDBRANCH   3  18
TORSDOF 8
ENDMDL
MODEL 2
REMARK VINA RESULT:      -7.9      3.340      4.490
REMARK  Name = 
REMARK  11 active torsions:
REMARK  status: ('A' for Active; 'I' for Inactive)
REMARK    1  A    between atoms: C_1  and  N_2
REMARK    2  A    between atoms: N_2  and  C_3
REMARK    3  A    between atoms: N_2  and  C_4
REMARK    4  A    between atoms: C_4  and  C_5
REMARK    5  A    between atoms: C_7  and  C_8
REMARK    6  A    between atoms: N_10  and  C_11
REMARK    7  A    between atoms: C_15  and  C_16
REMARK    8  A    between atoms: C_16  and  C_17
REMARK    9  A    between atoms: C_17  and  C_18
REMARK   10  A    between atoms: N_22  and  C_23
REMARK   11  A    between atoms: C_29  and  C_30
REMARK                            x       y       z     vdW  Elec       q    Type
REMARK                         _______ _______ _______ _____ _____    ______ ____
ROOT
ATOM      1  C   UNL     1       2.067   8.321  18.366  0.00  0.00    +0.000 C 
ATOM      2  O   UNL     1       2.307   8.756  17.247  0.00  0.00    +0.000 OA
ATOM      3  N   UNL     1       1.275   8.919  19.331  0.00  0.00    +0.000 N 
ATOM      4  H   UNL     1       1.297   8.483  20.250  0.00  0.00    +0.000 HD
ENDROOT
BRANCH   1   7
ATOM      5  C   UNL     1       4.479   5.529  18.660  0.00  0.00    +0.000 A 
ATOM      6  C   UNL     1       3.903   6.683  18.195  0.00  0.00    +0.000 A 
ATOM      7  C   UNL     1       2.719   7.041  18.791  0.00  0.00    +0.000 A 
ATOM      8  N   UNL     1       2.103   6.327  19.763  0.00  0.00    +0.000 NA
ATOM      9  C   UNL     1       2.723   5.195  20.144  0.00  0.00    +0.000 A 
ATOM     10  N   UNL     1       3.896   4.774  19.619  0.00  0.00    +0.000 NA
BRANCH   9  11
ATOM     11  C   UNL     1       2.080   4.342  21.210  0.00  0.00    +0.000 C 
ATOM     12  C   UNL     1       1.115   3.241  20.827  0.00  0.00    +0.000 C 
ATOM     13  C   UNL     1       2.471   2.889  21.360  0.00  0.00    +0.000 C 
ENDBRANCH   9  11
BRANCH   5  14
ATOM     14  C   UNL     1       5.856   5.120  18.166  0.00  0.00    +0.000 C 
BRANCH  14  16
ATOM     15  C   UNL     1       7.421   6.799  17.363  0.00  0.00    +0.000 C 
ATOM     16  N   UNL     1       6.311   5.912  17.000  0.00  0.00    +0.000 NA
ATOM     17  C   UNL     1       6.723   5.021  15.914  0.00  0.00    +0.000 C 
ENDBRANCH  14  16
ENDBRANCH   5  14
ENDBRANCH   1   7
BRANCH   3  18
ATOM     18  C   UNL     1       0.577  10.137  19.182  0.00  0.00    +0.000 A 
ATOM     19  C   UNL     1      -0.543  10.268  18.362  0.00  0.00    +0.000 A 
ATOM     20  C   UNL     1      -1.175  11.498  18.219  0.00  0.00    +0.000 A 
ATOM     21  C   UNL     1      -0.675  12.615  18.878  0.00  0.00    +0.000 A 
ATOM     22  C   UNL     1       0.465  12.544  19.704  0.00  0.00    +0.000 A 
ATOM     23  C   UNL     1       1.045  11.263  19.875  0.00  0.00    +0.000 A 
BRANCH  22  24
ATOM     24  C   UNL     1       1.097  13.869  20.347  0.00  0.00    +0.000 C 
ATOM     25  C   UNL     1       0.739  14.247  21.812  0.00  0.00    +0.000 C 
ATOM     26  O   UNL     1       2.141  14.489  22.119  0.00  0.00    +0.000 OA
ATOM     27  C   UNL     1       2.513  13.684  20.974  0.00  0.00    +0.000 C 
BRANCH  24  28
ATOM     28  C   UNL     1       1.060  15.061  19.374  0.00  0.00    +0.000 C 
BRANCH  28  29
ATOM     29  C   UNL     1       2.399  15.399  18.809  0.00  0.00    +0.000 A 
ATOM     30  N   UNL     1       3.030  14.732  17.862  0.00  0.00    +0.000 NA
ATOM     31  N   UNL     1       4.217  15.369  17.600  0.00  0.00    +0.000 NA
ATOM     32  C   UNL     1       4.289  16.415  18.389  0.00  0.00    +0.000 A 
ATOM     33  N   UNL     1       3.175  16.470  19.170  0.00  0.00    +0.000 N 
ATOM     34  C   UNL     1       2.901  17.479  20.157  0.00  0.00    +0.000 C 
ENDBRANCH  28  29
ENDBRANCH  24  28
ENDBRANCH  22  24
ENDBRANCH   3  18
TORSDOF 8
ENDMDL
MODEL 3
REMARK VINA RESULT:      -7.9      1.016      1.329
REMARK  Name = 
REMARK  11 active torsions:
REMARK  status: ('A' for Active; 'I' for Inactive)
REMARK    1  A    between atoms: C_1  and  N_2
REMARK    2  A    between atoms: N_2  and  C_3
REMARK    3  A    between atoms: N_2  and  C_4
REMARK    4  A    between atoms: C_4  and  C_5
REMARK    5  A    between atoms: C_7  and  C_8
REMARK    6  A    between atoms: N_10  and  C_11
REMARK    7  A    between atoms: C_15  and  C_16
REMARK    8  A    between atoms: C_16  and  C_17
REMARK    9  A    between atoms: C_17  and  C_18
REMARK   10  A    between atoms: N_22  and  C_23
REMARK   11  A    between atoms: C_29  and  C_30
REMARK                            x       y       z     vdW  Elec       q    Type
REMARK                         _______ _______ _______ _____ _____    ______ ____
ROOT
ATOM      1  C   UNL     1       1.780   8.925  18.373  0.00  0.00    +0.000 C 
ATOM      2  O   UNL     1       2.217   9.716  17.546  0.00  0.00    +0.000 OA
ATOM      3  N   UNL     1       0.692   9.122  19.207  0.00  0.00    +0.000 N 
ATOM      4  H   UNL     1       0.555   8.414  19.925  0.00  0.00    +0.000 HD
ENDROOT
BRANCH   1   7
ATOM      5  C   UNL     1       4.191   6.144  17.988  0.00  0.00    +0.000 A 
ATOM      6  C   UNL     1       3.540   7.324  17.730  0.00  0.00    +0.000 A 
ATOM      7  C   UNL     1       2.496   7.624  18.568  0.00  0.00    +0.000 A 
ATOM      8  N   UNL     1       2.079   6.836  19.587  0.00  0.00    +0.000 NA
ATOM      9  C   UNL     1       2.756   5.686  19.757  0.00  0.00    +0.000 A 
ATOM     10  N   UNL     1       3.803   5.316  18.984  0.00  0.00    +0.000 NA
BRANCH   9  11
ATOM     11  C   UNL     1       2.329   4.751  20.862  0.00  0.00    +0.000 C 
ATOM     12  C   UNL     1       1.175   3.796  20.649  0.00  0.00    +0.000 C 
ATOM     13  C   UNL     1       2.573   3.264  20.737  0.00  0.00    +0.000 C 
ENDBRANCH   9  11
BRANCH   5  14
ATOM     14  C   UNL     1       5.444   5.787  17.207  0.00  0.00    +0.000 C 
BRANCH  14  16
ATOM     15  C   UNL     1       7.581   4.791  17.802  0.00  0.00    +0.000 C 
ATOM     16  N   UNL     1       6.683   5.935  18.002  0.00  0.00    +0.000 NA
ATOM     17  C   UNL     1       7.372   7.174  17.639  0.00  0.00    +0.000 C 
ENDBRANCH  14  16
ENDBRANCH   5  14
ENDBRANCH   1   7
BRANCH   3  18
ATOM     18  C   UNL     1      -0.126  10.271  19.232  0.00  0.00    +0.000 A 
ATOM     19  C   UNL     1      -0.934  10.645  18.159  0.00  0.00    +0.000 A 
ATOM     20  C   UNL     1      -1.695  11.807  18.217  0.00  0.00    +0.000 A 
ATOM     21  C   UNL     1      -1.636  12.620  19.343  0.00  0.00    +0.000 A 
ATOM     22  C   UNL     1      -0.822  12.300  20.449  0.00  0.00    +0.000 A 
ATOM     23  C   UNL     1      -0.110  11.078  20.379  0.00  0.00    +0.000 A 
BRANCH  22  24
ATOM     24  C   UNL     1      -0.671  13.317  21.679  0.00  0.00    +0.000 C 
ATOM     25  C   UNL     1       0.627  14.164  21.808  0.00  0.00    +0.000 C 
ATOM     26  O   UNL     1      -0.155  15.368  22.049  0.00  0.00    +0.000 OA
ATOM     27  C   UNL     1      -1.304  14.724  21.449  0.00  0.00    +0.000 C 
BRANCH  24  28
ATOM     28  C   UNL     1      -1.139  12.696  23.007  0.00  0.00    +0.000 C 
BRANCH  28  29
ATOM     29  C   UNL     1      -2.599  12.872  23.256  0.00  0.00    +0.000 A 
ATOM     30  N   UNL     1      -3.568  12.159  22.715  0.00  0.00    +0.000 NA
ATOM     31  N   UNL     1      -4.766  12.608  23.212  0.00  0.00    +0.000 NA
ATOM     32  C   UNL     1      -4.507  13.585  24.049  0.00  0.00    +0.000 A 
ATOM     33  N   UNL     1      -3.163  13.792  24.103  0.00  0.00    +0.000 N 
ATOM     34  C   UNL     1      -2.506  14.781  24.913  0.00  0.00    +0.000 C 
ENDBRANCH  28  29
ENDBRANCH  24  28
ENDBRANCH  22  24
ENDBRANCH   3  18
TORSDOF 8
ENDMDL
MODEL 4
REMARK VINA RESULT:      -7.8      2.960     10.473
REMARK  Name = 
REMARK  11 active torsions:
REMARK  status: ('A' for Active; 'I' for Inactive)
REMARK    1  A    between atoms: C_1  and  N_2
REMARK    2  A    between atoms: N_2  and  C_3
REMARK    3  A    between atoms: N_2  and  C_4
REMARK    4  A    between atoms: C_4  and  C_5
REMARK    5  A    between atoms: C_7  and  C_8
REMARK    6  A    between atoms: N_10  and  C_11
REMARK    7  A    between atoms: C_15  and  C_16
REMARK    8  A    between atoms: C_16  and  C_17
REMARK    9  A    between atoms: C_17  and  C_18
REMARK   10  A    between atoms: N_22  and  C_23
REMARK   11  A    between atoms: C_29  and  C_30
REMARK                            x       y       z     vdW  Elec       q    Type
REMARK                         _______ _______ _______ _____ _____    ______ ____
ROOT
ATOM      1  C   UNL     1       1.833   8.194  18.684  0.00  0.00    +0.000 C 
ATOM      2  O   UNL     1       2.171   8.175  17.506  0.00  0.00    +0.000 OA
ATOM      3  N   UNL     1       2.196   7.283  19.661  0.00  0.00    +0.000 N 
ATOM      4  H   UNL     1       1.714   7.379  20.552  0.00  0.00    +0.000 HD
ENDROOT
BRANCH   1   7
ATOM      5  C   UNL     1      -0.766  10.829  18.685  0.00  0.00    +0.000 A 
ATOM      6  C   UNL     1       0.110   9.891  18.202  0.00  0.00    +0.000 A 
ATOM      7  C   UNL     1       0.894   9.268  19.140  0.00  0.00    +0.000 A 
ATOM      8  N   UNL     1       0.860   9.535  20.467  0.00  0.00    +0.000 NA
ATOM      9  C   UNL     1      -0.011  10.485  20.855  0.00  0.00    +0.000 A 
ATOM     10  N   UNL     1      -0.827  11.141  19.999  0.00  0.00    +0.000 NA
BRANCH   9  11
ATOM     11  C   UNL     1      -0.084  10.846  22.318  0.00  0.00    +0.000 C 
ATOM     12  C   UNL     1      -1.343  10.571  23.110  0.00  0.00    +0.000 C 
ATOM     13  C   UNL     1      -0.110   9.760  23.369  0.00  0.00    +0.000 C 
ENDBRANCH   9  11
BRANCH   5  14
ATOM     14  C   UNL     1      -1.772  11.474  17.747  0.00  0.00    +0.000 C 
BRANCH  14  16
ATOM     15  C   UNL     1      -4.096  11.660  17.055  0.00  0.00    +0.000 C 
ATOM     16  N   UNL     1      -3.156  10.993  17.963  0.00  0.00    +0.000 NA
ATOM     17  C   UNL     1      -3.223   9.544  17.768  0.00  0.00    +0.000 C 
ENDBRANCH  14  16
ENDBRANCH   5  14
ENDBRANCH   1   7
BRANCH   3  18
ATOM     18  C   UNL     1       3.047   6.173  19.474  0.00  0.00    +0.000 A 
ATOM     19  C   UNL     1       2.682   4.875  19.831  0.00  0.00    +0.000 A 
ATOM     20  C   UNL     1       3.570   3.818  19.661  0.00  0.00    +0.000 A 
ATOM     21  C   UNL     1       4.842   4.056  19.155  0.00  0.00    +0.000 A 
ATOM     22  C   UNL     1       5.271   5.351  18.796  0.00  0.00    +0.000 A 
ATOM     23  C   UNL     1       4.319   6.391  18.924  0.00  0.00    +0.000 A 
BRANCH  22  24
ATOM     24  C   UNL     1       6.783   5.618  18.338  0.00  0.00    +0.000 C 
ATOM     25  C   UNL     1       7.192   7.040  17.861  0.00  0.00    +0.000 C 
ATOM     26  O   UNL     1       8.380   7.007  18.701  0.00  0.00    +0.000 OA
ATOM     27  C   UNL     1       7.769   5.963  19.496  0.00  0.00    +0.000 C 
BRANCH  24  28
ATOM     28  C   UNL     1       7.329   4.486  17.448  0.00  0.00    +0.000 C 
BRANCH  28  29
ATOM     29  C   UNL     1       6.971   4.647  16.009  0.00  0.00    +0.000 A 
ATOM     30  N   UNL     1       7.679   5.293  15.102  0.00  0.00    +0.000 NA
ATOM     31  N   UNL     1       7.032   5.194  13.896  0.00  0.00    +0.000 NA
ATOM     32  C   UNL     1       5.943   4.488  14.086  0.00  0.00    +0.000 A 
ATOM     33  N   UNL     1       5.858   4.130  15.397  0.00  0.00    +0.000 N 
ATOM     34  C   UNL     1       4.799   3.350  15.979  0.00  0.00    +0.000 C 
ENDBRANCH  28  29
ENDBRANCH  24  28
ENDBRANCH  22  24
ENDBRANCH   3  18
TORSDOF 8
ENDMDL
MODEL 5
REMARK VINA RESULT:      -7.7      1.745      2.234
REMARK  Name = 
REMARK  11 active torsions:
REMARK  status: ('A' for Active; 'I' for Inactive)
REMARK    1  A    between atoms: C_1  and  N_2
REMARK    2  A    between atoms: N_2  and  C_3
REMARK    3  A    between atoms: N_2  and  C_4
REMARK    4  A    between atoms: C_4  and  C_5
REMARK    5  A    between atoms: C_7  and  C_8
REMARK    6  A    between atoms: N_10  and  C_11
REMARK    7  A    between atoms: C_15  and  C_16
REMARK    8  A    between atoms: C_16  and  C_17
REMARK    9  A    between atoms: C_17  and  C_18
REMARK   10  A    between atoms: N_22  and  C_23
REMARK   11  A    between atoms: C_29  and  C_30
REMARK                            x       y       z     vdW  Elec       q    Type
REMARK                         _______ _______ _______ _____ _____    ______ ____
ROOT
ATOM      1  C   UNL     1       1.859   8.825  18.259  0.00  0.00    +0.000 C 
ATOM      2  O   UNL     1       2.252   9.522  17.332  0.00  0.00    +0.000 OA
ATOM      3  N   UNL     1       0.856   9.139  19.160  0.00  0.00    +0.000 N 
ATOM      4  H   UNL     1       0.755   8.500  19.946  0.00  0.00    +0.000 HD
ENDROOT
BRANCH   1   7
ATOM      5  C   UNL     1       4.197   5.968  17.989  0.00  0.00    +0.000 A 
ATOM      6  C   UNL     1       3.578   7.153  17.683  0.00  0.00    +0.000 A 
ATOM      7  C   UNL     1       2.540   7.514  18.506  0.00  0.00    +0.000 A 
ATOM      8  N   UNL     1       2.100   6.777  19.554  0.00  0.00    +0.000 NA
ATOM      9  C   UNL     1       2.747   5.616  19.770  0.00  0.00    +0.000 A 
ATOM     10  N   UNL     1       3.785   5.190  19.015  0.00  0.00    +0.000 NA
BRANCH   9  11
ATOM     11  C   UNL     1       2.293   4.737  20.909  0.00  0.00    +0.000 C 
ATOM     12  C   UNL     1       1.189   3.724  20.698  0.00  0.00    +0.000 C 
ATOM     13  C   UNL     1       2.599   3.256  20.895  0.00  0.00    +0.000 C 
ENDBRANCH   9  11
BRANCH   5  14
ATOM     14  C   UNL     1       5.441   5.548  17.226  0.00  0.00    +0.000 C 
BRANCH  14  16
ATOM     15  C   UNL     1       7.631   4.673  17.820  0.00  0.00    +0.000 C 
ATOM     16  N   UNL     1       6.692   5.789  17.981  0.00  0.00    +0.000 NA
ATOM     17  C   UNL     1       7.320   7.033  17.534  0.00  0.00    +0.000 C 
ENDBRANCH  14  16
ENDBRANCH   5  14
ENDBRANCH   1   7
BRANCH   3  18
ATOM     18  C   UNL     1       0.087  10.322  19.153  0.00  0.00    +0.000 A 
ATOM     19  C   UNL     1      -1.113  10.436  18.452  0.00  0.00    +0.000 A 
ATOM     20  C   UNL     1      -1.818  11.635  18.446  0.00  0.00    +0.000 A 
ATOM     21  C   UNL     1      -1.313  12.739  19.122  0.00  0.00    +0.000 A 
ATOM     22  C   UNL     1      -0.096  12.686  19.831  0.00  0.00    +0.000 A 
ATOM     23  C   UNL     1       0.562  11.432  19.867  0.00  0.00    +0.000 A 
BRANCH  22  24
ATOM     24  C   UNL     1       0.528  14.006  20.492  0.00  0.00    +0.000 C 
ATOM     25  C   UNL     1       1.940  14.482  20.048  0.00  0.00    +0.000 C 
ATOM     26  O   UNL     1       1.459  15.847  19.898  0.00  0.00    +0.000 OA
ATOM     27  C   UNL     1       0.105  15.343  19.812  0.00  0.00    +0.000 C 
BRANCH  24  28
ATOM     28  C   UNL     1       0.311  14.051  22.016  0.00  0.00    +0.000 C 
BRANCH  28  29
ATOM     29  C   UNL     1      -0.808  13.178  22.475  0.00  0.00    +0.000 A 
ATOM     30  N   UNL     1      -0.688  11.953  22.952  0.00  0.00    +0.000 NA
ATOM     31  N   UNL     1      -1.938  11.495  23.287  0.00  0.00    +0.000 NA
ATOM     32  C   UNL     1      -2.797  12.447  23.012  0.00  0.00    +0.000 A 
ATOM     33  N   UNL     1      -2.136  13.518  22.492  0.00  0.00    +0.000 N 
ATOM     34  C   UNL     1      -2.748  14.749  22.072  0.00  0.00    +0.000 C 
ENDBRANCH  28  29
ENDBRANCH  24  28
ENDBRANCH  22  24
ENDBRANCH   3  18
TORSDOF 8
ENDMDL
MODEL 6
REMARK VINA RESULT:      -7.6      2.861      4.713
REMARK  Name = 
REMARK  11 active torsions:
REMARK  status: ('A' for Active; 'I' for Inactive)
REMARK    1  A    between atoms: C_1  and  N_2
REMARK    2  A    between atoms: N_2  and  C_3
REMARK    3  A    between atoms: N_2  and  C_4
REMARK    4  A    between atoms: C_4  and  C_5
REMARK    5  A    between atoms: C_7  and  C_8
REMARK    6  A    between atoms: N_10  and  C_11
REMARK    7  A    between atoms: C_15  and  C_16
REMARK    8  A    between atoms: C_16  and  C_17
REMARK    9  A    between atoms: C_17  and  C_18
REMARK   10  A    between atoms: N_22  and  C_23
REMARK   11  A    between atoms: C_29  and  C_30
REMARK                            x       y       z     vdW  Elec       q    Type
REMARK                         _______ _______ _______ _____ _____    ______ ____
ROOT
ATOM      1  C   UNL     1       2.313   8.172  18.348  0.00  0.00    +0.000 C 
ATOM      2  O   UNL     1       2.169   9.064  17.522  0.00  0.00    +0.000 OA
ATOM      3  N   UNL     1       1.807   8.152  19.637  0.00  0.00    +0.000 N 
ATOM      4  H   UNL     1       2.139   7.392  20.227  0.00  0.00    +0.000 HD
ENDROOT
BRANCH   1   7
ATOM      5  C   UNL     1       3.369   4.715  17.551  0.00  0.00    +0.000 A 
ATOM      6  C   UNL     1       2.561   5.752  17.941  0.00  0.00    +0.000 A 
ATOM      7  C   UNL     1       3.156   6.989  17.984  0.00  0.00    +0.000 A 
ATOM      8  N   UNL     1       4.457   7.224  17.691  0.00  0.00    +0.000 NA
ATOM      9  C   UNL     1       5.186   6.148  17.341  0.00  0.00    +0.000 A 
ATOM     10  N   UNL     1       4.677   4.897  17.262  0.00  0.00    +0.000 NA
BRANCH   9  11
ATOM     11  C   UNL     1       6.648   6.338  17.022  0.00  0.00    +0.000 C 
ATOM     12  C   UNL     1       7.391   7.551  17.538  0.00  0.00    +0.000 C 
ATOM     13  C   UNL     1       7.688   6.198  18.110  0.00  0.00    +0.000 C 
ENDBRANCH   9  11
BRANCH   5  14
ATOM     14  C   UNL     1       2.774   3.334  17.338  0.00  0.00    +0.000 C 
BRANCH  14  16
ATOM     15  C   UNL     1       1.263   2.152  18.832  0.00  0.00    +0.000 C 
ATOM     16  N   UNL     1       2.653   2.556  18.592  0.00  0.00    +0.000 NA
ATOM     17  C   UNL     1       3.510   1.371  18.537  0.00  0.00    +0.000 C 
ENDBRANCH  14  16
ENDBRANCH   5  14
ENDBRANCH   1   7
BRANCH   3  18
ATOM     18  C   UNL     1       1.008   9.157  20.222  0.00  0.00    +0.000 A 
ATOM     19  C   UNL     1       0.927   9.348  21.601  0.00  0.00    +0.000 A 
ATOM     20  C   UNL     1       0.097  10.329  22.132  0.00  0.00    +0.000 A 
ATOM     21  C   UNL     1      -0.681  11.111  21.286  0.00  0.00    +0.000 A 
ATOM     22  C   UNL     1      -0.653  10.948  19.886  0.00  0.00    +0.000 A 
ATOM     23  C   UNL     1       0.250   9.983  19.379  0.00  0.00    +0.000 A 
BRANCH  22  24
ATOM     24  C   UNL     1      -1.654  11.772  18.943  0.00  0.00    +0.000 C 
ATOM     25  C   UNL     1      -2.749  11.007  18.146  0.00  0.00    +0.000 C 
ATOM     26  O   UNL     1      -3.760  11.965  18.568  0.00  0.00    +0.000 OA
ATOM     27  C   UNL     1      -2.904  12.360  19.667  0.00  0.00    +0.000 C 
BRANCH  24  28
ATOM     28  C   UNL     1      -0.922  12.844  18.115  0.00  0.00    +0.000 C 
BRANCH  28  29
ATOM     29  C   UNL     1      -0.047  13.726  18.940  0.00  0.00    +0.000 A 
ATOM     30  N   UNL     1      -0.457  14.644  19.794  0.00  0.00    +0.000 NA
ATOM     31  N   UNL     1       0.646  15.222  20.372  0.00  0.00    +0.000 NA
ATOM     32  C   UNL     1       1.709  14.645  19.863  0.00  0.00    +0.000 A 
ATOM     33  N   UNL     1       1.325  13.707  18.955  0.00  0.00    +0.000 N 
ATOM     34  C   UNL     1       2.215  12.872  18.195  0.00  0.00    +0.000 C 
ENDBRANCH  28  29
ENDBRANCH  24  28
ENDBRANCH  22  24
ENDBRANCH   3  18
TORSDOF 8
ENDMDL
MODEL 7
REMARK VINA RESULT:      -7.6      3.526     10.811
REMARK  Name = 
REMARK  11 active torsions:
REMARK  status: ('A' for Active; 'I' for Inactive)
REMARK    1  A    between atoms: C_1  and  N_2
REMARK    2  A    between atoms: N_2  and  C_3
REMARK    3  A    between atoms: N_2  and  C_4
REMARK    4  A    between atoms: C_4  and  C_5
REMARK    5  A    between atoms: C_7  and  C_8
REMARK    6  A    between atoms: N_10  and  C_11
REMARK    7  A    between atoms: C_15  and  C_16
REMARK    8  A    between atoms: C_16  and  C_17
REMARK    9  A    between atoms: C_17  and  C_18
REMARK   10  A    between atoms: N_22  and  C_23
REMARK   11  A    between atoms: C_29  and  C_30
REMARK                            x       y       z     vdW  Elec       q    Type
REMARK                         _______ _______ _______ _____ _____    ______ ____
ROOT
ATOM      1  C   UNL     1       1.630   8.589  19.187  0.00  0.00    +0.000 C 
ATOM      2  O   UNL     1       1.805   8.297  20.363  0.00  0.00    +0.000 OA
ATOM      3  N   UNL     1       2.114   7.904  18.086  0.00  0.00    +0.000 N 
ATOM      4  H   UNL     1       1.984   8.366  17.188  0.00  0.00    +0.000 HD
ENDROOT
BRANCH   1   7
ATOM      5  C   UNL     1      -1.134  10.898  18.334  0.00  0.00    +0.000 A 
ATOM      6  C   UNL     1      -0.472   9.720  18.568  0.00  0.00    +0.000 A 
ATOM      7  C   UNL     1       0.863   9.835  18.867  0.00  0.00    +0.000 A 
ATOM      8  N   UNL     1       1.538  11.008  18.921  0.00  0.00    +0.000 NA
ATOM      9  C   UNL     1       0.820  12.114  18.655  0.00  0.00    +0.000 A 
ATOM     10  N   UNL     1      -0.501  12.093  18.362  0.00  0.00    +0.000 NA
BRANCH   9  11
ATOM     11  C   UNL     1       1.517  13.452  18.678  0.00  0.00    +0.000 C 
ATOM     12  C   UNL     1       1.109  14.507  19.683  0.00  0.00    +0.000 C 
ATOM     13  C   UNL     1       2.430  13.814  19.828  0.00  0.00    +0.000 C 
ENDBRANCH   9  11
BRANCH   5  14
ATOM     14  C   UNL     1      -2.640  10.890  18.131  0.00  0.00    +0.000 C 
BRANCH  14  16
ATOM     15  C   UNL     1      -2.769  10.202  15.803  0.00  0.00    +0.000 C 
ATOM     16  N   UNL     1      -3.042  11.280  16.761  0.00  0.00    +0.000 NA
ATOM     17  C   UNL     1      -4.465  11.622  16.729  0.00  0.00    +0.000 C 
ENDBRANCH  14  16
ENDBRANCH   5  14
ENDBRANCH   1   7
BRANCH   3  18
ATOM     18  C   UNL     1       2.882   6.721  18.127  0.00  0.00    +0.000 A 
ATOM     19  C   UNL     1       2.329   5.473  18.413  0.00  0.00    +0.000 A 
ATOM     20  C   UNL     1       3.134   4.341  18.479  0.00  0.00    +0.000 A 
ATOM     21  C   UNL     1       4.505   4.452  18.282  0.00  0.00    +0.000 A 
ATOM     22  C   UNL     1       5.119   5.692  18.007  0.00  0.00    +0.000 A 
ATOM     23  C   UNL     1       4.261   6.811  17.887  0.00  0.00    +0.000 A 
BRANCH  22  24
ATOM     24  C   UNL     1       6.715   5.814  17.914  0.00  0.00    +0.000 C 
ATOM     25  C   UNL     1       7.351   7.191  17.570  0.00  0.00    +0.000 C 
ATOM     26  O   UNL     1       8.306   7.048  18.660  0.00  0.00    +0.000 OA
ATOM     27  C   UNL     1       7.435   6.067  19.273  0.00  0.00    +0.000 C 
BRANCH  24  28
ATOM     28  C   UNL     1       7.344   4.634  17.150  0.00  0.00    +0.000 C 
BRANCH  28  29
ATOM     29  C   UNL     1       7.119   4.701  15.677  0.00  0.00    +0.000 A 
ATOM     30  N   UNL     1       7.761   5.485  14.831  0.00  0.00    +0.000 NA
ATOM     31  N   UNL     1       7.289   5.236  13.567  0.00  0.00    +0.000 NA
ATOM     32  C   UNL     1       6.370   4.305  13.662  0.00  0.00    +0.000 A 
ATOM     33  N   UNL     1       6.223   3.945  14.967  0.00  0.00    +0.000 N 
ATOM     34  C   UNL     1       5.307   2.951  15.457  0.00  0.00    +0.000 C 
ENDBRANCH  28  29
ENDBRANCH  24  28
ENDBRANCH  22  24
ENDBRANCH   3  18
TORSDOF 8
ENDMDL
MODEL 8
REMARK VINA RESULT:      -7.6      2.347      3.393
REMARK  Name = 
REMARK  11 active torsions:
REMARK  status: ('A' for Active; 'I' for Inactive)
REMARK    1  A    between atoms: C_1  and  N_2
REMARK    2  A    between atoms: N_2  and  C_3
REMARK    3  A    between atoms: N_2  and  C_4
REMARK    4  A    between atoms: C_4  and  C_5
REMARK    5  A    between atoms: C_7  and  C_8
REMARK    6  A    between atoms: N_10  and  C_11
REMARK    7  A    between atoms: C_15  and  C_16
REMARK    8  A    between atoms: C_16  and  C_17
REMARK    9  A    between atoms: C_17  and  C_18
REMARK   10  A    between atoms: N_22  and  C_23
REMARK   11  A    between atoms: C_29  and  C_30
REMARK                            x       y       z     vdW  Elec       q    Type
REMARK                         _______ _______ _______ _____ _____    ______ ____
ROOT
ATOM      1  C   UNL     1       1.678   8.977  18.214  0.00  0.00    +0.000 C 
ATOM      2  O   UNL     1       2.121   9.836  17.460  0.00  0.00    +0.000 OA
ATOM      3  N   UNL     1       0.506   9.049  18.947  0.00  0.00    +0.000 N 
ATOM      4  H   UNL     1       0.364   8.301  19.623  0.00  0.00    +0.000 HD
ENDROOT
BRANCH   1   7
ATOM      5  C   UNL     1       4.286   6.372  17.887  0.00  0.00    +0.000 A 
ATOM      6  C   UNL     1       3.558   7.501  17.611  0.00  0.00    +0.000 A 
ATOM      7  C   UNL     1       2.481   7.732  18.429  0.00  0.00    +0.000 A 
ATOM      8  N   UNL     1       2.103   6.921  19.445  0.00  0.00    +0.000 NA
ATOM      9  C   UNL     1       2.856   5.822  19.634  0.00  0.00    +0.000 A 
ATOM     10  N   UNL     1       3.940   5.524  18.882  0.00  0.00    +0.000 NA
BRANCH   9  11
ATOM     11  C   UNL     1       2.477   4.865  20.738  0.00  0.00    +0.000 C 
ATOM     12  C   UNL     1       1.246   3.996  20.604  0.00  0.00    +0.000 C 
ATOM     13  C   UNL     1       2.607   3.373  20.529  0.00  0.00    +0.000 C 
ENDBRANCH   9  11
BRANCH   5  14
ATOM     14  C   UNL     1       5.575   6.101  17.130  0.00  0.00    +0.000 C 
BRANCH  14  16
ATOM     15  C   UNL     1       7.451   4.625  17.593  0.00  0.00    +0.000 C 
ATOM     16  N   UNL     1       6.723   5.825  18.022  0.00  0.00    +0.000 NA
ATOM     17  C   UNL     1       7.631   6.973  18.047  0.00  0.00    +0.000 C 
ENDBRANCH  14  16
ENDBRANCH   5  14
ENDBRANCH   1   7
BRANCH   3  18
ATOM     18  C   UNL     1      -0.406  10.126  18.936  0.00  0.00    +0.000 A 
ATOM     19  C   UNL     1      -1.247  10.390  17.855  0.00  0.00    +0.000 A 
ATOM     20  C   UNL     1      -2.103  11.486  17.876  0.00  0.00    +0.000 A 
ATOM     21  C   UNL     1      -2.106  12.342  18.970  0.00  0.00    +0.000 A 
ATOM     22  C   UNL     1      -1.264  12.134  20.081  0.00  0.00    +0.000 A 
ATOM     23  C   UNL     1      -0.452  10.975  20.052  0.00  0.00    +0.000 A 
BRANCH  22  24
ATOM     24  C   UNL     1      -1.193  13.206  21.270  0.00  0.00    +0.000 C 
ATOM     25  C   UNL     1      -2.472  13.501  22.104  0.00  0.00    +0.000 C 
ATOM     26  O   UNL     1      -1.720  13.384  23.344  0.00  0.00    +0.000 OA
ATOM     27  C   UNL     1      -0.700  12.640  22.637  0.00  0.00    +0.000 C 
BRANCH  24  28
ATOM     28  C   UNL     1      -0.413  14.471  20.867  0.00  0.00    +0.000 C 
BRANCH  28  29
ATOM     29  C   UNL     1       1.050  14.370  21.136  0.00  0.00    +0.000 A 
ATOM     30  N   UNL     1       1.651  14.674  22.271  0.00  0.00    +0.000 NA
ATOM     31  N   UNL     1       2.993  14.422  22.132  0.00  0.00    +0.000 NA
ATOM     32  C   UNL     1       3.188  13.967  20.917  0.00  0.00    +0.000 A 
ATOM     33  N   UNL     1       2.000  13.925  20.253  0.00  0.00    +0.000 N 
ATOM     34  C   UNL     1       1.820  13.479  18.898  0.00  0.00    +0.000 C 
ENDBRANCH  28  29
ENDBRANCH  24  28
ENDBRANCH  22  24
ENDBRANCH   3  18
TORSDOF 8
ENDMDL
MODEL 9
REMARK VINA RESULT:      -7.6      1.287      3.094
REMARK  Name = 
REMARK  11 active torsions:
REMARK  status: ('A' for Active; 'I' for Inactive)
REMARK    1  A    between atoms: C_1  and  N_2
REMARK    2  A    between atoms: N_2  and  C_3
REMARK    3  A    between atoms: N_2  and  C_4
REMARK    4  A    between atoms: C_4  and  C_5
REMARK    5  A    between atoms: C_7  and  C_8
REMARK    6  A    between atoms: N_10  and  C_11
REMARK    7  A    between atoms: C_15  and  C_16
REMARK    8  A    between atoms: C_16  and  C_17
REMARK    9  A    between atoms: C_17  and  C_18
REMARK   10  A    between atoms: N_22  and  C_23
REMARK   11  A    between atoms: C_29  and  C_30
REMARK                            x       y       z     vdW  Elec       q    Type
REMARK                         _______ _______ _______ _____ _____    ______ ____
ROOT
ATOM      1  C   UNL     1       1.956   8.816  18.169  0.00  0.00    +0.000 C 
ATOM      2  O   UNL     1       2.119   9.556  17.207  0.00  0.00    +0.000 OA
ATOM      3  N   UNL     1       1.011   8.961  19.171  0.00  0.00    +0.000 N 
ATOM      4  H   UNL     1       1.109   8.328  19.962  0.00  0.00    +0.000 HD
ENDROOT
BRANCH   1   7
ATOM      5  C   UNL     1       3.395   5.599  19.301  0.00  0.00    +0.000 A 
ATOM      6  C   UNL     1       2.531   6.661  19.222  0.00  0.00    +0.000 A 
ATOM      7  C   UNL     1       2.885   7.654  18.343  0.00  0.00    +0.000 A 
ATOM      8  N   UNL     1       4.012   7.647  17.592  0.00  0.00    +0.000 NA
ATOM      9  C   UNL     1       4.817   6.579  17.747  0.00  0.00    +0.000 A 
ATOM     10  N   UNL     1       4.539   5.552  18.583  0.00  0.00    +0.000 NA
BRANCH   9  11
ATOM     11  C   UNL     1       6.100   6.519  16.955  0.00  0.00    +0.000 C 
ATOM     12  C   UNL     1       7.356   7.174  17.486  0.00  0.00    +0.000 C 
ATOM     13  C   UNL     1       7.257   5.679  17.446  0.00  0.00    +0.000 C 
ENDBRANCH   9  11
BRANCH   5  14
ATOM     14  C   UNL     1       3.025   4.387  20.139  0.00  0.00    +0.000 C 
BRANCH  14  16
ATOM     15  C   UNL     1       1.650   3.080  18.617  0.00  0.00    +0.000 C 
ATOM     16  N   UNL     1       1.666   3.876  19.850  0.00  0.00    +0.000 NA
ATOM     17  C   UNL     1       1.182   3.065  20.968  0.00  0.00    +0.000 C 
ENDBRANCH  14  16
ENDBRANCH   5  14
ENDBRANCH   1   7
BRANCH   3  18
ATOM     18  C   UNL     1       0.044   9.985  19.246  0.00  0.00    +0.000 A 
ATOM     19  C   UNL     1      -0.938  10.167  18.272  0.00  0.00    +0.000 A 
ATOM     20  C   UNL     1      -1.847  11.214  18.371  0.00  0.00    +0.000 A 
ATOM     21  C   UNL     1      -1.766  12.104  19.434  0.00  0.00    +0.000 A 
ATOM     22  C   UNL     1      -0.783  11.979  20.437  0.00  0.00    +0.000 A 
ATOM     23  C   UNL     1       0.086  10.866  20.336  0.00  0.00    +0.000 A 
BRANCH  22  24
ATOM     24  C   UNL     1      -0.629  13.092  21.580  0.00  0.00    +0.000 C 
ATOM     25  C   UNL     1       0.668  13.948  21.637  0.00  0.00    +0.000 C 
ATOM     26  O   UNL     1      -0.114  15.167  21.783  0.00  0.00    +0.000 OA
ATOM     27  C   UNL     1      -1.264  14.475  21.240  0.00  0.00    +0.000 C 
BRANCH  24  28
ATOM     28  C   UNL     1      -1.092  12.579  22.956  0.00  0.00    +0.000 C 
BRANCH  28  29
ATOM     29  C   UNL     1      -2.531  12.858  23.233  0.00  0.00    +0.000 A 
ATOM     30  N   UNL     1      -3.556  12.167  22.772  0.00  0.00    +0.000 NA
ATOM     31  N   UNL     1      -4.710  12.720  23.269  0.00  0.00    +0.000 NA
ATOM     32  C   UNL     1      -4.370  13.736  24.026  0.00  0.00    +0.000 A 
ATOM     33  N   UNL     1      -3.014  13.867  24.027  0.00  0.00    +0.000 N 
ATOM     34  C   UNL     1      -2.276  14.870  24.745  0.00  0.00    +0.000 C 
ENDBRANCH  28  29
ENDBRANCH  24  28
ENDBRANCH  22  24
ENDBRANCH   3  18
TORSDOF 8
ENDMDL
