MODEL 1
REMARK VINA RESULT:      -8.8      0.000      0.000
REMARK  Name = 
REMARK  9 active torsions:
REMARK  status: ('A' for Active; 'I' for Inactive)
REMARK    1  A    between atoms: C_1  and  C_2
REMARK    2  A    between atoms: C_6  and  C_7
REMARK    3  A    between atoms: C_7  and  C_8
REMARK    4  A    between atoms: C_7  and  S_9
REMARK    5  A    between atoms: S_9  and  C_10
REMARK    6  A    between atoms: N_14  and  C_15
REMARK    7  A    between atoms: C_17  and  N_18
REMARK    8  A    between atoms: C_19  and  C_21
REMARK    9  A    between atoms: C_25  and  C_26
REMARK                            x       y       z     vdW  Elec       q    Type
REMARK                         _______ _______ _______ _____ _____    ______ ____
ROOT
ATOM      1  C   UNL     1       2.076   2.083  21.609  0.00  0.00    +0.000 C 
ATOM      2  C   UNL     1       2.745   2.986  20.651  0.00  0.00    +0.000 A 
ATOM      3  N   UNL     1       3.671   2.660  19.777  0.00  0.00    +0.000 NA
ATOM      4  C   UNL     1       3.946   3.837  19.142  0.00  0.00    +0.000 A 
ATOM      5  C   UNL     1       4.851   4.081  18.103  0.00  0.00    +0.000 A 
ATOM      6  C   UNL     1       4.958   5.380  17.595  0.00  0.00    +0.000 A 
ATOM      7  C   UNL     1       4.159   6.394  18.156  0.00  0.00    +0.000 A 
ATOM      8  C   UNL     1       3.229   6.202  19.203  0.00  0.00    +0.000 A 
ATOM      9  C   UNL     1       3.170   4.871  19.657  0.00  0.00    +0.000 A 
ATOM     10  O   UNL     1       2.383   4.317  20.644  0.00  0.00    +0.000 OA
ENDROOT
BRANCH   8  11
ATOM     11  N   UNL     1       2.426   7.254  19.722  0.00  0.00    +0.000 N 
ATOM     12  C   UNL     1       1.962   8.331  18.974  0.00  0.00    +0.000 C 
ATOM     13  O   UNL     1       2.201   8.530  17.781  0.00  0.00    +0.000 OA
ATOM     14  H   UNL     1       2.165   7.217  20.708  0.00  0.00    +0.000 HD
BRANCH  12  15
ATOM     15  C   UNL     1       1.097   9.351  19.636  0.00  0.00    +0.000 A 
ATOM     16  C   UNL     1       0.797  10.507  18.907  0.00  0.00    +0.000 A 
ATOM     17  C   UNL     1       0.004  11.484  19.479  0.00  0.00    +0.000 A 
ATOM     18  C   UNL     1      -0.454  11.293  20.773  0.00  0.00    +0.000 A 
ATOM     19  C   UNL     1      -0.100  10.127  21.467  0.00  0.00    +0.000 A 
ATOM     20  N   UNL     1       0.665   9.132  20.904  0.00  0.00    +0.000 NA
BRANCH  19  21
ATOM     21  C   UNL     1      -0.546   9.991  22.922  0.00  0.00    +0.000 C 
ATOM     22  F   UNL     1      -1.435   8.974  23.120  0.00  0.00    +0.000 F 
ATOM     23  F   UNL     1       0.489   9.739  23.774  0.00  0.00    +0.000 F 
ATOM     24  F   UNL     1      -1.165  11.110  23.394  0.00  0.00    +0.000 F 
ENDBRANCH  19  21
ENDBRANCH  12  15
ENDBRANCH   8  11
BRANCH   6  25
ATOM     25  C   UNL     1       5.876   5.721  16.424  0.00  0.00    +0.000 C 
ATOM     26  C   UNL     1       5.125   6.614  15.436  0.00  0.00    +0.000 C 
BRANCH  25  27
ATOM     27  S   UNL     1       6.514   4.182  15.667  0.00  0.00    +0.000 S 
BRANCH  27  28
ATOM     28  C   UNL     1       7.184   4.729  14.176  0.00  0.00    +0.000 A 
ATOM     29  N   UNL     1       8.173   5.575  13.990  0.00  0.00    +0.000 NA
ATOM     30  N   UNL     1       8.308   5.770  12.630  0.00  0.00    +0.000 NA
ATOM     31  C   UNL     1       7.411   5.021  12.031  0.00  0.00    +0.000 A 
ATOM     32  N   UNL     1       6.697   4.332  12.964  0.00  0.00    +0.000 N 
ATOM     33  C   UNL     1       5.652   3.378  12.699  0.00  0.00    +0.000 C 
ENDBRANCH  27  28
ENDBRANCH  25  27
ENDBRANCH   6  25
TORSDOF 6
ENDMDL
MODEL 2
REMARK VINA RESULT:      -8.8      1.981      2.352
REMARK  Name = 
REMARK  9 active torsions:
REMARK  status: ('A' for Active; 'I' for Inactive)
REMARK    1  A    between atoms: C_1  and  C_2
REMARK    2  A    between atoms: C_6  and  C_7
REMARK    3  A    between atoms: C_7  and  C_8
REMARK    4  A    between atoms: C_7  and  S_9
REMARK    5  A    between atoms: S_9  and  C_10
REMARK    6  A    between atoms: N_14  and  C_15
REMARK    7  A    between atoms: C_17  and  N_18
REMARK    8  A    between atoms: C_19  and  C_21
REMARK    9  A    between atoms: C_25  and  C_26
REMARK                            x       y       z     vdW  Elec       q    Type
REMARK                         _______ _______ _______ _____ _____    ______ ____
ROOT
ATOM      1  C   UNL     1       1.364   2.675  21.807  0.00  0.00    +0.000 C 
ATOM      2  C   UNL     1       2.080   3.481  20.798  0.00  0.00    +0.000 A 
ATOM      3  N   UNL     1       3.091   3.092  20.052  0.00  0.00    +0.000 NA
ATOM      4  C   UNL     1       3.378   4.192  19.296  0.00  0.00    +0.000 A 
ATOM      5  C   UNL     1       4.360   4.345  18.312  0.00  0.00    +0.000 A 
ATOM      6  C   UNL     1       4.463   5.574  17.651  0.00  0.00    +0.000 A 
ATOM      7  C   UNL     1       3.583   6.611  18.009  0.00  0.00    +0.000 A 
ATOM      8  C   UNL     1       2.573   6.509  18.992  0.00  0.00    +0.000 A 
ATOM      9  C   UNL     1       2.523   5.245  19.607  0.00  0.00    +0.000 A 
ATOM     10  O   UNL     1       1.673   4.783  20.590  0.00  0.00    +0.000 OA
ENDROOT
BRANCH   8  11
ATOM     11  N   UNL     1       1.690   7.579  19.303  0.00  0.00    +0.000 N 
ATOM     12  C   UNL     1       1.582   8.170  20.557  0.00  0.00    +0.000 C 
ATOM     13  O   UNL     1       2.212   7.835  21.563  0.00  0.00    +0.000 OA
ATOM     14  H   UNL     1       1.098   7.945  18.556  0.00  0.00    +0.000 HD
BRANCH  12  15
ATOM     15  C   UNL     1       0.637   9.310  20.740  0.00  0.00    +0.000 A 
ATOM     16  C   UNL     1       0.351   9.702  22.053  0.00  0.00    +0.000 A 
ATOM     17  C   UNL     1      -0.522  10.750  22.274  0.00  0.00    +0.000 A 
ATOM     18  C   UNL     1      -1.107  11.369  21.180  0.00  0.00    +0.000 A 
ATOM     19  C   UNL     1      -0.804  10.918  19.887  0.00  0.00    +0.000 A 
ATOM     20  N   UNL     1       0.084   9.895  19.647  0.00  0.00    +0.000 NA
BRANCH  19  21
ATOM     21  C   UNL     1      -1.535  11.562  18.710  0.00  0.00    +0.000 C 
ATOM     22  F   UNL     1      -2.639  12.271  19.085  0.00  0.00    +0.000 F 
ATOM     23  F   UNL     1      -0.756  12.441  18.017  0.00  0.00    +0.000 F 
ATOM     24  F   UNL     1      -1.983  10.650  17.801  0.00  0.00    +0.000 F 
ENDBRANCH  19  21
ENDBRANCH  12  15
ENDBRANCH   8  11
BRANCH   6  25
ATOM     25  C   UNL     1       5.468   5.808  16.525  0.00  0.00    +0.000 C 
ATOM     26  C   UNL     1       4.944   6.909  15.602  0.00  0.00    +0.000 C 
BRANCH  25  27
ATOM     27  S   UNL     1       5.803   4.234  15.654  0.00  0.00    +0.000 S 
BRANCH  27  28
ATOM     28  C   UNL     1       6.849   4.712  14.371  0.00  0.00    +0.000 A 
ATOM     29  N   UNL     1       7.891   5.512  14.425  0.00  0.00    +0.000 NA
ATOM     30  N   UNL     1       8.370   5.664  13.140  0.00  0.00    +0.000 NA
ATOM     31  C   UNL     1       7.619   4.936  12.347  0.00  0.00    +0.000 A 
ATOM     32  N   UNL     1       6.663   4.302  13.082  0.00  0.00    +0.000 N 
ATOM     33  C   UNL     1       5.675   3.383  12.579  0.00  0.00    +0.000 C 
ENDBRANCH  27  28
ENDBRANCH  25  27
ENDBRANCH   6  25
TORSDOF 6
ENDMDL
MODEL 3
REMARK VINA RESULT:      -8.8      1.096      1.392
REMARK  Name = 
REMARK  9 active torsions:
REMARK  status: ('A' for Active; 'I' for Inactive)
REMARK    1  A    between atoms: C_1  and  C_2
REMARK    2  A    between atoms: C_6  and  C_7
REMARK    3  A    between atoms: C_7  and  C_8
REMARK    4  A    between atoms: C_7  and  S_9
REMARK    5  A    between atoms: S_9  and  C_10
REMARK    6  A    between atoms: N_14  and  C_15
REMARK    7  A    between atoms: C_17  and  N_18
REMARK    8  A    between atoms: C_19  and  C_21
REMARK    9  A    between atoms: C_25  and  C_26
REMARK                            x       y       z     vdW  Elec       q    Type
REMARK                         _______ _______ _______ _____ _____    ______ ____
ROOT
ATOM      1  C   UNL     1       1.246   2.984  21.553  0.00  0.00    +0.000 C 
ATOM      2  C   UNL     1       2.025   3.750  20.559  0.00  0.00    +0.000 A 
ATOM      3  N   UNL     1       3.089   3.338  19.906  0.00  0.00    +0.000 NA
ATOM      4  C   UNL     1       3.418   4.404  19.119  0.00  0.00    +0.000 A 
ATOM      5  C   UNL     1       4.466   4.523  18.200  0.00  0.00    +0.000 A 
ATOM      6  C   UNL     1       4.604   5.720  17.489  0.00  0.00    +0.000 A 
ATOM      7  C   UNL     1       3.691   6.762  17.733  0.00  0.00    +0.000 A 
ATOM      8  C   UNL     1       2.615   6.694  18.647  0.00  0.00    +0.000 A 
ATOM      9  C   UNL     1       2.533   5.460  19.318  0.00  0.00    +0.000 A 
ATOM     10  O   UNL     1       1.621   5.035  20.260  0.00  0.00    +0.000 OA
ENDROOT
BRANCH   8  11
ATOM     11  N   UNL     1       1.702   7.767  18.843  0.00  0.00    +0.000 N 
ATOM     12  C   UNL     1       1.474   8.392  20.064  0.00  0.00    +0.000 C 
ATOM     13  O   UNL     1       2.007   8.088  21.134  0.00  0.00    +0.000 OA
ATOM     14  H   UNL     1       1.182   8.108  18.034  0.00  0.00    +0.000 HD
BRANCH  12  15
ATOM     15  C   UNL     1       0.512   9.530  20.125  0.00  0.00    +0.000 A 
ATOM     16  C   UNL     1       0.224  10.191  18.926  0.00  0.00    +0.000 A 
ATOM     17  C   UNL     1      -0.658  11.255  18.931  0.00  0.00    +0.000 A 
ATOM     18  C   UNL     1      -1.215  11.648  20.137  0.00  0.00    +0.000 A 
ATOM     19  C   UNL     1      -0.871  10.967  21.313  0.00  0.00    +0.000 A 
ATOM     20  N   UNL     1      -0.017   9.888  21.323  0.00  0.00    +0.000 NA
BRANCH  19  21
ATOM     21  C   UNL     1      -1.432  11.484  22.637  0.00  0.00    +0.000 C 
ATOM     22  F   UNL     1      -0.721  12.530  23.151  0.00  0.00    +0.000 F 
ATOM     23  F   UNL     1      -2.715  11.934  22.530  0.00  0.00    +0.000 F 
ATOM     24  F   UNL     1      -1.440  10.535  23.616  0.00  0.00    +0.000 F 
ENDBRANCH  19  21
ENDBRANCH  12  15
ENDBRANCH   8  11
BRANCH   6  25
ATOM     25  C   UNL     1       5.684   5.913  16.426  0.00  0.00    +0.000 C 
ATOM     26  C   UNL     1       5.191   6.916  15.382  0.00  0.00    +0.000 C 
BRANCH  25  27
ATOM     27  S   UNL     1       6.146   4.294  15.709  0.00  0.00    +0.000 S 
BRANCH  27  28
ATOM     28  C   UNL     1       7.011   4.730  14.284  0.00  0.00    +0.000 A 
ATOM     29  N   UNL     1       8.037   5.545  14.172  0.00  0.00    +0.000 NA
ATOM     30  N   UNL     1       8.346   5.648  12.831  0.00  0.00    +0.000 NA
ATOM     31  C   UNL     1       7.513   4.876  12.171  0.00  0.00    +0.000 A 
ATOM     32  N   UNL     1       6.671   4.262  13.048  0.00  0.00    +0.000 N 
ATOM     33  C   UNL     1       5.643   3.310  12.714  0.00  0.00    +0.000 C 
ENDBRANCH  27  28
ENDBRANCH  25  27
ENDBRANCH   6  25
TORSDOF 6
ENDMDL
MODEL 4
REMARK VINA RESULT:      -8.7      1.727      2.163
REMARK  Name = 
REMARK  9 active torsions:
REMARK  status: ('A' for Active; 'I' for Inactive)
REMARK    1  A    between atoms: C_1  and  C_2
REMARK    2  A    between atoms: C_6  and  C_7
REMARK    3  A    between atoms: C_7  and  C_8
REMARK    4  A    between atoms: C_7  and  S_9
REMARK    5  A    between atoms: S_9  and  C_10
REMARK    6  A    between atoms: N_14  and  C_15
REMARK    7  A    between atoms: C_17  and  N_18
REMARK    8  A    between atoms: C_19  and  C_21
REMARK    9  A    between atoms: C_25  and  C_26
REMARK                            x       y       z     vdW  Elec       q    Type
REMARK                         _______ _______ _______ _____ _____    ______ ____
ROOT
ATOM      1  C   UNL     1       2.193   2.148  21.991  0.00  0.00    +0.000 C 
ATOM      2  C   UNL     1       2.770   3.034  20.961  0.00  0.00    +0.000 A 
ATOM      3  N   UNL     1       3.646   2.702  20.037  0.00  0.00    +0.000 NA
ATOM      4  C   UNL     1       3.843   3.863  19.347  0.00  0.00    +0.000 A 
ATOM      5  C   UNL     1       4.670   4.094  18.241  0.00  0.00    +0.000 A 
ATOM      6  C   UNL     1       4.704   5.377  17.684  0.00  0.00    +0.000 A 
ATOM      7  C   UNL     1       3.915   6.388  18.263  0.00  0.00    +0.000 A 
ATOM      8  C   UNL     1       3.063   6.209  19.376  0.00  0.00    +0.000 A 
ATOM      9  C   UNL     1       3.073   4.894  19.877  0.00  0.00    +0.000 A 
ATOM     10  O   UNL     1       2.370   4.354  20.934  0.00  0.00    +0.000 OA
ENDROOT
BRANCH   8  11
ATOM     11  N   UNL     1       2.265   7.256  19.913  0.00  0.00    +0.000 N 
ATOM     12  C   UNL     1       1.869   8.385  19.203  0.00  0.00    +0.000 C 
ATOM     13  O   UNL     1       2.173   8.639  18.036  0.00  0.00    +0.000 OA
ATOM     14  H   UNL     1       1.955   7.175  20.882  0.00  0.00    +0.000 HD
BRANCH  12  15
ATOM     15  C   UNL     1       1.003   9.395  19.877  0.00  0.00    +0.000 A 
ATOM     16  C   UNL     1       0.614   9.130  21.195  0.00  0.00    +0.000 A 
ATOM     17  C   UNL     1      -0.193  10.033  21.860  0.00  0.00    +0.000 A 
ATOM     18  C   UNL     1      -0.611  11.170  21.188  0.00  0.00    +0.000 A 
ATOM     19  C   UNL     1      -0.213  11.373  19.859  0.00  0.00    +0.000 A 
ATOM     20  N   UNL     1       0.613  10.499  19.190  0.00  0.00    +0.000 NA
BRANCH  19  21
ATOM     21  C   UNL     1      -0.765  12.590  19.118  0.00  0.00    +0.000 C 
ATOM     22  F   UNL     1      -0.832  13.709  19.898  0.00  0.00    +0.000 F 
ATOM     23  F   UNL     1      -0.010  12.944  18.039  0.00  0.00    +0.000 F 
ATOM     24  F   UNL     1      -2.032  12.398  18.652  0.00  0.00    +0.000 F 
ENDBRANCH  19  21
ENDBRANCH  12  15
ENDBRANCH   8  11
BRANCH   6  25
ATOM     25  C   UNL     1       5.532   5.701  16.443  0.00  0.00    +0.000 C 
ATOM     26  C   UNL     1       4.875   6.855  15.685  0.00  0.00    +0.000 C 
BRANCH  25  27
ATOM     27  S   UNL     1       5.742   4.195  15.426  0.00  0.00    +0.000 S 
BRANCH  27  28
ATOM     28  C   UNL     1       6.853   4.697  14.208  0.00  0.00    +0.000 A 
ATOM     29  N   UNL     1       7.854   5.541  14.318  0.00  0.00    +0.000 NA
ATOM     30  N   UNL     1       8.414   5.694  13.066  0.00  0.00    +0.000 NA
ATOM     31  C   UNL     1       7.750   4.922  12.237  0.00  0.00    +0.000 A 
ATOM     32  N   UNL     1       6.773   4.260  12.917  0.00  0.00    +0.000 N 
ATOM     33  C   UNL     1       5.860   3.292  12.365  0.00  0.00    +0.000 C 
ENDBRANCH  27  28
ENDBRANCH  25  27
ENDBRANCH   6  25
TORSDOF 6
ENDMDL
MODEL 5
REMARK VINA RESULT:      -8.6      5.211     11.017
REMARK  Name = 
REMARK  9 active torsions:
REMARK  status: ('A' for Active; 'I' for Inactive)
REMARK    1  A    between atoms: C_1  and  C_2
REMARK    2  A    between atoms: C_6  and  C_7
REMARK    3  A    between atoms: C_7  and  C_8
REMARK    4  A    between atoms: C_7  and  S_9
REMARK    5  A    between atoms: S_9  and  C_10
REMARK    6  A    between atoms: N_14  and  C_15
REMARK    7  A    between atoms: C_17  and  N_18
REMARK    8  A    between atoms: C_19  and  C_21
REMARK    9  A    between atoms: C_25  and  C_26
REMARK                            x       y       z     vdW  Elec       q    Type
REMARK                         _______ _______ _______ _____ _____    ______ ____
ROOT
ATOM      1  C   UNL     1      -2.976   9.979  15.227  0.00  0.00    +0.000 C 
ATOM      2  C   UNL     1      -2.442  10.453  16.519  0.00  0.00    +0.000 A 
ATOM      3  N   UNL     1      -2.847  11.502  17.201  0.00  0.00    +0.000 NA
ATOM      4  C   UNL     1      -2.046  11.498  18.307  0.00  0.00    +0.000 A 
ATOM      5  C   UNL     1      -2.044  12.385  19.389  0.00  0.00    +0.000 A 
ATOM      6  C   UNL     1      -1.130  12.175  20.428  0.00  0.00    +0.000 A 
ATOM      7  C   UNL     1      -0.241  11.088  20.339  0.00  0.00    +0.000 A 
ATOM      8  C   UNL     1      -0.203  10.163  19.271  0.00  0.00    +0.000 A 
ATOM      9  C   UNL     1      -1.154  10.431  18.269  0.00  0.00    +0.000 A 
ATOM     10  O   UNL     1      -1.410   9.746  17.100  0.00  0.00    +0.000 OA
ENDROOT
BRANCH   8  11
ATOM     11  N   UNL     1       0.699   9.064  19.236  0.00  0.00    +0.000 N 
ATOM     12  C   UNL     1       1.738   8.928  18.322  0.00  0.00    +0.000 C 
ATOM     13  O   UNL     1       2.000   9.719  17.414  0.00  0.00    +0.000 OA
ATOM     14  H   UNL     1       0.583   8.326  19.932  0.00  0.00    +0.000 HD
BRANCH  12  15
ATOM     15  C   UNL     1       2.634   7.739  18.418  0.00  0.00    +0.000 A 
ATOM     16  C   UNL     1       2.392   6.835  19.458  0.00  0.00    +0.000 A 
ATOM     17  C   UNL     1       3.198   5.721  19.592  0.00  0.00    +0.000 A 
ATOM     18  C   UNL     1       4.241   5.545  18.696  0.00  0.00    +0.000 A 
ATOM     19  C   UNL     1       4.454   6.496  17.688  0.00  0.00    +0.000 A 
ATOM     20  N   UNL     1       3.645   7.597  17.523  0.00  0.00    +0.000 NA
BRANCH  19  21
ATOM     21  C   UNL     1       5.667   6.319  16.775  0.00  0.00    +0.000 C 
ATOM     22  F   UNL     1       6.568   7.340  16.874  0.00  0.00    +0.000 F 
ATOM     23  F   UNL     1       6.373   5.184  17.044  0.00  0.00    +0.000 F 
ATOM     24  F   UNL     1       5.332   6.258  15.455  0.00  0.00    +0.000 F 
ENDBRANCH  19  21
ENDBRANCH  12  15
ENDBRANCH   8  11
BRANCH   6  25
ATOM     25  C   UNL     1      -1.099  13.059  21.672  0.00  0.00    +0.000 C 
ATOM     26  C   UNL     1      -0.949  12.179  22.913  0.00  0.00    +0.000 C 
BRANCH  25  27
ATOM     27  S   UNL     1      -2.588  14.122  21.716  0.00  0.00    +0.000 S 
BRANCH  27  28
ATOM     28  C   UNL     1      -3.566  13.374  22.921  0.00  0.00    +0.000 A 
ATOM     29  N   UNL     1      -4.397  12.365  22.784  0.00  0.00    +0.000 NA
ATOM     30  N   UNL     1      -5.017  12.163  24.001  0.00  0.00    +0.000 NA
ATOM     31  C   UNL     1      -4.528  13.041  24.846  0.00  0.00    +0.000 A 
ATOM     32  N   UNL     1      -3.596  13.808  24.215  0.00  0.00    +0.000 N 
ATOM     33  C   UNL     1      -2.809  14.855  24.816  0.00  0.00    +0.000 C 
ENDBRANCH  27  28
ENDBRANCH  25  27
ENDBRANCH   6  25
TORSDOF 6
ENDMDL
MODEL 6
REMARK VINA RESULT:      -8.5      5.078      9.665
REMARK  Name = 
REMARK  9 active torsions:
REMARK  status: ('A' for Active; 'I' for Inactive)
REMARK    1  A    between atoms: C_1  and  C_2
REMARK    2  A    between atoms: C_6  and  C_7
REMARK    3  A    between atoms: C_7  and  C_8
REMARK    4  A    between atoms: C_7  and  S_9
REMARK    5  A    between atoms: S_9  and  C_10
REMARK    6  A    between atoms: N_14  and  C_15
REMARK    7  A    between atoms: C_17  and  N_18
REMARK    8  A    between atoms: C_19  and  C_21
REMARK    9  A    between atoms: C_25  and  C_26
REMARK                            x       y       z     vdW  Elec       q    Type
REMARK                         _______ _______ _______ _____ _____    ______ ____
ROOT
ATOM      1  C   UNL     1      -2.820  10.431  15.644  0.00  0.00    +0.000 C 
ATOM      2  C   UNL     1      -2.237  10.748  16.963  0.00  0.00    +0.000 A 
ATOM      3  N   UNL     1      -2.579  11.739  17.757  0.00  0.00    +0.000 NA
ATOM      4  C   UNL     1      -1.756  11.587  18.836  0.00  0.00    +0.000 A 
ATOM      5  C   UNL     1      -1.690  12.358  20.002  0.00  0.00    +0.000 A 
ATOM      6  C   UNL     1      -0.766  12.004  20.991  0.00  0.00    +0.000 A 
ATOM      7  C   UNL     1       0.069  10.893  20.771  0.00  0.00    +0.000 A 
ATOM      8  C   UNL     1       0.043  10.080  19.615  0.00  0.00    +0.000 A 
ATOM      9  C   UNL     1      -0.915  10.490  18.669  0.00  0.00    +0.000 A 
ATOM     10  O   UNL     1      -1.228   9.939  17.444  0.00  0.00    +0.000 OA
ENDROOT
BRANCH   8  11
ATOM     11  N   UNL     1       0.891   8.952  19.447  0.00  0.00    +0.000 N 
ATOM     12  C   UNL     1       1.843   8.826  18.440  0.00  0.00    +0.000 C 
ATOM     13  O   UNL     1       2.059   9.654  17.553  0.00  0.00    +0.000 OA
ATOM     14  H   UNL     1       0.804   8.183  20.113  0.00  0.00    +0.000 HD
BRANCH  12  15
ATOM     15  C   UNL     1       2.693   7.601  18.398  0.00  0.00    +0.000 A 
ATOM     16  C   UNL     1       2.546   6.682  19.444  0.00  0.00    +0.000 A 
ATOM     17  C   UNL     1       3.315   5.534  19.452  0.00  0.00    +0.000 A 
ATOM     18  C   UNL     1       4.228   5.340  18.428  0.00  0.00    +0.000 A 
ATOM     19  C   UNL     1       4.352   6.306  17.420  0.00  0.00    +0.000 A 
ATOM     20  N   UNL     1       3.576   7.441  17.380  0.00  0.00    +0.000 NA
BRANCH  19  21
ATOM     21  C   UNL     1       5.431   6.104  16.357  0.00  0.00    +0.000 C 
ATOM     22  F   UNL     1       5.054   6.537  15.118  0.00  0.00    +0.000 F 
ATOM     23  F   UNL     1       6.587   6.771  16.638  0.00  0.00    +0.000 F 
ATOM     24  F   UNL     1       5.776   4.795  16.193  0.00  0.00    +0.000 F 
ENDBRANCH  19  21
ENDBRANCH  12  15
ENDBRANCH   8  11
BRANCH   6  25
ATOM     25  C   UNL     1      -0.668  12.755  22.316  0.00  0.00    +0.000 C 
ATOM     26  C   UNL     1      -1.994  12.627  23.068  0.00  0.00    +0.000 C 
BRANCH  25  27
ATOM     27  S   UNL     1      -0.175  14.490  22.013  0.00  0.00    +0.000 S 
BRANCH  27  28
ATOM     28  C   UNL     1       1.328  14.330  21.185  0.00  0.00    +0.000 A 
ATOM     29  N   UNL     1       2.488  13.945  21.670  0.00  0.00    +0.000 NA
ATOM     30  N   UNL     1       3.420  14.045  20.658  0.00  0.00    +0.000 NA
ATOM     31  C   UNL     1       2.796  14.468  19.583  0.00  0.00    +0.000 A 
ATOM     32  N   UNL     1       1.474  14.638  19.863  0.00  0.00    +0.000 N 
ATOM     33  C   UNL     1       0.455  15.053  18.933  0.00  0.00    +0.000 C 
ENDBRANCH  27  28
ENDBRANCH  25  27
ENDBRANCH   6  25
TORSDOF 6
ENDMDL
MODEL 7
REMARK VINA RESULT:      -8.4      1.258      1.634
REMARK  Name = 
REMARK  9 active torsions:
REMARK  status: ('A' for Active; 'I' for Inactive)
REMARK    1  A    between atoms: C_1  and  C_2
REMARK    2  A    between atoms: C_6  and  C_7
REMARK    3  A    between atoms: C_7  and  C_8
REMARK    4  A    between atoms: C_7  and  S_9
REMARK    5  A    between atoms: S_9  and  C_10
REMARK    6  A    between atoms: N_14  and  C_15
REMARK    7  A    between atoms: C_17  and  N_18
REMARK    8  A    between atoms: C_19  and  C_21
REMARK    9  A    between atoms: C_25  and  C_26
REMARK                            x       y       z     vdW  Elec       q    Type
REMARK                         _______ _______ _______ _____ _____    ______ ____
ROOT
ATOM      1  C   UNL     1       1.417   3.044  21.673  0.00  0.00    +0.000 C 
ATOM      2  C   UNL     1       2.145   3.966  20.779  0.00  0.00    +0.000 A 
ATOM      3  N   UNL     1       3.188   3.679  20.030  0.00  0.00    +0.000 NA
ATOM      4  C   UNL     1       3.472   4.858  19.404  0.00  0.00    +0.000 A 
ATOM      5  C   UNL     1       4.481   5.135  18.475  0.00  0.00    +0.000 A 
ATOM      6  C   UNL     1       4.575   6.428  17.950  0.00  0.00    +0.000 A 
ATOM      7  C   UNL     1       3.660   7.404  18.386  0.00  0.00    +0.000 A 
ATOM      8  C   UNL     1       2.622   7.178  19.318  0.00  0.00    +0.000 A 
ATOM      9  C   UNL     1       2.583   5.855  19.796  0.00  0.00    +0.000 A 
ATOM     10  O   UNL     1       1.714   5.274  20.696  0.00  0.00    +0.000 OA
ENDROOT
BRANCH   8  11
ATOM     11  N   UNL     1       1.705   8.191  19.711  0.00  0.00    +0.000 N 
ATOM     12  C   UNL     1       1.097   9.084  18.835  0.00  0.00    +0.000 C 
ATOM     13  O   UNL     1       1.288   9.134  17.618  0.00  0.00    +0.000 OA
ATOM     14  H   UNL     1       1.468   8.267  20.701  0.00  0.00    +0.000 HD
BRANCH  12  15
ATOM     15  C   UNL     1       0.126  10.079  19.375  0.00  0.00    +0.000 A 
ATOM     16  C   UNL     1      -0.563  10.871  18.449  0.00  0.00    +0.000 A 
ATOM     17  C   UNL     1      -1.470  11.810  18.901  0.00  0.00    +0.000 A 
ATOM     18  C   UNL     1      -1.653  11.953  20.267  0.00  0.00    +0.000 A 
ATOM     19  C   UNL     1      -0.916  11.151  21.151  0.00  0.00    +0.000 A 
ATOM     20  N   UNL     1      -0.030  10.191  20.719  0.00  0.00    +0.000 NA
BRANCH  19  21
ATOM     21  C   UNL     1      -1.075  11.397  22.651  0.00  0.00    +0.000 C 
ATOM     22  F   UNL     1      -0.578  12.603  23.053  0.00  0.00    +0.000 F 
ATOM     23  F   UNL     1      -2.376  11.386  23.056  0.00  0.00    +0.000 F 
ATOM     24  F   UNL     1      -0.430  10.467  23.412  0.00  0.00    +0.000 F 
ENDBRANCH  19  21
ENDBRANCH  12  15
ENDBRANCH   8  11
BRANCH   6  25
ATOM     25  C   UNL     1       5.608   6.800  16.889  0.00  0.00    +0.000 C 
ATOM     26  C   UNL     1       4.915   6.923  15.532  0.00  0.00    +0.000 C 
BRANCH  25  27
ATOM     27  S   UNL     1       6.973   5.582  16.897  0.00  0.00    +0.000 S 
BRANCH  27  28
ATOM     28  C   UNL     1       6.975   4.988  15.279  0.00  0.00    +0.000 A 
ATOM     29  N   UNL     1       7.659   5.434  14.249  0.00  0.00    +0.000 NA
ATOM     30  N   UNL     1       7.281   4.699  13.144  0.00  0.00    +0.000 NA
ATOM     31  C   UNL     1       6.395   3.814  13.540  0.00  0.00    +0.000 A 
ATOM     32  N   UNL     1       6.190   3.945  14.880  0.00  0.00    +0.000 N 
ATOM     33  C   UNL     1       5.321   3.130  15.690  0.00  0.00    +0.000 C 
ENDBRANCH  27  28
ENDBRANCH  25  27
ENDBRANCH   6  25
TORSDOF 6
ENDMDL
MODEL 8
REMARK VINA RESULT:      -8.2      2.726      3.633
REMARK  Name = 
REMARK  9 active torsions:
REMARK  status: ('A' for Active; 'I' for Inactive)
REMARK    1  A    between atoms: C_1  and  C_2
REMARK    2  A    between atoms: C_6  and  C_7
REMARK    3  A    between atoms: C_7  and  C_8
REMARK    4  A    between atoms: C_7  and  S_9
REMARK    5  A    between atoms: S_9  and  C_10
REMARK    6  A    between atoms: N_14  and  C_15
REMARK    7  A    between atoms: C_17  and  N_18
REMARK    8  A    between atoms: C_19  and  C_21
REMARK    9  A    between atoms: C_25  and  C_26
REMARK                            x       y       z     vdW  Elec       q    Type
REMARK                         _______ _______ _______ _____ _____    ______ ____
ROOT
ATOM      1  C   UNL     1       1.402   2.447  21.815  0.00  0.00    +0.000 C 
ATOM      2  C   UNL     1       2.065   3.179  20.719  0.00  0.00    +0.000 A 
ATOM      3  N   UNL     1       2.812   2.664  19.767  0.00  0.00    +0.000 NA
ATOM      4  C   UNL     1       3.172   3.747  19.016  0.00  0.00    +0.000 A 
ATOM      5  C   UNL     1       3.960   3.788  17.861  0.00  0.00    +0.000 A 
ATOM      6  C   UNL     1       4.189   5.024  17.247  0.00  0.00    +0.000 A 
ATOM      7  C   UNL     1       3.628   6.180  17.821  0.00  0.00    +0.000 A 
ATOM      8  C   UNL     1       2.824   6.194  18.983  0.00  0.00    +0.000 A 
ATOM      9  C   UNL     1       2.630   4.917  19.540  0.00  0.00    +0.000 A 
ATOM     10  O   UNL     1       1.905   4.548  20.654  0.00  0.00    +0.000 OA
ENDROOT
BRANCH   8  11
ATOM     11  N   UNL     1       2.258   7.386  19.514  0.00  0.00    +0.000 N 
ATOM     12  C   UNL     1       1.788   8.444  18.743  0.00  0.00    +0.000 C 
ATOM     13  O   UNL     1       1.820   8.502  17.512  0.00  0.00    +0.000 OA
ATOM     14  H   UNL     1       2.184   7.471  20.528  0.00  0.00    +0.000 HD
BRANCH  12  15
ATOM     15  C   UNL     1       1.185   9.625  19.427  0.00  0.00    +0.000 A 
ATOM     16  C   UNL     1       0.902   9.500  20.792  0.00  0.00    +0.000 A 
ATOM     17  C   UNL     1       0.339  10.565  21.469  0.00  0.00    +0.000 A 
ATOM     18  C   UNL     1       0.051  11.722  20.764  0.00  0.00    +0.000 A 
ATOM     19  C   UNL     1       0.332  11.783  19.391  0.00  0.00    +0.000 A 
ATOM     20  N   UNL     1       0.918  10.743  18.707  0.00  0.00    +0.000 NA
BRANCH  19  21
ATOM     21  C   UNL     1      -0.081  13.040  18.626  0.00  0.00    +0.000 C 
ATOM     22  F   UNL     1      -0.701  13.968  19.412  0.00  0.00    +0.000 F 
ATOM     23  F   UNL     1       0.976  13.690  18.061  0.00  0.00    +0.000 F 
ATOM     24  F   UNL     1      -0.956  12.780  17.613  0.00  0.00    +0.000 F 
ENDBRANCH  19  21
ENDBRANCH  12  15
ENDBRANCH   8  11
BRANCH   6  25
ATOM     25  C   UNL     1       4.987   5.151  15.951  0.00  0.00    +0.000 C 
ATOM     26  C   UNL     1       5.613   3.799  15.609  0.00  0.00    +0.000 C 
BRANCH  25  27
ATOM     27  S   UNL     1       6.217   6.497  16.109  0.00  0.00    +0.000 S 
BRANCH  27  28
ATOM     28  C   UNL     1       7.112   6.046  17.511  0.00  0.00    +0.000 A 
ATOM     29  N   UNL     1       7.220   4.857  18.060  0.00  0.00    +0.000 NA
ATOM     30  N   UNL     1       7.973   4.992  19.209  0.00  0.00    +0.000 NA
ATOM     31  C   UNL     1       8.318   6.255  19.311  0.00  0.00    +0.000 A 
ATOM     32  N   UNL     1       7.817   6.950  18.252  0.00  0.00    +0.000 N 
ATOM     33  C   UNL     1       8.012   8.352  17.987  0.00  0.00    +0.000 C 
ENDBRANCH  27  28
ENDBRANCH  25  27
ENDBRANCH   6  25
TORSDOF 6
ENDMDL
MODEL 9
REMARK VINA RESULT:      -8.2      4.901      9.477
REMARK  Name = 
REMARK  9 active torsions:
REMARK  status: ('A' for Active; 'I' for Inactive)
REMARK    1  A    between atoms: C_1  and  C_2
REMARK    2  A    between atoms: C_6  and  C_7
REMARK    3  A    between atoms: C_7  and  C_8
REMARK    4  A    between atoms: C_7  and  S_9
REMARK    5  A    between atoms: S_9  and  C_10
REMARK    6  A    between atoms: N_14  and  C_15
REMARK    7  A    between atoms: C_17  and  N_18
REMARK    8  A    between atoms: C_19  and  C_21
REMARK    9  A    between atoms: C_25  and  C_26
REMARK                            x       y       z     vdW  Elec       q    Type
REMARK                         _______ _______ _______ _____ _____    ______ ____
ROOT
ATOM      1  C   UNL     1      -3.050   9.920  15.700  0.00  0.00    +0.000 C 
ATOM      2  C   UNL     1      -2.298  10.314  16.908  0.00  0.00    +0.000 A 
ATOM      3  N   UNL     1      -2.628  11.249  17.772  0.00  0.00    +0.000 NA
ATOM      4  C   UNL     1      -1.619  11.211  18.692  0.00  0.00    +0.000 A 
ATOM      5  C   UNL     1      -1.458  11.985  19.846  0.00  0.00    +0.000 A 
ATOM      6  C   UNL     1      -0.339  11.760  20.655  0.00  0.00    +0.000 A 
ATOM      7  C   UNL     1       0.587  10.773  20.271  0.00  0.00    +0.000 A 
ATOM      8  C   UNL     1       0.472   9.964  19.117  0.00  0.00    +0.000 A 
ATOM      9  C   UNL     1      -0.680  10.239  18.358  0.00  0.00    +0.000 A 
ATOM     10  O   UNL     1      -1.122   9.651  17.192  0.00  0.00    +0.000 OA
ENDROOT
BRANCH   8  11
ATOM     11  N   UNL     1       1.423   8.962  18.782  0.00  0.00    +0.000 N 
ATOM     12  C   UNL     1       1.764   7.894  19.605  0.00  0.00    +0.000 C 
ATOM     13  O   UNL     1       1.312   7.688  20.733  0.00  0.00    +0.000 OA
ATOM     14  H   UNL     1       1.884   9.024  17.873  0.00  0.00    +0.000 HD
BRANCH  12  15
ATOM     15  C   UNL     1       2.756   6.892  19.115  0.00  0.00    +0.000 A 
ATOM     16  C   UNL     1       2.994   5.777  19.926  0.00  0.00    +0.000 A 
ATOM     17  C   UNL     1       3.907   4.823  19.518  0.00  0.00    +0.000 A 
ATOM     18  C   UNL     1       4.578   5.016  18.321  0.00  0.00    +0.000 A 
ATOM     19  C   UNL     1       4.319   6.166  17.561  0.00  0.00    +0.000 A 
ATOM     20  N   UNL     1       3.393   7.111  17.937  0.00  0.00    +0.000 NA
BRANCH  19  21
ATOM     21  C   UNL     1       5.141   6.391  16.293  0.00  0.00    +0.000 C 
ATOM     22  F   UNL     1       6.421   6.793  16.545  0.00  0.00    +0.000 F 
ATOM     23  F   UNL     1       5.257   5.268  15.528  0.00  0.00    +0.000 F 
ATOM     24  F   UNL     1       4.613   7.352  15.482  0.00  0.00    +0.000 F 
ENDBRANCH  19  21
ENDBRANCH  12  15
ENDBRANCH   8  11
BRANCH   6  25
ATOM     25  C   UNL     1      -0.117  12.517  21.962  0.00  0.00    +0.000 C 
ATOM     26  C   UNL     1      -1.303  12.272  22.895  0.00  0.00    +0.000 C 
BRANCH  25  27
ATOM     27  S   UNL     1       0.172  14.289  21.612  0.00  0.00    +0.000 S 
BRANCH  27  28
ATOM     28  C   UNL     1       1.857  14.346  21.252  0.00  0.00    +0.000 A 
ATOM     29  N   UNL     1       2.867  14.403  22.091  0.00  0.00    +0.000 NA
ATOM     30  N   UNL     1       4.025  14.512  21.347  0.00  0.00    +0.000 NA
ATOM     31  C   UNL     1       3.685  14.496  20.079  0.00  0.00    +0.000 A 
ATOM     32  N   UNL     1       2.332  14.370  19.972  0.00  0.00    +0.000 N 
ATOM     33  C   UNL     1       1.582  14.276  18.747  0.00  0.00    +0.000 C 
ENDBRANCH  27  28
ENDBRANCH  25  27
ENDBRANCH   6  25
TORSDOF 6
ENDMDL
