MODEL 1
REMARK VINA RESULT:      -8.0      0.000      0.000
REMARK  Name = 
REMARK  7 active torsions:
REMARK  status: ('A' for Active; 'I' for Inactive)
REMARK    1  A    between atoms: C_1  and  C_2
REMARK    2  A    between atoms: C_2  and  S_3
REMARK    3  A    between atoms: C_2  and  C_10
REMARK    4  A    between atoms: S_3  and  C_4
REMARK    5  A    between atoms: N_8  and  C_9
REMARK    6  A    between atoms: C_16  and  C_18
REMARK    7  A    between atoms: C_23  and  C_24
REMARK                            x       y       z     vdW  Elec       q    Type
REMARK                         _______ _______ _______ _____ _____    ______ ____
ROOT
ATOM      1  C   UNL     1       0.161  11.225  20.910  0.00  0.00    +0.000 A 
ATOM      2  C   UNL     1       0.509  12.180  19.948  0.00  0.00    +0.000 A 
ATOM      3  C   UNL     1       1.220  11.783  18.831  0.00  0.00    +0.000 A 
ATOM      4  N   UNL     1       1.611  10.518  18.613  0.00  0.00    +0.000 NA
ATOM      5  C   UNL     1       1.294   9.584  19.522  0.00  0.00    +0.000 A 
ATOM      6  N   UNL     1       1.720   8.262  19.323  0.00  0.00    +0.000 N 
ATOM      7  C   UNL     1       2.402   7.823  18.203  0.00  0.00    +0.000 C 
ATOM      8  O   UNL     1       2.694   8.467  17.199  0.00  0.00    +0.000 OA
ATOM      9  C   UNL     1       0.569   9.894  20.674  0.00  0.00    +0.000 A 
ATOM     10  H   UNL     1       1.538   7.575  20.043  0.00  0.00    +0.000 HD
ENDROOT
BRANCH   7  11
ATOM     11  C   UNL     1       2.813   6.385  18.255  0.00  0.00    +0.000 A 
ATOM     12  C   UNL     1       3.790   5.934  17.382  0.00  0.00    +0.000 A 
ATOM     13  C   UNL     1       4.170   4.606  17.474  0.00  0.00    +0.000 A 
ATOM     14 BR   UNL     1       5.506   3.932  16.321  0.00  0.00    +0.000 Br
ATOM     15  C   UNL     1       3.584   3.769  18.416  0.00  0.00    +0.000 A 
ATOM     16  C   UNL     1       2.606   4.293  19.263  0.00  0.00    +0.000 A 
ATOM     17  N   UNL     1       2.205   5.598  19.189  0.00  0.00    +0.000 NA
BRANCH  16  18
ATOM     18  C   UNL     1       1.970   3.390  20.316  0.00  0.00    +0.000 C 
ATOM     19  F   UNL     1       1.911   2.079  19.942  0.00  0.00    +0.000 F 
ATOM     20  F   UNL     1       2.650   3.403  21.498  0.00  0.00    +0.000 F 
ATOM     21  F   UNL     1       0.689   3.746  20.614  0.00  0.00    +0.000 F 
ENDBRANCH  16  18
ENDBRANCH   7  11
BRANCH   1  23
ATOM     22  C   UNL     1      -0.872  10.377  23.096  0.00  0.00    +0.000 C 
ATOM     23  C   UNL     1      -0.612  11.588  22.184  0.00  0.00    +0.000 C 
BRANCH  23  24
ATOM     24  S   UNL     1      -2.194  12.396  21.698  0.00  0.00    +0.000 S 
BRANCH  24  25
ATOM     25  C   UNL     1      -2.973  12.734  23.203  0.00  0.00    +0.000 A 
ATOM     26  N   UNL     1      -3.938  12.062  23.783  0.00  0.00    +0.000 NA
ATOM     27  N   UNL     1      -4.338  12.772  24.895  0.00  0.00    +0.000 NA
ATOM     28  C   UNL     1      -3.578  13.840  24.976  0.00  0.00    +0.000 A 
ATOM     29  N   UNL     1      -2.674  13.835  23.956  0.00  0.00    +0.000 N 
ATOM     30  C   UNL     1      -1.617  14.788  23.762  0.00  0.00    +0.000 C 
ENDBRANCH  24  25
ENDBRANCH  23  24
ENDBRANCH   1  23
TORSDOF 5
ENDMDL
MODEL 2
REMARK VINA RESULT:      -8.0      3.959      5.103
REMARK  Name = 
REMARK  7 active torsions:
REMARK  status: ('A' for Active; 'I' for Inactive)
REMARK    1  A    between atoms: C_1  and  C_2
REMARK    2  A    between atoms: C_2  and  S_3
REMARK    3  A    between atoms: C_2  and  C_10
REMARK    4  A    between atoms: S_3  and  C_4
REMARK    5  A    between atoms: N_8  and  C_9
REMARK    6  A    between atoms: C_16  and  C_18
REMARK    7  A    between atoms: C_23  and  C_24
REMARK                            x       y       z     vdW  Elec       q    Type
REMARK                         _______ _______ _______ _____ _____    ______ ____
ROOT
ATOM      1  C   UNL     1      -0.135  10.843  19.767  0.00  0.00    +0.000 A 
ATOM      2  C   UNL     1      -0.463  10.611  21.108  0.00  0.00    +0.000 A 
ATOM      3  C   UNL     1       0.008   9.470  21.728  0.00  0.00    +0.000 A 
ATOM      4  N   UNL     1       0.767   8.551  21.112  0.00  0.00    +0.000 NA
ATOM      5  C   UNL     1       1.091   8.747  19.825  0.00  0.00    +0.000 A 
ATOM      6  N   UNL     1       1.859   7.782  19.157  0.00  0.00    +0.000 N 
ATOM      7  C   UNL     1       2.376   6.647  19.755  0.00  0.00    +0.000 C 
ATOM      8  O   UNL     1       2.309   6.322  20.937  0.00  0.00    +0.000 OA
ATOM      9  C   UNL     1       0.668   9.877  19.124  0.00  0.00    +0.000 A 
ATOM     10  H   UNL     1       2.045   7.901  18.169  0.00  0.00    +0.000 HD
ENDROOT
BRANCH   7  11
ATOM     11  C   UNL     1       3.100   5.732  18.818  0.00  0.00    +0.000 A 
ATOM     12  C   UNL     1       2.944   4.362  18.962  0.00  0.00    +0.000 A 
ATOM     13  C   UNL     1       3.603   3.542  18.063  0.00  0.00    +0.000 A 
ATOM     14 BR   UNL     1       3.419   1.667  18.197  0.00  0.00    +0.000 Br
ATOM     15  C   UNL     1       4.388   4.089  17.056  0.00  0.00    +0.000 A 
ATOM     16  C   UNL     1       4.500   5.478  16.971  0.00  0.00    +0.000 A 
ATOM     17  N   UNL     1       3.867   6.311  17.851  0.00  0.00    +0.000 NA
BRANCH  16  18
ATOM     18  C   UNL     1       5.342   6.091  15.856  0.00  0.00    +0.000 C 
ATOM     19  F   UNL     1       4.729   7.134  15.224  0.00  0.00    +0.000 F 
ATOM     20  F   UNL     1       6.531   6.584  16.306  0.00  0.00    +0.000 F 
ATOM     21  F   UNL     1       5.651   5.197  14.875  0.00  0.00    +0.000 F 
ENDBRANCH  16  18
ENDBRANCH   7  11
BRANCH   1  23
ATOM     22  C   UNL     1      -0.162  13.402  19.626  0.00  0.00    +0.000 C 
ATOM     23  C   UNL     1      -0.633  12.077  19.003  0.00  0.00    +0.000 C 
BRANCH  23  24
ATOM     24  S   UNL     1      -2.472  12.009  18.916  0.00  0.00    +0.000 S 
BRANCH  24  25
ATOM     25  C   UNL     1      -2.793  11.207  17.420  0.00  0.00    +0.000 A 
ATOM     26  N   UNL     1      -1.992  10.432  16.730  0.00  0.00    +0.000 NA
ATOM     27  N   UNL     1      -2.619  10.128  15.540  0.00  0.00    +0.000 NA
ATOM     28  C   UNL     1      -3.801  10.702  15.559  0.00  0.00    +0.000 A 
ATOM     29  N   UNL     1      -3.971  11.356  16.743  0.00  0.00    +0.000 N 
ATOM     30  C   UNL     1      -5.168  12.024  17.172  0.00  0.00    +0.000 C 
ENDBRANCH  24  25
ENDBRANCH  23  24
ENDBRANCH   1  23
TORSDOF 5
ENDMDL
MODEL 3
REMARK VINA RESULT:      -8.0      0.911      1.449
REMARK  Name = 
REMARK  7 active torsions:
REMARK  status: ('A' for Active; 'I' for Inactive)
REMARK    1  A    between atoms: C_1  and  C_2
REMARK    2  A    between atoms: C_2  and  S_3
REMARK    3  A    between atoms: C_2  and  C_10
REMARK    4  A    between atoms: S_3  and  C_4
REMARK    5  A    between atoms: N_8  and  C_9
REMARK    6  A    between atoms: C_16  and  C_18
REMARK    7  A    between atoms: C_23  and  C_24
REMARK                            x       y       z     vdW  Elec       q    Type
REMARK                         _______ _______ _______ _____ _____    ______ ____
ROOT
ATOM      1  C   UNL     1       0.175  11.212  21.139  0.00  0.00    +0.000 A 
ATOM      2  C   UNL     1       0.418  12.209  20.187  0.00  0.00    +0.000 A 
ATOM      3  C   UNL     1       1.051  11.871  19.006  0.00  0.00    +0.000 A 
ATOM      4  N   UNL     1       1.462  10.628  18.714  0.00  0.00    +0.000 NA
ATOM      5  C   UNL     1       1.246   9.655  19.612  0.00  0.00    +0.000 A 
ATOM      6  N   UNL     1       1.696   8.355  19.336  0.00  0.00    +0.000 N 
ATOM      7  C   UNL     1       2.301   7.975  18.152  0.00  0.00    +0.000 C 
ATOM      8  O   UNL     1       2.494   8.661  17.151  0.00  0.00    +0.000 OA
ATOM      9  C   UNL     1       0.604   9.904  20.826  0.00  0.00    +0.000 A 
ATOM     10  H   UNL     1       1.592   7.640  20.044  0.00  0.00    +0.000 HD
ENDROOT
BRANCH   7  11
ATOM     11  C   UNL     1       2.760   6.551  18.123  0.00  0.00    +0.000 A 
ATOM     12  C   UNL     1       3.964   6.245  17.509  0.00  0.00    +0.000 A 
ATOM     13  C   UNL     1       4.375   4.924  17.523  0.00  0.00    +0.000 A 
ATOM     14 BR   UNL     1       6.014   4.444  16.716  0.00  0.00    +0.000 Br
ATOM     15  C   UNL     1       3.597   3.951  18.138  0.00  0.00    +0.000 A 
ATOM     16  C   UNL     1       2.395   4.332  18.737  0.00  0.00    +0.000 A 
ATOM     17  N   UNL     1       1.960   5.628  18.730  0.00  0.00    +0.000 NA
BRANCH  16  18
ATOM     18  C   UNL     1       1.542   3.276  19.434  0.00  0.00    +0.000 C 
ATOM     19  F   UNL     1       0.945   2.403  18.571  0.00  0.00    +0.000 F 
ATOM     20  F   UNL     1       2.263   2.503  20.295  0.00  0.00    +0.000 F 
ATOM     21  F   UNL     1       0.529   3.816  20.169  0.00  0.00    +0.000 F 
ENDBRANCH  16  18
ENDBRANCH   7  11
BRANCH   1  23
ATOM     22  C   UNL     1      -1.012  10.242  23.192  0.00  0.00    +0.000 C 
ATOM     23  C   UNL     1      -0.507  11.508  22.481  0.00  0.00    +0.000 C 
BRANCH  23  24
ATOM     24  S   UNL     1      -1.887  12.693  22.187  0.00  0.00    +0.000 S 
BRANCH  24  25
ATOM     25  C   UNL     1      -1.652  13.917  23.382  0.00  0.00    +0.000 A 
ATOM     26  N   UNL     1      -0.569  14.614  23.624  0.00  0.00    +0.000 NA
ATOM     27  N   UNL     1      -0.798  15.374  24.752  0.00  0.00    +0.000 NA
ATOM     28  C   UNL     1      -2.030  15.141  25.141  0.00  0.00    +0.000 A 
ATOM     29  N   UNL     1      -2.621  14.263  24.283  0.00  0.00    +0.000 N 
ATOM     30  C   UNL     1      -3.993  13.837  24.324  0.00  0.00    +0.000 C 
ENDBRANCH  24  25
ENDBRANCH  23  24
ENDBRANCH   1  23
TORSDOF 5
ENDMDL
MODEL 4
REMARK VINA RESULT:      -8.0      2.485      3.041
REMARK  Name = 
REMARK  7 active torsions:
REMARK  status: ('A' for Active; 'I' for Inactive)
REMARK    1  A    between atoms: C_1  and  C_2
REMARK    2  A    between atoms: C_2  and  S_3
REMARK    3  A    between atoms: C_2  and  C_10
REMARK    4  A    between atoms: S_3  and  C_4
REMARK    5  A    between atoms: N_8  and  C_9
REMARK    6  A    between atoms: C_16  and  C_18
REMARK    7  A    between atoms: C_23  and  C_24
REMARK                            x       y       z     vdW  Elec       q    Type
REMARK                         _______ _______ _______ _____ _____    ______ ____
ROOT
ATOM      1  C   UNL     1       0.268  10.818  21.114  0.00  0.00    +0.000 A 
ATOM      2  C   UNL     1       0.369  11.841  20.164  0.00  0.00    +0.000 A 
ATOM      3  C   UNL     1       0.976  11.576  18.952  0.00  0.00    +0.000 A 
ATOM      4  N   UNL     1       1.493  10.381  18.627  0.00  0.00    +0.000 NA
ATOM      5  C   UNL     1       1.413   9.385  19.523  0.00  0.00    +0.000 A 
ATOM      6  N   UNL     1       1.974   8.137  19.211  0.00  0.00    +0.000 N 
ATOM      7  C   UNL     1       2.558   7.826  17.996  0.00  0.00    +0.000 C 
ATOM      8  O   UNL     1       2.637   8.535  16.996  0.00  0.00    +0.000 OA
ATOM      9  C   UNL     1       0.807   9.561  20.767  0.00  0.00    +0.000 A 
ATOM     10  H   UNL     1       1.972   7.409  19.914  0.00  0.00    +0.000 HD
ENDROOT
BRANCH   7  11
ATOM     11  C   UNL     1       3.150   6.454  17.929  0.00  0.00    +0.000 A 
ATOM     12  C   UNL     1       2.341   5.359  18.191  0.00  0.00    +0.000 A 
ATOM     13  C   UNL     1       2.910   4.102  18.093  0.00  0.00    +0.000 A 
ATOM     14 BR   UNL     1       1.857   2.568  18.424  0.00  0.00    +0.000 Br
ATOM     15  C   UNL     1       4.247   3.959  17.741  0.00  0.00    +0.000 A 
ATOM     16  C   UNL     1       5.001   5.107  17.491  0.00  0.00    +0.000 A 
ATOM     17  N   UNL     1       4.467   6.361  17.589  0.00  0.00    +0.000 NA
BRANCH  16  18
ATOM     18  C   UNL     1       6.464   4.962  17.082  0.00  0.00    +0.000 C 
ATOM     19  F   UNL     1       7.103   6.157  16.917  0.00  0.00    +0.000 F 
ATOM     20  F   UNL     1       7.201   4.277  18.002  0.00  0.00    +0.000 F 
ATOM     21  F   UNL     1       6.620   4.296  15.903  0.00  0.00    +0.000 F 
ENDBRANCH  16  18
ENDBRANCH   7  11
BRANCH   1  23
ATOM     22  C   UNL     1      -0.656   9.723  23.238  0.00  0.00    +0.000 C 
ATOM     23  C   UNL     1      -0.377  11.037  22.489  0.00  0.00    +0.000 C 
BRANCH  23  24
ATOM     24  S   UNL     1      -1.926  12.006  22.262  0.00  0.00    +0.000 S 
BRANCH  24  25
ATOM     25  C   UNL     1      -1.718  13.380  23.287  0.00  0.00    +0.000 A 
ATOM     26  N   UNL     1      -0.607  14.017  23.569  0.00  0.00    +0.000 NA
ATOM     27  N   UNL     1      -0.894  14.961  24.532  0.00  0.00    +0.000 NA
ATOM     28  C   UNL     1      -2.182  14.892  24.781  0.00  0.00    +0.000 A 
ATOM     29  N   UNL     1      -2.749  13.940  23.988  0.00  0.00    +0.000 N 
ATOM     30  C   UNL     1      -4.151  13.638  23.905  0.00  0.00    +0.000 C 
ENDBRANCH  24  25
ENDBRANCH  23  24
ENDBRANCH   1  23
TORSDOF 5
ENDMDL
MODEL 5
REMARK VINA RESULT:      -7.9      3.221      4.314
REMARK  Name = 
REMARK  7 active torsions:
REMARK  status: ('A' for Active; 'I' for Inactive)
REMARK    1  A    between atoms: C_1  and  C_2
REMARK    2  A    between atoms: C_2  and  S_3
REMARK    3  A    between atoms: C_2  and  C_10
REMARK    4  A    between atoms: S_3  and  C_4
REMARK    5  A    between atoms: N_8  and  C_9
REMARK    6  A    between atoms: C_16  and  C_18
REMARK    7  A    between atoms: C_23  and  C_24
REMARK                            x       y       z     vdW  Elec       q    Type
REMARK                         _______ _______ _______ _____ _____    ______ ____
ROOT
ATOM      1  C   UNL     1       0.268  11.072  20.186  0.00  0.00    +0.000 A 
ATOM      2  C   UNL     1      -0.332  10.736  21.405  0.00  0.00    +0.000 A 
ATOM      3  C   UNL     1      -0.145   9.467  21.921  0.00  0.00    +0.000 A 
ATOM      4  N   UNL     1       0.582   8.519  21.310  0.00  0.00    +0.000 NA
ATOM      5  C   UNL     1       1.164   8.815  20.138  0.00  0.00    +0.000 A 
ATOM      6  N   UNL     1       1.904   7.826  19.472  0.00  0.00    +0.000 N 
ATOM      7  C   UNL     1       2.141   6.559  19.974  0.00  0.00    +0.000 C 
ATOM      8  O   UNL     1       1.811   6.109  21.068  0.00  0.00    +0.000 OA
ATOM      9  C   UNL     1       1.037  10.074  19.550  0.00  0.00    +0.000 A 
ATOM     10  H   UNL     1       2.284   8.031  18.557  0.00  0.00    +0.000 HD
ENDROOT
BRANCH   7  11
ATOM     11  C   UNL     1       2.894   5.659  19.047  0.00  0.00    +0.000 A 
ATOM     12  C   UNL     1       3.629   6.220  18.015  0.00  0.00    +0.000 A 
ATOM     13  C   UNL     1       4.339   5.364  17.190  0.00  0.00    +0.000 A 
ATOM     14 BR   UNL     1       5.371   6.068  15.774  0.00  0.00    +0.000 Br
ATOM     15  C   UNL     1       4.306   3.991  17.406  0.00  0.00    +0.000 A 
ATOM     16  C   UNL     1       3.545   3.496  18.466  0.00  0.00    +0.000 A 
ATOM     17  N   UNL     1       2.827   4.318  19.290  0.00  0.00    +0.000 NA
BRANCH  16  18
ATOM     18  C   UNL     1       3.519   1.993  18.726  0.00  0.00    +0.000 C 
ATOM     19  F   UNL     1       4.441   1.585  19.646  0.00  0.00    +0.000 F 
ATOM     20  F   UNL     1       2.315   1.563  19.201  0.00  0.00    +0.000 F 
ATOM     21  F   UNL     1       3.767   1.258  17.606  0.00  0.00    +0.000 F 
ENDBRANCH  16  18
ENDBRANCH   7  11
BRANCH   1  23
ATOM     22  C   UNL     1      -1.072  12.506  18.539  0.00  0.00    +0.000 C 
ATOM     23  C   UNL     1       0.094  12.452  19.540  0.00  0.00    +0.000 C 
BRANCH  23  24
ATOM     24  S   UNL     1       1.680  12.921  18.727  0.00  0.00    +0.000 S 
BRANCH  24  25
ATOM     25  C   UNL     1       2.624  13.598  20.005  0.00  0.00    +0.000 A 
ATOM     26  N   UNL     1       2.424  13.500  21.297  0.00  0.00    +0.000 NA
ATOM     27  N   UNL     1       3.344  14.310  21.929  0.00  0.00    +0.000 NA
ATOM     28  C   UNL     1       4.099  14.849  21.000  0.00  0.00    +0.000 A 
ATOM     29  N   UNL     1       3.710  14.395  19.776  0.00  0.00    +0.000 N 
ATOM     30  C   UNL     1       4.354  14.687  18.525  0.00  0.00    +0.000 C 
ENDBRANCH  24  25
ENDBRANCH  23  24
ENDBRANCH   1  23
TORSDOF 5
ENDMDL
MODEL 6
REMARK VINA RESULT:      -7.9      3.746      4.687
REMARK  Name = 
REMARK  7 active torsions:
REMARK  status: ('A' for Active; 'I' for Inactive)
REMARK    1  A    between atoms: C_1  and  C_2
REMARK    2  A    between atoms: C_2  and  S_3
REMARK    3  A    between atoms: C_2  and  C_10
REMARK    4  A    between atoms: S_3  and  C_4
REMARK    5  A    between atoms: N_8  and  C_9
REMARK    6  A    between atoms: C_16  and  C_18
REMARK    7  A    between atoms: C_23  and  C_24
REMARK                            x       y       z     vdW  Elec       q    Type
REMARK                         _______ _______ _______ _____ _____    ______ ____
ROOT
ATOM      1  C   UNL     1       0.116  10.886  20.459  0.00  0.00    +0.000 A 
ATOM      2  C   UNL     1      -0.445  10.456  21.666  0.00  0.00    +0.000 A 
ATOM      3  C   UNL     1      -0.182   9.175  22.112  0.00  0.00    +0.000 A 
ATOM      4  N   UNL     1       0.584   8.300  21.443  0.00  0.00    +0.000 NA
ATOM      5  C   UNL     1       1.130   8.686  20.280  0.00  0.00    +0.000 A 
ATOM      6  N   UNL     1       1.910   7.774  19.553  0.00  0.00    +0.000 N 
ATOM      7  C   UNL     1       2.222   6.498  19.985  0.00  0.00    +0.000 C 
ATOM      8  O   UNL     1       1.935   5.975  21.058  0.00  0.00    +0.000 OA
ATOM      9  C   UNL     1       0.926   9.965  19.760  0.00  0.00    +0.000 A 
ATOM     10  H   UNL     1       2.264   8.046  18.645  0.00  0.00    +0.000 HD
ENDROOT
BRANCH   7  11
ATOM     11  C   UNL     1       3.007   5.688  19.001  0.00  0.00    +0.000 A 
ATOM     12  C   UNL     1       2.894   4.307  19.025  0.00  0.00    +0.000 A 
ATOM     13  C   UNL     1       3.609   3.587  18.084  0.00  0.00    +0.000 A 
ATOM     14 BR   UNL     1       3.487   1.702  18.055  0.00  0.00    +0.000 Br
ATOM     15  C   UNL     1       4.407   4.242  17.153  0.00  0.00    +0.000 A 
ATOM     16  C   UNL     1       4.472   5.636  17.189  0.00  0.00    +0.000 A 
ATOM     17  N   UNL     1       3.783   6.372  18.112  0.00  0.00    +0.000 NA
BRANCH  16  18
ATOM     18  C   UNL     1       5.327   6.368  16.158  0.00  0.00    +0.000 C 
ATOM     19  F   UNL     1       6.302   7.145  16.714  0.00  0.00    +0.000 F 
ATOM     20  F   UNL     1       5.976   5.516  15.314  0.00  0.00    +0.000 F 
ATOM     21  F   UNL     1       4.599   7.204  15.365  0.00  0.00    +0.000 F 
ENDBRANCH  16  18
ENDBRANCH   7  11
BRANCH   1  23
ATOM     22  C   UNL     1       0.595  13.395  20.657  0.00  0.00    +0.000 C 
ATOM     23  C   UNL     1      -0.142  12.286  19.887  0.00  0.00    +0.000 C 
BRANCH  23  24
ATOM     24  S   UNL     1      -1.959  12.589  19.877  0.00  0.00    +0.000 S 
BRANCH  24  25
ATOM     25  C   UNL     1      -2.507  11.813  18.435  0.00  0.00    +0.000 A 
ATOM     26  N   UNL     1      -1.784  11.301  17.468  0.00  0.00    +0.000 NA
ATOM     27  N   UNL     1      -2.642  10.913  16.460  0.00  0.00    +0.000 NA
ATOM     28  C   UNL     1      -3.866  11.170  16.862  0.00  0.00    +0.000 A 
ATOM     29  N   UNL     1      -3.831  11.697  18.119  0.00  0.00    +0.000 N 
ATOM     30  C   UNL     1      -4.974  12.019  18.929  0.00  0.00    +0.000 C 
ENDBRANCH  24  25
ENDBRANCH  23  24
ENDBRANCH   1  23
TORSDOF 5
ENDMDL
MODEL 7
REMARK VINA RESULT:      -7.9      3.965      4.803
REMARK  Name = 
REMARK  7 active torsions:
REMARK  status: ('A' for Active; 'I' for Inactive)
REMARK    1  A    between atoms: C_1  and  C_2
REMARK    2  A    between atoms: C_2  and  S_3
REMARK    3  A    between atoms: C_2  and  C_10
REMARK    4  A    between atoms: S_3  and  C_4
REMARK    5  A    between atoms: N_8  and  C_9
REMARK    6  A    between atoms: C_16  and  C_18
REMARK    7  A    between atoms: C_23  and  C_24
REMARK                            x       y       z     vdW  Elec       q    Type
REMARK                         _______ _______ _______ _____ _____    ______ ____
ROOT
ATOM      1  C   UNL     1       0.337  11.032  20.001  0.00  0.00    +0.000 A 
ATOM      2  C   UNL     1      -0.280  10.681  21.207  0.00  0.00    +0.000 A 
ATOM      3  C   UNL     1      -0.091   9.410  21.715  0.00  0.00    +0.000 A 
ATOM      4  N   UNL     1       0.651   8.472  21.108  0.00  0.00    +0.000 NA
ATOM      5  C   UNL     1       1.249   8.781  19.947  0.00  0.00    +0.000 A 
ATOM      6  N   UNL     1       2.006   7.803  19.284  0.00  0.00    +0.000 N 
ATOM      7  C   UNL     1       2.243   6.534  19.779  0.00  0.00    +0.000 C 
ATOM      8  O   UNL     1       1.900   6.072  20.863  0.00  0.00    +0.000 OA
ATOM      9  C   UNL     1       1.122  10.045  19.368  0.00  0.00    +0.000 A 
ATOM     10  H   UNL     1       2.399   8.019  18.377  0.00  0.00    +0.000 HD
ENDROOT
BRANCH   7  11
ATOM     11  C   UNL     1       3.017   5.647  18.855  0.00  0.00    +0.000 A 
ATOM     12  C   UNL     1       2.901   4.272  18.989  0.00  0.00    +0.000 A 
ATOM     13  C   UNL     1       3.606   3.478  18.102  0.00  0.00    +0.000 A 
ATOM     14 BR   UNL     1       3.479   1.597  18.223  0.00  0.00    +0.000 Br
ATOM     15  C   UNL     1       4.396   4.055  17.115  0.00  0.00    +0.000 A 
ATOM     16  C   UNL     1       4.466   5.447  17.039  0.00  0.00    +0.000 A 
ATOM     17  N   UNL     1       3.787   6.256  17.908  0.00  0.00    +0.000 NA
BRANCH  16  18
ATOM     18  C   UNL     1       5.313   6.092  15.947  0.00  0.00    +0.000 C 
ATOM     19  F   UNL     1       6.527   6.532  16.390  0.00  0.00    +0.000 F 
ATOM     20  F   UNL     1       5.586   5.238  14.920  0.00  0.00    +0.000 F 
ATOM     21  F   UNL     1       4.712   7.178  15.384  0.00  0.00    +0.000 F 
ENDBRANCH  16  18
ENDBRANCH   7  11
BRANCH   1  23
ATOM     22  C   UNL     1      -0.853  12.426  18.210  0.00  0.00    +0.000 C 
ATOM     23  C   UNL     1       0.164  12.417  19.364  0.00  0.00    +0.000 C 
BRANCH  23  24
ATOM     24  S   UNL     1       1.812  13.008  18.791  0.00  0.00    +0.000 S 
BRANCH  24  25
ATOM     25  C   UNL     1       2.448  13.864  20.150  0.00  0.00    +0.000 A 
ATOM     26  N   UNL     1       2.673  13.409  21.359  0.00  0.00    +0.000 NA
ATOM     27  N   UNL     1       3.051  14.475  22.148  0.00  0.00    +0.000 NA
ATOM     28  C   UNL     1       3.079  15.542  21.382  0.00  0.00    +0.000 A 
ATOM     29  N   UNL     1       2.749  15.196  20.106  0.00  0.00    +0.000 N 
ATOM     30  C   UNL     1       2.759  16.071  18.966  0.00  0.00    +0.000 C 
ENDBRANCH  24  25
ENDBRANCH  23  24
ENDBRANCH   1  23
TORSDOF 5
ENDMDL
MODEL 8
REMARK VINA RESULT:      -7.9      0.981      1.244
REMARK  Name = 
REMARK  7 active torsions:
REMARK  status: ('A' for Active; 'I' for Inactive)
REMARK    1  A    between atoms: C_1  and  C_2
REMARK    2  A    between atoms: C_2  and  S_3
REMARK    3  A    between atoms: C_2  and  C_10
REMARK    4  A    between atoms: S_3  and  C_4
REMARK    5  A    between atoms: N_8  and  C_9
REMARK    6  A    between atoms: C_16  and  C_18
REMARK    7  A    between atoms: C_23  and  C_24
REMARK                            x       y       z     vdW  Elec       q    Type
REMARK                         _______ _______ _______ _____ _____    ______ ____
ROOT
ATOM      1  C   UNL     1      -0.123  11.692  21.080  0.00  0.00    +0.000 A 
ATOM      2  C   UNL     1      -0.098  12.484  19.926  0.00  0.00    +0.000 A 
ATOM      3  C   UNL     1       0.462  11.973  18.771  0.00  0.00    +0.000 A 
ATOM      4  N   UNL     1       1.000  10.747  18.687  0.00  0.00    +0.000 NA
ATOM      5  C   UNL     1       0.993   9.969  19.781  0.00  0.00    +0.000 A 
ATOM      6  N   UNL     1       1.577   8.695  19.719  0.00  0.00    +0.000 N 
ATOM      7  C   UNL     1       2.114   8.139  18.573  0.00  0.00    +0.000 C 
ATOM      8  O   UNL     1       2.126   8.613  17.440  0.00  0.00    +0.000 OA
ATOM      9  C   UNL     1       0.439  10.401  20.987  0.00  0.00    +0.000 A 
ATOM     10  H   UNL     1       1.630   8.139  20.563  0.00  0.00    +0.000 HD
ENDROOT
BRANCH   7  11
ATOM     11  C   UNL     1       2.745   6.797  18.775  0.00  0.00    +0.000 A 
ATOM     12  C   UNL     1       3.961   6.528  18.166  0.00  0.00    +0.000 A 
ATOM     13  C   UNL     1       4.534   5.289  18.396  0.00  0.00    +0.000 A 
ATOM     14 BR   UNL     1       6.196   4.864  17.605  0.00  0.00    +0.000 Br
ATOM     15  C   UNL     1       3.900   4.360  19.213  0.00  0.00    +0.000 A 
ATOM     16  C   UNL     1       2.677   4.701  19.794  0.00  0.00    +0.000 A 
ATOM     17  N   UNL     1       2.085   5.914  19.577  0.00  0.00    +0.000 NA
BRANCH  16  18
ATOM     18  C   UNL     1       1.983   3.699  20.711  0.00  0.00    +0.000 C 
ATOM     19  F   UNL     1       0.622   3.811  20.707  0.00  0.00    +0.000 F 
ATOM     20  F   UNL     1       2.244   2.405  20.367  0.00  0.00    +0.000 F 
ATOM     21  F   UNL     1       2.358   3.826  22.014  0.00  0.00    +0.000 F 
ENDBRANCH  16  18
ENDBRANCH   7  11
BRANCH   1  23
ATOM     22  C   UNL     1      -1.471  11.102  23.177  0.00  0.00    +0.000 C 
ATOM     23  C   UNL     1      -0.710  12.193  22.406  0.00  0.00    +0.000 C 
BRANCH  23  24
ATOM     24  S   UNL     1      -1.804  13.633  22.054  0.00  0.00    +0.000 S 
BRANCH  24  25
ATOM     25  C   UNL     1      -3.343  13.154  22.674  0.00  0.00    +0.000 A 
ATOM     26  N   UNL     1      -4.238  12.382  22.107  0.00  0.00    +0.000 NA
ATOM     27  N   UNL     1      -5.365  12.386  22.902  0.00  0.00    +0.000 NA
ATOM     28  C   UNL     1      -5.106  13.135  23.950  0.00  0.00    +0.000 A 
ATOM     29  N   UNL     1      -3.829  13.604  23.870  0.00  0.00    +0.000 N 
ATOM     30  C   UNL     1      -3.152  14.380  24.872  0.00  0.00    +0.000 C 
ENDBRANCH  24  25
ENDBRANCH  23  24
ENDBRANCH   1  23
TORSDOF 5
ENDMDL
MODEL 9
REMARK VINA RESULT:      -7.9      1.398      1.718
REMARK  Name = 
REMARK  7 active torsions:
REMARK  status: ('A' for Active; 'I' for Inactive)
REMARK    1  A    between atoms: C_1  and  C_2
REMARK    2  A    between atoms: C_2  and  S_3
REMARK    3  A    between atoms: C_2  and  C_10
REMARK    4  A    between atoms: S_3  and  C_4
REMARK    5  A    between atoms: N_8  and  C_9
REMARK    6  A    between atoms: C_16  and  C_18
REMARK    7  A    between atoms: C_23  and  C_24
REMARK                            x       y       z     vdW  Elec       q    Type
REMARK                         _______ _______ _______ _____ _____    ______ ____
ROOT
ATOM      1  C   UNL     1       0.010  11.780  21.146  0.00  0.00    +0.000 A 
ATOM      2  C   UNL     1       0.222  12.702  20.115  0.00  0.00    +0.000 A 
ATOM      3  C   UNL     1       0.839  12.282  18.953  0.00  0.00    +0.000 A 
ATOM      4  N   UNL     1       1.263  11.026  18.751  0.00  0.00    +0.000 NA
ATOM      5  C   UNL     1       1.077  10.123  19.726  0.00  0.00    +0.000 A 
ATOM      6  N   UNL     1       1.541   8.812  19.543  0.00  0.00    +0.000 N 
ATOM      7  C   UNL     1       2.131   8.349  18.381  0.00  0.00    +0.000 C 
ATOM      8  O   UNL     1       2.297   8.956  17.327  0.00  0.00    +0.000 OA
ATOM      9  C   UNL     1       0.453  10.457  20.929  0.00  0.00    +0.000 A 
ATOM     10  H   UNL     1       1.460   8.152  20.306  0.00  0.00    +0.000 HD
ENDROOT
BRANCH   7  11
ATOM     11  C   UNL     1       2.610   6.933  18.454  0.00  0.00    +0.000 A 
ATOM     12  C   UNL     1       3.556   6.495  17.542  0.00  0.00    +0.000 A 
ATOM     13  C   UNL     1       4.000   5.189  17.652  0.00  0.00    +0.000 A 
ATOM     14 BR   UNL     1       5.300   4.536  16.447  0.00  0.00    +0.000 Br
ATOM     15  C   UNL     1       3.506   4.359  18.652  0.00  0.00    +0.000 A 
ATOM     16  C   UNL     1       2.554   4.869  19.537  0.00  0.00    +0.000 A 
ATOM     17  N   UNL     1       2.091   6.152  19.445  0.00  0.00    +0.000 NA
BRANCH  16  18
ATOM     18  C   UNL     1       2.020   3.974  20.652  0.00  0.00    +0.000 C 
ATOM     19  F   UNL     1       2.459   2.684  20.571  0.00  0.00    +0.000 F 
ATOM     20  F   UNL     1       2.383   4.407  21.892  0.00  0.00    +0.000 F 
ATOM     21  F   UNL     1       0.659   3.898  20.662  0.00  0.00    +0.000 F 
ENDBRANCH  16  18
ENDBRANCH   7  11
BRANCH   1  23
ATOM     22  C   UNL     1      -1.494  11.037  23.083  0.00  0.00    +0.000 C 
ATOM     23  C   UNL     1      -0.653  12.171  22.474  0.00  0.00    +0.000 C 
BRANCH  23  24
ATOM     24  S   UNL     1      -1.680  13.675  22.194  0.00  0.00    +0.000 S 
BRANCH  24  25
ATOM     25  C   UNL     1      -3.149  13.062  21.524  0.00  0.00    +0.000 A 
ATOM     26  N   UNL     1      -3.380  12.685  20.290  0.00  0.00    +0.000 NA
ATOM     27  N   UNL     1      -4.724  12.399  20.180  0.00  0.00    +0.000 NA
ATOM     28  C   UNL     1      -5.264  12.577  21.364  0.00  0.00    +0.000 A 
ATOM     29  N   UNL     1      -4.301  12.953  22.252  0.00  0.00    +0.000 N 
ATOM     30  C   UNL     1      -4.487  13.151  23.663  0.00  0.00    +0.000 C 
ENDBRANCH  24  25
ENDBRANCH  23  24
ENDBRANCH   1  23
TORSDOF 5
ENDMDL
